MODEL 1
REMARK VINA RESULT:      -8.6      0.000      0.000
REMARK  5 active torsions:
REMARK  status: ('A' for Active; 'I' for Inactive)
REMARK    1  A    between atoms: C_7  and  C_8 
REMARK    2  A    between atoms: N_9  and  N_10 
REMARK       I    between atoms: N_10  and  C_11 
REMARK    3  A    between atoms: C_11  and  C_12 
REMARK    4  A    between atoms: C_12  and  N_13 
REMARK    5  A    between atoms: N_13  and  C_14 
ROOT
HETATM    1  N   UNL     1      42.434 -15.348   1.812  1.00  0.00    -0.246 N 
HETATM    2  C   UNL     1      41.611 -15.481   0.697  1.00  0.00     0.250 C 
HETATM    3  O   UNL     1      41.288 -16.540   0.160  1.00  0.00    -0.270 OA
HETATM    4  H   UNL     1      42.724 -14.415   2.091  1.00  0.00     0.192 HD
ENDROOT
BRANCH   1   5
HETATM    5  N   UNL     1      43.204 -16.344   2.364  1.00  0.00    -0.184 NA
HETATM    6  C   UNL     1      42.755 -16.987   3.395  1.00  0.00     0.153 C 
BRANCH   6   7
HETATM    7  C   UNL     1      43.512 -18.100   3.950  1.00  0.00     0.018 A 
HETATM    8  C   UNL     1      44.189 -18.144   5.164  1.00  0.00     0.018 A 
HETATM    9  C   UNL     1      44.350 -17.127   6.236  1.00  0.00     0.069 C 
HETATM   10  N   UNL     1      44.769 -19.384   5.273  1.00  0.00    -0.358 N 
HETATM   11  H   UNL     1      45.328 -19.696   6.055  1.00  0.00     0.166 HD
HETATM   12  C   UNL     1      44.495 -20.151   4.167  1.00  0.00     0.043 A 
HETATM   13  C   UNL     1      43.707 -19.375   3.318  1.00  0.00     0.004 A 
HETATM   14  C   UNL     1      44.886 -21.459   3.859  1.00  0.00     0.030 A 
HETATM   15  C   UNL     1      43.291 -19.940   2.092  1.00  0.00     0.014 A 
HETATM   16  C   UNL     1      43.673 -21.247   1.767  1.00  0.00     0.001 A 
HETATM   17  C   UNL     1      44.460 -21.994   2.640  1.00  0.00     0.002 A 
ENDBRANCH   6   7
ENDBRANCH   1   5
BRANCH   2  18
HETATM   18  C   UNL     1      41.093 -14.138   0.167  1.00  0.00     0.197 C 
BRANCH  18  19
HETATM   19  N   UNL     1      41.209 -14.060  -1.294  1.00  0.00    -0.282 NA
HETATM   20  H   UNL     1      42.079 -14.499  -1.612  1.00  0.00     0.128 HD
BRANCH  19  21
HETATM   21  C   UNL     1      40.130 -14.502  -2.076  1.00  0.00     0.047 A 
HETATM   22  C   UNL     1      40.348 -15.439  -3.101  1.00  0.00     0.137 A 
HETATM   23  F   UNL     1      41.578 -15.954  -3.268  1.00  0.00    -0.204 F 
HETATM   24  C   UNL     1      39.324 -15.866  -3.943  1.00  0.00     0.044 A 
HETATM   25  C   UNL     1      38.046 -15.338  -3.789  1.00  0.00     0.003 A 
HETATM   26  C   UNL     1      37.808 -14.384  -2.800  1.00  0.00     0.002 A 
HETATM   27  C   UNL     1      38.844 -13.964  -1.956  1.00  0.00     0.026 A 
ENDBRANCH  19  21
ENDBRANCH  18  19
ENDBRANCH   2  18
TORSDOF 5
ENDMDL
MODEL 2
REMARK VINA RESULT:      -8.5      2.329      2.806
REMARK  5 active torsions:
REMARK  status: ('A' for Active; 'I' for Inactive)
REMARK    1  A    between atoms: C_7  and  C_8 
REMARK    2  A    between atoms: N_9  and  N_10 
REMARK       I    between atoms: N_10  and  C_11 
REMARK    3  A    between atoms: C_11  and  C_12 
REMARK    4  A    between atoms: C_12  and  N_13 
REMARK    5  A    between atoms: N_13  and  C_14 
ROOT
HETATM    1  N   UNL     1      42.949 -15.107   2.353  1.00  0.00    -0.246 N 
HETATM    2  C   UNL     1      43.067 -13.805   2.832  1.00  0.00     0.250 C 
HETATM    3  O   UNL     1      43.935 -13.395   3.601  1.00  0.00    -0.270 OA
HETATM    4  H   UNL     1      42.121 -15.352   1.817  1.00  0.00     0.192 HD
ENDROOT
BRANCH   1   5
HETATM    5  N   UNL     1      43.633 -16.201   2.826  1.00  0.00    -0.184 NA
HETATM    6  C   UNL     1      43.081 -16.944   3.732  1.00  0.00     0.153 C 
BRANCH   6   7
HETATM    7  C   UNL     1      43.747 -18.153   4.193  1.00  0.00     0.018 A 
HETATM    8  C   UNL     1      44.422 -18.345   5.393  1.00  0.00     0.018 A 
HETATM    9  C   UNL     1      44.668 -17.430   6.538  1.00  0.00     0.069 C 
HETATM   10  N   UNL     1      44.900 -19.633   5.402  1.00  0.00    -0.358 N 
HETATM   11  H   UNL     1      45.434 -20.048   6.152  1.00  0.00     0.166 HD
HETATM   12  C   UNL     1      44.561 -20.287   4.243  1.00  0.00     0.043 A 
HETATM   13  C   UNL     1      43.836 -19.388   3.463  1.00  0.00     0.004 A 
HETATM   14  C   UNL     1      44.845 -21.595   3.832  1.00  0.00     0.030 A 
HETATM   15  C   UNL     1      43.371 -19.821   2.202  1.00  0.00     0.014 A 
HETATM   16  C   UNL     1      43.646 -21.126   1.774  1.00  0.00     0.001 A 
HETATM   17  C   UNL     1      44.372 -21.998   2.580  1.00  0.00     0.002 A 
ENDBRANCH   6   7
ENDBRANCH   1   5
BRANCH   2  18
HETATM   18  C   UNL     1      41.988 -12.862   2.286  1.00  0.00     0.197 C 
BRANCH  18  19
HETATM   19  N   UNL     1      42.485 -12.081   1.148  1.00  0.00    -0.282 NA
HETATM   20  H   UNL     1      43.489 -11.899   1.245  1.00  0.00     0.128 HD
BRANCH  19  21
HETATM   21  C   UNL     1      42.200 -12.534  -0.150  1.00  0.00     0.047 A 
HETATM   22  C   UNL     1      42.812 -11.919  -1.255  1.00  0.00     0.137 A 
HETATM   23  F   UNL     1      43.721 -10.952  -1.047  1.00  0.00    -0.204 F 
HETATM   24  C   UNL     1      42.519 -12.290  -2.565  1.00  0.00     0.044 A 
HETATM   25  C   UNL     1      41.574 -13.285  -2.800  1.00  0.00     0.003 A 
HETATM   26  C   UNL     1      40.929 -13.892  -1.723  1.00  0.00     0.002 A 
HETATM   27  C   UNL     1      41.233 -13.513  -0.409  1.00  0.00     0.026 A 
ENDBRANCH  19  21
ENDBRANCH  18  19
ENDBRANCH   2  18
TORSDOF 5
ENDMDL
MODEL 3
REMARK VINA RESULT:      -8.5      6.276      9.664
REMARK  5 active torsions:
REMARK  status: ('A' for Active; 'I' for Inactive)
REMARK    1  A    between atoms: C_7  and  C_8 
REMARK    2  A    between atoms: N_9  and  N_10 
REMARK       I    between atoms: N_10  and  C_11 
REMARK    3  A    between atoms: C_11  and  C_12 
REMARK    4  A    between atoms: C_12  and  N_13 
REMARK    5  A    between atoms: N_13  and  C_14 
ROOT
HETATM    1  N   UNL     1      44.105 -14.456   7.531  1.00  0.00    -0.246 N 
HETATM    2  C   UNL     1      45.034 -13.419   7.524  1.00  0.00     0.250 C 
HETATM    3  O   UNL     1      46.088 -13.398   6.891  1.00  0.00    -0.270 OA
HETATM    4  H   UNL     1      43.330 -14.408   8.186  1.00  0.00     0.192 HD
ENDROOT
BRANCH   1   5
HETATM    5  N   UNL     1      44.307 -15.717   7.021  1.00  0.00    -0.184 NA
HETATM    6  C   UNL     1      43.396 -16.242   6.264  1.00  0.00     0.153 C 
BRANCH   6   7
HETATM    7  C   UNL     1      43.618 -17.540   5.645  1.00  0.00     0.018 A 
HETATM    8  C   UNL     1      43.829 -18.758   6.280  1.00  0.00     0.018 A 
HETATM    9  C   UNL     1      43.891 -19.116   7.722  1.00  0.00     0.069 C 
HETATM   10  N   UNL     1      44.001 -19.712   5.308  1.00  0.00    -0.358 N 
HETATM   11  H   UNL     1      44.176 -20.692   5.480  1.00  0.00     0.166 HD
HETATM   12  C   UNL     1      43.912 -19.155   4.056  1.00  0.00     0.043 A 
HETATM   13  C   UNL     1      43.670 -17.793   4.231  1.00  0.00     0.004 A 
HETATM   14  C   UNL     1      44.031 -19.750   2.795  1.00  0.00     0.030 A 
HETATM   15  C   UNL     1      43.543 -16.984   3.081  1.00  0.00     0.014 A 
HETATM   16  C   UNL     1      43.659 -17.562   1.812  1.00  0.00     0.001 A 
HETATM   17  C   UNL     1      43.899 -18.927   1.673  1.00  0.00     0.002 A 
ENDBRANCH   6   7
ENDBRANCH   1   5
BRANCH   2  18
HETATM   18  C   UNL     1      44.615 -12.230   8.398  1.00  0.00     0.197 C 
BRANCH  18  19
HETATM   19  N   UNL     1      44.274 -12.659   9.758  1.00  0.00    -0.282 NA
HETATM   20  H   UNL     1      45.048 -13.185  10.177  1.00  0.00     0.128 HD
BRANCH  19  21
HETATM   21  C   UNL     1      43.797 -11.698  10.664  1.00  0.00     0.047 A 
HETATM   22  C   UNL     1      43.579 -12.051  12.007  1.00  0.00     0.137 A 
HETATM   23  F   UNL     1      43.902 -13.288  12.421  1.00  0.00    -0.204 F 
HETATM   24  C   UNL     1      43.051 -11.153  12.932  1.00  0.00     0.044 A 
HETATM   25  C   UNL     1      42.705  -9.870  12.518  1.00  0.00     0.003 A 
HETATM   26  C   UNL     1      42.882  -9.502  11.185  1.00  0.00     0.002 A 
HETATM   27  C   UNL     1      43.416 -10.412  10.264  1.00  0.00     0.026 A 
ENDBRANCH  19  21
ENDBRANCH  18  19
ENDBRANCH   2  18
TORSDOF 5
ENDMDL
MODEL 4
REMARK VINA RESULT:      -8.4      2.969      3.214
REMARK  5 active torsions:
REMARK  status: ('A' for Active; 'I' for Inactive)
REMARK    1  A    between atoms: C_7  and  C_8 
REMARK    2  A    between atoms: N_9  and  N_10 
REMARK       I    between atoms: N_10  and  C_11 
REMARK    3  A    between atoms: C_11  and  C_12 
REMARK    4  A    between atoms: C_12  and  N_13 
REMARK    5  A    between atoms: N_13  and  C_14 
ROOT
HETATM    1  N   UNL     1      42.866 -15.189   2.431  1.00  0.00    -0.246 N 
HETATM    2  C   UNL     1      43.072 -13.898   2.911  1.00  0.00     0.250 C 
HETATM    3  O   UNL     1      44.026 -13.525   3.591  1.00  0.00    -0.270 OA
HETATM    4  H   UNL     1      41.980 -15.403   1.981  1.00  0.00     0.192 HD
ENDROOT
BRANCH   1   5
HETATM    5  N   UNL     1      43.562 -16.310   2.820  1.00  0.00    -0.184 NA
HETATM    6  C   UNL     1      43.132 -16.998   3.829  1.00  0.00     0.153 C 
BRANCH   6   7
HETATM    7  C   UNL     1      43.801 -18.232   4.212  1.00  0.00     0.018 A 
HETATM    8  C   UNL     1      44.526 -18.480   5.372  1.00  0.00     0.018 A 
HETATM    9  C   UNL     1      44.836 -17.614   6.540  1.00  0.00     0.069 C 
HETATM   10  N   UNL     1      44.986 -19.772   5.308  1.00  0.00    -0.358 N 
HETATM   11  H   UNL     1      45.547 -20.224   6.017  1.00  0.00     0.166 HD
HETATM   12  C   UNL     1      44.587 -20.376   4.141  1.00  0.00     0.043 A 
HETATM   13  C   UNL     1      43.840 -19.438   3.431  1.00  0.00     0.004 A 
HETATM   14  C   UNL     1      44.834 -21.670   3.667  1.00  0.00     0.030 A 
HETATM   15  C   UNL     1      43.314 -19.815   2.176  1.00  0.00     0.014 A 
HETATM   16  C   UNL     1      43.551 -21.104   1.685  1.00  0.00     0.001 A 
HETATM   17  C   UNL     1      44.301 -22.017   2.422  1.00  0.00     0.002 A 
ENDBRANCH   6   7
ENDBRANCH   1   5
BRANCH   2  18
HETATM   18  C   UNL     1      41.972 -12.916   2.490  1.00  0.00     0.197 C 
BRANCH  18  19
HETATM   19  N   UNL     1      40.697 -13.228   3.147  1.00  0.00    -0.282 NA
HETATM   20  H   UNL     1      40.592 -12.684   4.010  1.00  0.00     0.128 HD
BRANCH  19  21
HETATM   21  C   UNL     1      39.518 -13.160   2.387  1.00  0.00     0.047 A 
HETATM   22  C   UNL     1      39.011 -14.321   1.779  1.00  0.00     0.137 A 
HETATM   23  F   UNL     1      39.624 -15.496   1.996  1.00  0.00    -0.204 F 
HETATM   24  C   UNL     1      37.879 -14.297   0.968  1.00  0.00     0.044 A 
HETATM   25  C   UNL     1      37.235 -13.087   0.727  1.00  0.00     0.003 A 
HETATM   26  C   UNL     1      37.734 -11.915   1.293  1.00  0.00     0.002 A 
HETATM   27  C   UNL     1      38.871 -11.950   2.110  1.00  0.00     0.026 A 
ENDBRANCH  19  21
ENDBRANCH  18  19
ENDBRANCH   2  18
TORSDOF 5
ENDMDL
MODEL 5
REMARK VINA RESULT:      -8.4      6.030      9.268
REMARK  5 active torsions:
REMARK  status: ('A' for Active; 'I' for Inactive)
REMARK    1  A    between atoms: C_7  and  C_8 
REMARK    2  A    between atoms: N_9  and  N_10 
REMARK       I    between atoms: N_10  and  C_11 
REMARK    3  A    between atoms: C_11  and  C_12 
REMARK    4  A    between atoms: C_12  and  N_13 
REMARK    5  A    between atoms: N_13  and  C_14 
ROOT
HETATM    1  N   UNL     1      43.672 -14.463   6.737  1.00  0.00    -0.246 N 
HETATM    2  C   UNL     1      44.766 -13.707   7.149  1.00  0.00     0.250 C 
HETATM    3  O   UNL     1      45.763 -13.453   6.474  1.00  0.00    -0.270 OA
HETATM    4  H   UNL     1      42.963 -14.703   7.424  1.00  0.00     0.192 HD
ENDROOT
BRANCH   1   5
HETATM    5  N   UNL     1      43.614 -15.238   5.603  1.00  0.00    -0.184 NA
HETATM    6  C   UNL     1      42.842 -16.278   5.592  1.00  0.00     0.153 C 
BRANCH   6   7
HETATM    7  C   UNL     1      42.699 -17.071   4.379  1.00  0.00     0.018 A 
HETATM    8  C   UNL     1      41.855 -16.827   3.301  1.00  0.00     0.018 A 
HETATM    9  C   UNL     1      40.880 -15.735   3.045  1.00  0.00     0.069 C 
HETATM   10  N   UNL     1      42.044 -17.835   2.388  1.00  0.00    -0.358 N 
HETATM   11  H   UNL     1      41.559 -17.917   1.505  1.00  0.00     0.166 HD
HETATM   12  C   UNL     1      42.982 -18.732   2.837  1.00  0.00     0.043 A 
HETATM   13  C   UNL     1      43.414 -18.281   4.083  1.00  0.00     0.004 A 
HETATM   14  C   UNL     1      43.470 -19.899   2.239  1.00  0.00     0.030 A 
HETATM   15  C   UNL     1      44.387 -19.042   4.768  1.00  0.00     0.014 A 
HETATM   16  C   UNL     1      44.886 -20.213   4.185  1.00  0.00     0.001 A 
HETATM   17  C   UNL     1      44.433 -20.633   2.937  1.00  0.00     0.002 A 
ENDBRANCH   6   7
ENDBRANCH   1   5
BRANCH   2  18
HETATM   18  C   UNL     1      44.623 -13.169   8.578  1.00  0.00     0.197 C 
BRANCH  18  19
HETATM   19  N   UNL     1      44.689 -11.704   8.607  1.00  0.00    -0.282 NA
HETATM   20  H   UNL     1      44.478 -11.314   7.683  1.00  0.00     0.128 HD
BRANCH  19  21
HETATM   21  C   UNL     1      43.964 -11.021   9.597  1.00  0.00     0.047 A 
HETATM   22  C   UNL     1      44.553 -10.770  10.848  1.00  0.00     0.137 A 
HETATM   23  F   UNL     1      45.832 -11.125  11.053  1.00  0.00    -0.204 F 
HETATM   24  C   UNL     1      43.857 -10.150  11.882  1.00  0.00     0.044 A 
HETATM   25  C   UNL     1      42.529  -9.782  11.690  1.00  0.00     0.003 A 
HETATM   26  C   UNL     1      41.909 -10.046  10.469  1.00  0.00     0.002 A 
HETATM   27  C   UNL     1      42.619 -10.667   9.434  1.00  0.00     0.026 A 
ENDBRANCH  19  21
ENDBRANCH  18  19
ENDBRANCH   2  18
TORSDOF 5
ENDMDL
MODEL 6
REMARK VINA RESULT:      -8.2      2.184      2.760
REMARK  5 active torsions:
REMARK  status: ('A' for Active; 'I' for Inactive)
REMARK    1  A    between atoms: C_7  and  C_8 
REMARK    2  A    between atoms: N_9  and  N_10 
REMARK       I    between atoms: N_10  and  C_11 
REMARK    3  A    between atoms: C_11  and  C_12 
REMARK    4  A    between atoms: C_12  and  N_13 
REMARK    5  A    between atoms: N_13  and  C_14 
ROOT
HETATM    1  N   UNL     1      42.535 -16.135   0.353  1.00  0.00    -0.246 N 
HETATM    2  C   UNL     1      41.869 -14.933   0.576  1.00  0.00     0.250 C 
HETATM    3  O   UNL     1      41.960 -14.235   1.585  1.00  0.00    -0.270 OA
HETATM    4  H   UNL     1      42.287 -16.681  -0.468  1.00  0.00     0.192 HD
ENDROOT
BRANCH   1   5
HETATM    5  N   UNL     1      43.224 -16.858   1.297  1.00  0.00    -0.184 NA
HETATM    6  C   UNL     1      42.558 -17.526   2.186  1.00  0.00     0.153 C 
BRANCH   6   7
HETATM    7  C   UNL     1      43.259 -18.365   3.148  1.00  0.00     0.018 A 
HETATM    8  C   UNL     1      43.677 -18.020   4.428  1.00  0.00     0.018 A 
HETATM    9  C   UNL     1      43.548 -16.753   5.195  1.00  0.00     0.069 C 
HETATM   10  N   UNL     1      44.303 -19.115   4.971  1.00  0.00    -0.358 N 
HETATM   11  H   UNL     1      44.710 -19.152   5.895  1.00  0.00     0.166 HD
HETATM   12  C   UNL     1      44.310 -20.164   4.084  1.00  0.00     0.043 A 
HETATM   13  C   UNL     1      43.662 -19.727   2.930  1.00  0.00     0.004 A 
HETATM   14  C   UNL     1      44.842 -21.452   4.217  1.00  0.00     0.030 A 
HETATM   15  C   UNL     1      43.542 -20.628   1.850  1.00  0.00     0.014 A 
HETATM   16  C   UNL     1      44.068 -21.920   1.965  1.00  0.00     0.001 A 
HETATM   17  C   UNL     1      44.708 -22.324   3.133  1.00  0.00     0.002 A 
ENDBRANCH   6   7
ENDBRANCH   1   5
BRANCH   2  18
HETATM   18  C   UNL     1      40.978 -14.511  -0.598  1.00  0.00     0.197 C 
BRANCH  18  19
HETATM   19  N   UNL     1      41.770 -14.257  -1.806  1.00  0.00    -0.282 NA
HETATM   20  H   UNL     1      41.398 -14.787  -2.602  1.00  0.00     0.128 HD
BRANCH  19  21
HETATM   21  C   UNL     1      42.009 -12.926  -2.184  1.00  0.00     0.047 A 
HETATM   22  C   UNL     1      41.506 -12.444  -3.404  1.00  0.00     0.137 A 
HETATM   23  F   UNL     1      40.738 -13.246  -4.159  1.00  0.00    -0.204 F 
HETATM   24  C   UNL     1      41.765 -11.150  -3.851  1.00  0.00     0.044 A 
HETATM   25  C   UNL     1      42.564 -10.308  -3.085  1.00  0.00     0.003 A 
HETATM   26  C   UNL     1      43.102 -10.770  -1.884  1.00  0.00     0.002 A 
HETATM   27  C   UNL     1      42.833 -12.071  -1.442  1.00  0.00     0.026 A 
ENDBRANCH  19  21
ENDBRANCH  18  19
ENDBRANCH   2  18
TORSDOF 5
ENDMDL
MODEL 7
REMARK VINA RESULT:      -8.1      2.085      2.538
REMARK  5 active torsions:
REMARK  status: ('A' for Active; 'I' for Inactive)
REMARK    1  A    between atoms: C_7  and  C_8 
REMARK    2  A    between atoms: N_9  and  N_10 
REMARK       I    between atoms: N_10  and  C_11 
REMARK    3  A    between atoms: C_11  and  C_12 
REMARK    4  A    between atoms: C_12  and  N_13 
REMARK    5  A    between atoms: N_13  and  C_14 
ROOT
HETATM    1  N   UNL     1      39.959 -16.195   1.691  1.00  0.00    -0.246 N 
HETATM    2  C   UNL     1      39.392 -15.001   2.127  1.00  0.00     0.250 C 
HETATM    3  O   UNL     1      39.670 -14.409   3.169  1.00  0.00    -0.270 OA
HETATM    4  H   UNL     1      39.563 -16.648   0.872  1.00  0.00     0.192 HD
ENDROOT
BRANCH   1   5
HETATM    5  N   UNL     1      40.750 -17.030   2.444  1.00  0.00    -0.184 NA
HETATM    6  C   UNL     1      42.038 -16.940   2.338  1.00  0.00     0.153 C 
BRANCH   6   7
HETATM    7  C   UNL     1      42.900 -17.754   3.182  1.00  0.00     0.018 A 
HETATM    8  C   UNL     1      43.472 -17.404   4.400  1.00  0.00     0.018 A 
HETATM    9  C   UNL     1      43.392 -16.152   5.198  1.00  0.00     0.069 C 
HETATM   10  N   UNL     1      44.215 -18.473   4.835  1.00  0.00    -0.358 N 
HETATM   11  H   UNL     1      44.746 -18.500   5.694  1.00  0.00     0.166 HD
HETATM   12  C   UNL     1      44.150 -19.511   3.938  1.00  0.00     0.043 A 
HETATM   13  C   UNL     1      43.331 -19.093   2.889  1.00  0.00     0.004 A 
HETATM   14  C   UNL     1      44.753 -20.773   3.976  1.00  0.00     0.030 A 
HETATM   15  C   UNL     1      43.107 -19.988   1.820  1.00  0.00     0.014 A 
HETATM   16  C   UNL     1      43.702 -21.255   1.842  1.00  0.00     0.001 A 
HETATM   17  C   UNL     1      44.513 -21.640   2.906  1.00  0.00     0.002 A 
ENDBRANCH   6   7
ENDBRANCH   1   5
BRANCH   2  18
HETATM   18  C   UNL     1      38.352 -14.435   1.152  1.00  0.00     0.197 C 
BRANCH  18  19
HETATM   19  N   UNL     1      38.816 -14.525  -0.236  1.00  0.00    -0.282 NA
HETATM   20  H   UNL     1      38.023 -14.515  -0.886  1.00  0.00     0.128 HD
BRANCH  19  21
HETATM   21  C   UNL     1      39.807 -13.629  -0.671  1.00  0.00     0.047 A 
HETATM   22  C   UNL     1      41.016 -14.122  -1.191  1.00  0.00     0.137 A 
HETATM   23  F   UNL     1      41.176 -15.448  -1.333  1.00  0.00    -0.204 F 
HETATM   24  C   UNL     1      42.053 -13.277  -1.580  1.00  0.00     0.044 A 
HETATM   25  C   UNL     1      41.906 -11.901  -1.433  1.00  0.00     0.003 A 
HETATM   26  C   UNL     1      40.729 -11.386  -0.892  1.00  0.00     0.002 A 
HETATM   27  C   UNL     1      39.691 -12.244  -0.506  1.00  0.00     0.026 A 
ENDBRANCH  19  21
ENDBRANCH  18  19
ENDBRANCH   2  18
TORSDOF 5
ENDMDL
MODEL 8
REMARK VINA RESULT:      -8.1      2.222      2.798
REMARK  5 active torsions:
REMARK  status: ('A' for Active; 'I' for Inactive)
REMARK    1  A    between atoms: C_7  and  C_8 
REMARK    2  A    between atoms: N_9  and  N_10 
REMARK       I    between atoms: N_10  and  C_11 
REMARK    3  A    between atoms: C_11  and  C_12 
REMARK    4  A    between atoms: C_12  and  N_13 
REMARK    5  A    between atoms: N_13  and  C_14 
ROOT
HETATM    1  N   UNL     1      42.312 -16.354   0.023  1.00  0.00    -0.246 N 
HETATM    2  C   UNL     1      41.773 -15.077   0.146  1.00  0.00     0.250 C 
HETATM    3  O   UNL     1      42.033 -14.267   1.035  1.00  0.00    -0.270 OA
HETATM    4  H   UNL     1      41.930 -16.974  -0.687  1.00  0.00     0.192 HD
ENDROOT
BRANCH   1   5
HETATM    5  N   UNL     1      43.042 -17.013   0.983  1.00  0.00    -0.184 NA
HETATM    6  C   UNL     1      42.424 -17.535   1.995  1.00  0.00     0.153 C 
BRANCH   6   7
HETATM    7  C   UNL     1      43.161 -18.308   2.984  1.00  0.00     0.018 A 
HETATM    8  C   UNL     1      43.593 -17.889   4.238  1.00  0.00     0.018 A 
HETATM    9  C   UNL     1      43.448 -16.588   4.942  1.00  0.00     0.069 C 
HETATM   10  N   UNL     1      44.255 -18.940   4.823  1.00  0.00    -0.358 N 
HETATM   11  H   UNL     1      44.679 -18.920   5.740  1.00  0.00     0.166 HD
HETATM   12  C   UNL     1      44.272 -20.032   3.990  1.00  0.00     0.043 A 
HETATM   13  C   UNL     1      43.593 -19.669   2.828  1.00  0.00     0.004 A 
HETATM   14  C   UNL     1      44.837 -21.299   4.178  1.00  0.00     0.030 A 
HETATM   15  C   UNL     1      43.476 -20.627   1.797  1.00  0.00     0.014 A 
HETATM   16  C   UNL     1      44.035 -21.899   1.967  1.00  0.00     0.001 A 
HETATM   17  C   UNL     1      44.706 -22.228   3.142  1.00  0.00     0.002 A 
ENDBRANCH   6   7
ENDBRANCH   1   5
BRANCH   2  18
HETATM   18  C   UNL     1      40.792 -14.724  -0.979  1.00  0.00     0.197 C 
BRANCH  18  19
HETATM   19  N   UNL     1      39.403 -14.769  -0.510  1.00  0.00    -0.282 NA
HETATM   20  H   UNL     1      39.326 -15.331   0.343  1.00  0.00     0.128 HD
BRANCH  19  21
HETATM   21  C   UNL     1      38.710 -13.557  -0.354  1.00  0.00     0.047 A 
HETATM   22  C   UNL     1      37.537 -13.517   0.420  1.00  0.00     0.137 A 
HETATM   23  F   UNL     1      37.137 -14.627   1.060  1.00  0.00    -0.204 F 
HETATM   24  C   UNL     1      36.781 -12.356   0.558  1.00  0.00     0.044 A 
HETATM   25  C   UNL     1      37.178 -11.198  -0.105  1.00  0.00     0.003 A 
HETATM   26  C   UNL     1      38.321 -11.217  -0.904  1.00  0.00     0.002 A 
HETATM   27  C   UNL     1      39.076 -12.389  -1.034  1.00  0.00     0.026 A 
ENDBRANCH  19  21
ENDBRANCH  18  19
ENDBRANCH   2  18
TORSDOF 5
ENDMDL
MODEL 9
REMARK VINA RESULT:      -7.8      6.361      9.852
REMARK  5 active torsions:
REMARK  status: ('A' for Active; 'I' for Inactive)
REMARK    1  A    between atoms: C_7  and  C_8 
REMARK    2  A    between atoms: N_9  and  N_10 
REMARK       I    between atoms: N_10  and  C_11 
REMARK    3  A    between atoms: C_11  and  C_12 
REMARK    4  A    between atoms: C_12  and  N_13 
REMARK    5  A    between atoms: N_13  and  C_14 
ROOT
HETATM    1  N   UNL     1      44.413 -13.753   7.716  1.00  0.00    -0.246 N 
HETATM    2  C   UNL     1      45.449 -12.881   8.038  1.00  0.00     0.250 C 
HETATM    3  O   UNL     1      46.507 -12.760   7.423  1.00  0.00    -0.270 OA
HETATM    4  H   UNL     1      43.639 -13.847   8.368  1.00  0.00     0.192 HD
ENDROOT
BRANCH   1   5
HETATM    5  N   UNL     1      44.483 -14.780   6.805  1.00  0.00    -0.184 NA
HETATM    6  C   UNL     1      43.466 -15.572   6.671  1.00  0.00     0.153 C 
BRANCH   6   7
HETATM    7  C   UNL     1      43.481 -16.617   5.658  1.00  0.00     0.018 A 
HETATM    8  C   UNL     1      44.289 -17.748   5.617  1.00  0.00     0.018 A 
HETATM    9  C   UNL     1      45.343 -18.235   6.546  1.00  0.00     0.069 C 
HETATM   10  N   UNL     1      43.970 -18.448   4.480  1.00  0.00    -0.358 N 
HETATM   11  H   UNL     1      44.402 -19.314   4.191  1.00  0.00     0.166 HD
HETATM   12  C   UNL     1      42.980 -17.808   3.774  1.00  0.00     0.043 A 
HETATM   13  C   UNL     1      42.650 -16.657   4.487  1.00  0.00     0.004 A 
HETATM   14  C   UNL     1      42.363 -18.160   2.568  1.00  0.00     0.030 A 
HETATM   15  C   UNL     1      41.649 -15.810   3.961  1.00  0.00     0.014 A 
HETATM   16  C   UNL     1      41.021 -16.146   2.756  1.00  0.00     0.001 A 
HETATM   17  C   UNL     1      41.375 -17.306   2.071  1.00  0.00     0.002 A 
ENDBRANCH   6   7
ENDBRANCH   1   5
BRANCH   2  18
HETATM   18  C   UNL     1      45.151 -12.020   9.272  1.00  0.00     0.197 C 
BRANCH  18  19
HETATM   19  N   UNL     1      43.803 -12.277   9.791  1.00  0.00    -0.282 NA
HETATM   20  H   UNL     1      43.717 -13.248  10.111  1.00  0.00     0.128 HD
BRANCH  19  21
HETATM   21  C   UNL     1      43.278 -11.402  10.756  1.00  0.00     0.047 A 
HETATM   22  C   UNL     1      42.703 -10.184  10.356  1.00  0.00     0.137 A 
HETATM   23  F   UNL     1      42.598  -9.908   9.045  1.00  0.00    -0.204 F 
HETATM   24  C   UNL     1      42.223  -9.255  11.276  1.00  0.00     0.044 A 
HETATM   25  C   UNL     1      42.331  -9.522  12.637  1.00  0.00     0.003 A 
HETATM   26  C   UNL     1      42.924 -10.710  13.064  1.00  0.00     0.002 A 
HETATM   27  C   UNL     1      43.401 -11.638  12.130  1.00  0.00     0.026 A 
ENDBRANCH  19  21
ENDBRANCH  18  19
ENDBRANCH   2  18
TORSDOF 5
ENDMDL
MODEL 10
REMARK VINA RESULT:      -7.5      4.844      6.128
REMARK  5 active torsions:
REMARK  status: ('A' for Active; 'I' for Inactive)
REMARK    1  A    between atoms: C_7  and  C_8 
REMARK    2  A    between atoms: N_9  and  N_10 
REMARK       I    between atoms: N_10  and  C_11 
REMARK    3  A    between atoms: C_11  and  C_12 
REMARK    4  A    between atoms: C_12  and  N_13 
REMARK    5  A    between atoms: N_13  and  C_14 
ROOT
HETATM    1  N   UNL     1      41.321 -15.771   3.980  1.00  0.00    -0.246 N 
HETATM    2  C   UNL     1      40.640 -15.095   4.989  1.00  0.00     0.250 C 
HETATM    3  O   UNL     1      40.654 -15.381   6.185  1.00  0.00    -0.270 OA
HETATM    4  H   UNL     1      41.136 -15.512   3.014  1.00  0.00     0.192 HD
ENDROOT
BRANCH   1   5
HETATM    5  N   UNL     1      41.933 -16.995   4.106  1.00  0.00    -0.184 NA
HETATM    6  C   UNL     1      43.227 -17.052   4.108  1.00  0.00     0.153 C 
BRANCH   6   7
HETATM    7  C   UNL     1      43.903 -18.324   4.321  1.00  0.00     0.018 A 
HETATM    8  C   UNL     1      44.711 -18.686   5.393  1.00  0.00     0.018 A 
HETATM    9  C   UNL     1      45.125 -17.936   6.608  1.00  0.00     0.069 C 
HETATM   10  N   UNL     1      45.143 -19.971   5.174  1.00  0.00    -0.358 N 
HETATM   11  H   UNL     1      45.749 -20.493   5.792  1.00  0.00     0.166 HD
HETATM   12  C   UNL     1      44.644 -20.459   3.991  1.00  0.00     0.043 A 
HETATM   13  C   UNL     1      43.861 -19.451   3.431  1.00  0.00     0.004 A 
HETATM   14  C   UNL     1      44.832 -21.705   3.381  1.00  0.00     0.030 A 
HETATM   15  C   UNL     1      43.234 -19.704   2.192  1.00  0.00     0.014 A 
HETATM   16  C   UNL     1      43.410 -20.944   1.567  1.00  0.00     0.001 A 
HETATM   17  C   UNL     1      44.198 -21.929   2.156  1.00  0.00     0.002 A 
ENDBRANCH   6   7
ENDBRANCH   1   5
BRANCH   2  18
HETATM   18  C   UNL     1      39.843 -13.889   4.476  1.00  0.00     0.197 C 
BRANCH  18  19
HETATM   19  N   UNL     1      40.695 -12.703   4.341  1.00  0.00    -0.282 NA
HETATM   20  H   UNL     1      40.537 -12.244   3.438  1.00  0.00     0.128 HD
BRANCH  19  21
HETATM   21  C   UNL     1      40.686 -11.751   5.374  1.00  0.00     0.047 A 
HETATM   22  C   UNL     1      41.681 -11.787   6.366  1.00  0.00     0.137 A 
HETATM   23  F   UNL     1      42.671 -12.688   6.269  1.00  0.00    -0.204 F 
HETATM   24  C   UNL     1      41.683 -10.904   7.444  1.00  0.00     0.044 A 
HETATM   25  C   UNL     1      40.660  -9.968   7.564  1.00  0.00     0.003 A 
HETATM   26  C   UNL     1      39.643  -9.930   6.611  1.00  0.00     0.002 A 
HETATM   27  C   UNL     1      39.652 -10.820   5.529  1.00  0.00     0.026 A 
ENDBRANCH  19  21
ENDBRANCH  18  19
ENDBRANCH   2  18
TORSDOF 5
ENDMDL
