MODEL 1
REMARK VINA RESULT:      -8.3      0.000      0.000
REMARK  7 active torsions:
REMARK  status: ('A' for Active; 'I' for Inactive)
REMARK    1  A    between atoms: C_7  and  C_8 
REMARK    2  A    between atoms: C_8  and  C_9 
REMARK    3  A    between atoms: C_9  and  C_10 
REMARK    4  A    between atoms: C_10  and  O_11 
REMARK    5  A    between atoms: C_13  and  C_14 
REMARK    6  A    between atoms: C_21  and  C_22 
REMARK       I    between atoms: C_22  and  N_23 
REMARK    7  A    between atoms: N_23  and  C_24 
ROOT
HETATM    1  C   UNL     1      40.598 -14.059   3.293  1.00  0.00     0.070 C 
HETATM    2  C   UNL     1      41.021 -13.746   1.878  1.00  0.00     0.037 C 
HETATM    3  N   UNL     1      41.064 -12.388   1.551  1.00  0.00    -0.192 N 
HETATM    4  C   UNL     1      41.698 -11.935   0.450  1.00  0.00     0.726 A 
HETATM    5  N   UNL     1      42.045 -12.826  -0.525  1.00  0.00    -0.083 N 
HETATM    6  N   UNL     1      42.772 -12.244  -1.499  1.00  0.00    -0.140 NA
HETATM    7  C   UNL     1      42.801 -10.977  -1.059  1.00  0.00     0.166 A 
HETATM    8  N   UNL     1      42.140 -10.748   0.127  1.00  0.00    -0.046 NA
HETATM    9  C   UNL     1      41.742 -14.256  -0.466  1.00  0.00     0.202 C 
HETATM   10  C   UNL     1      41.365 -14.680   0.951  1.00  0.00     0.062 C 
HETATM   11  H   UNL     1      40.950 -11.735   2.323  1.00  0.00     0.184 HD
ENDROOT
BRANCH  10  12
HETATM   12  C   UNL     1      41.619 -16.102   1.349  1.00  0.00     0.256 C 
HETATM   13  N   UNL     1      42.906 -16.370   1.768  1.00  0.00    -0.323 N 
HETATM   14  H   UNL     1      43.607 -15.651   1.660  1.00  0.00     0.169 HD
HETATM   15  O   UNL     1      40.688 -16.901   1.347  1.00  0.00    -0.267 OA
BRANCH  13  16
HETATM   16  C   UNL     1      43.378 -17.560   2.366  1.00  0.00     0.035 A 
HETATM   17  C   UNL     1      43.602 -18.752   1.675  1.00  0.00     0.031 A 
HETATM   18  C   UNL     1      44.043 -19.896   2.352  1.00  0.00     0.026 A 
HETATM   19  C   UNL     1      44.254 -19.852   3.726  1.00  0.00     0.034 A 
HETATM   20 CL   UNL     1      44.781 -21.262   4.559  1.00  0.00    -0.084 Cl
HETATM   21  C   UNL     1      44.038 -18.671   4.429  1.00  0.00     0.026 A 
HETATM   22  C   UNL     1      43.607 -17.527   3.750  1.00  0.00     0.031 A 
ENDBRANCH  13  16
ENDBRANCH  10  12
BRANCH   9  23
HETATM   23  C   UNL     1      40.665 -14.572  -1.508  1.00  0.00    -0.028 A 
HETATM   24  C   UNL     1      40.930 -15.518  -2.517  1.00  0.00     0.012 A 
HETATM   25  C   UNL     1      39.964 -15.820  -3.479  1.00  0.00     0.043 A 
HETATM   26  C   UNL     1      38.733 -15.177  -3.444  1.00  0.00     0.116 A 
HETATM   27  F   UNL     1      37.809 -15.471  -4.367  1.00  0.00    -0.206 F 
HETATM   28  C   UNL     1      38.450 -14.230  -2.469  1.00  0.00     0.043 A 
HETATM   29  C   UNL     1      39.415 -13.921  -1.507  1.00  0.00     0.012 A 
ENDBRANCH   9  23
BRANCH   7  30
HETATM   30  C   UNL     1      43.545  -9.908  -1.773  1.00  0.00     0.085 C 
BRANCH  30  31
HETATM   31  C   UNL     1      43.058  -8.502  -1.424  1.00  0.00     0.034 C 
BRANCH  31  32
HETATM   32  C   UNL     1      43.988  -7.761  -0.467  1.00  0.00     0.164 C 
BRANCH  32  33
HETATM   33  O   UNL     1      43.632  -8.064   0.877  1.00  0.00    -0.401 OA
HETATM   34  H   UNL     1      42.670  -8.206   0.903  1.00  0.00     0.209 HD
ENDBRANCH  32  33
ENDBRANCH  31  32
ENDBRANCH  30  31
ENDBRANCH   7  30
TORSDOF 7
ENDMDL
MODEL 2
REMARK VINA RESULT:      -8.1      1.220      1.394
REMARK  7 active torsions:
REMARK  status: ('A' for Active; 'I' for Inactive)
REMARK    1  A    between atoms: C_7  and  C_8 
REMARK    2  A    between atoms: C_8  and  C_9 
REMARK    3  A    between atoms: C_9  and  C_10 
REMARK    4  A    between atoms: C_10  and  O_11 
REMARK    5  A    between atoms: C_13  and  C_14 
REMARK    6  A    between atoms: C_21  and  C_22 
REMARK       I    between atoms: C_22  and  N_23 
REMARK    7  A    between atoms: N_23  and  C_24 
ROOT
HETATM    1  C   UNL     1      40.546 -14.086   3.310  1.00  0.00     0.070 C 
HETATM    2  C   UNL     1      40.972 -13.774   1.896  1.00  0.00     0.037 C 
HETATM    3  N   UNL     1      41.008 -12.416   1.567  1.00  0.00    -0.192 N 
HETATM    4  C   UNL     1      41.643 -11.961   0.468  1.00  0.00     0.726 A 
HETATM    5  N   UNL     1      41.999 -12.852  -0.505  1.00  0.00    -0.083 N 
HETATM    6  N   UNL     1      42.727 -12.267  -1.477  1.00  0.00    -0.140 NA
HETATM    7  C   UNL     1      42.746 -10.999  -1.039  1.00  0.00     0.166 A 
HETATM    8  N   UNL     1      42.079 -10.771   0.144  1.00  0.00    -0.046 NA
HETATM    9  C   UNL     1      41.706 -14.283  -0.444  1.00  0.00     0.202 C 
HETATM   10  C   UNL     1      41.326 -14.707   0.973  1.00  0.00     0.062 C 
HETATM   11  H   UNL     1      40.886 -11.761   2.337  1.00  0.00     0.184 HD
ENDROOT
BRANCH  10  12
HETATM   12  C   UNL     1      41.588 -16.127   1.375  1.00  0.00     0.256 C 
HETATM   13  N   UNL     1      42.883 -16.393   1.765  1.00  0.00    -0.323 N 
HETATM   14  H   UNL     1      43.582 -15.676   1.635  1.00  0.00     0.169 HD
HETATM   15  O   UNL     1      40.656 -16.924   1.400  1.00  0.00    -0.267 OA
BRANCH  13  16
HETATM   16  C   UNL     1      43.368 -17.580   2.360  1.00  0.00     0.035 A 
HETATM   17  C   UNL     1      43.592 -18.772   1.668  1.00  0.00     0.031 A 
HETATM   18  C   UNL     1      44.046 -19.912   2.342  1.00  0.00     0.026 A 
HETATM   19  C   UNL     1      44.270 -19.865   3.714  1.00  0.00     0.034 A 
HETATM   20 CL   UNL     1      44.813 -21.270   4.544  1.00  0.00    -0.084 Cl
HETATM   21  C   UNL     1      44.054 -18.684   4.418  1.00  0.00     0.026 A 
HETATM   22  C   UNL     1      43.611 -17.544   3.741  1.00  0.00     0.031 A 
ENDBRANCH  13  16
ENDBRANCH  10  12
BRANCH   9  23
HETATM   23  C   UNL     1      40.634 -14.608  -1.489  1.00  0.00    -0.028 A 
HETATM   24  C   UNL     1      40.916 -15.542  -2.506  1.00  0.00     0.012 A 
HETATM   25  C   UNL     1      39.956 -15.851  -3.471  1.00  0.00     0.043 A 
HETATM   26  C   UNL     1      38.715 -15.229  -3.433  1.00  0.00     0.116 A 
HETATM   27  F   UNL     1      37.796 -15.530  -4.359  1.00  0.00    -0.206 F 
HETATM   28  C   UNL     1      38.416 -14.294  -2.449  1.00  0.00     0.043 A 
HETATM   29  C   UNL     1      39.375 -13.978  -1.484  1.00  0.00     0.012 A 
ENDBRANCH   9  23
BRANCH   7  30
HETATM   30  C   UNL     1      43.486  -9.927  -1.752  1.00  0.00     0.085 C 
BRANCH  30  31
HETATM   31  C   UNL     1      42.641  -9.213  -2.807  1.00  0.00     0.034 C 
BRANCH  31  32
HETATM   32  C   UNL     1      42.517  -9.996  -4.111  1.00  0.00     0.164 C 
BRANCH  32  33
HETATM   33  O   UNL     1      41.368 -10.835  -4.058  1.00  0.00    -0.401 OA
HETATM   34  H   UNL     1      41.200 -11.161  -4.959  1.00  0.00     0.209 HD
ENDBRANCH  32  33
ENDBRANCH  31  32
ENDBRANCH  30  31
ENDBRANCH   7  30
TORSDOF 7
ENDMDL
MODEL 3
REMARK VINA RESULT:      -7.4      5.031      8.701
REMARK  7 active torsions:
REMARK  status: ('A' for Active; 'I' for Inactive)
REMARK    1  A    between atoms: C_7  and  C_8 
REMARK    2  A    between atoms: C_8  and  C_9 
REMARK    3  A    between atoms: C_9  and  C_10 
REMARK    4  A    between atoms: C_10  and  O_11 
REMARK    5  A    between atoms: C_13  and  C_14 
REMARK    6  A    between atoms: C_21  and  C_22 
REMARK       I    between atoms: C_22  and  N_23 
REMARK    7  A    between atoms: N_23  and  C_24 
ROOT
HETATM    1  C   UNL     1      42.560 -12.998   6.116  1.00  0.00     0.070 C 
HETATM    2  C   UNL     1      42.560 -14.482   5.839  1.00  0.00     0.037 C 
HETATM    3  N   UNL     1      43.556 -15.213   6.492  1.00  0.00    -0.192 N 
HETATM    4  C   UNL     1      43.510 -16.558   6.590  1.00  0.00     0.726 A 
HETATM    5  N   UNL     1      42.648 -17.249   5.789  1.00  0.00    -0.083 N 
HETATM    6  N   UNL     1      42.632 -18.564   6.087  1.00  0.00    -0.140 NA
HETATM    7  C   UNL     1      43.544 -18.602   7.070  1.00  0.00     0.166 A 
HETATM    8  N   UNL     1      44.114 -17.392   7.396  1.00  0.00    -0.046 NA
HETATM    9  C   UNL     1      41.779 -16.620   4.794  1.00  0.00     0.202 C 
HETATM   10  C   UNL     1      41.665 -15.117   5.036  1.00  0.00     0.062 C 
HETATM   11  H   UNL     1      44.094 -14.714   7.197  1.00  0.00     0.184 HD
ENDROOT
BRANCH  10  12
HETATM   12  C   UNL     1      40.421 -14.423   4.570  1.00  0.00     0.256 C 
HETATM   13  N   UNL     1      40.443 -14.007   3.256  1.00  0.00    -0.323 N 
HETATM   14  H   UNL     1      41.311 -14.072   2.744  1.00  0.00     0.169 HD
HETATM   15  O   UNL     1      39.465 -14.331   5.333  1.00  0.00    -0.267 OA
BRANCH  13  16
HETATM   16  C   UNL     1      39.359 -13.498   2.504  1.00  0.00     0.035 A 
HETATM   17  C   UNL     1      38.628 -14.244   1.576  1.00  0.00     0.031 A 
HETATM   18  C   UNL     1      37.586 -13.653   0.851  1.00  0.00     0.026 A 
HETATM   19  C   UNL     1      37.278 -12.311   1.045  1.00  0.00     0.034 A 
HETATM   20 CL   UNL     1      36.008 -11.582   0.143  1.00  0.00    -0.084 Cl
HETATM   21  C   UNL     1      37.995 -11.555   1.968  1.00  0.00     0.026 A 
HETATM   22  C   UNL     1      39.028 -12.149   2.699  1.00  0.00     0.031 A 
ENDBRANCH  13  16
ENDBRANCH  10  12
BRANCH   9  23
HETATM   23  C   UNL     1      42.295 -16.979   3.397  1.00  0.00    -0.028 A 
HETATM   24  C   UNL     1      43.678 -16.940   3.135  1.00  0.00     0.012 A 
HETATM   25  C   UNL     1      44.171 -17.261   1.869  1.00  0.00     0.043 A 
HETATM   26  C   UNL     1      43.288 -17.615   0.856  1.00  0.00     0.116 A 
HETATM   27  F   UNL     1      43.764 -17.924  -0.357  1.00  0.00    -0.206 F 
HETATM   28  C   UNL     1      41.918 -17.648   1.083  1.00  0.00     0.043 A 
HETATM   29  C   UNL     1      41.421 -17.324   2.348  1.00  0.00     0.012 A 
ENDBRANCH   9  23
BRANCH   7  30
HETATM   30  C   UNL     1      43.871 -19.856   7.796  1.00  0.00     0.085 C 
BRANCH  30  31
HETATM   31  C   UNL     1      43.511 -21.116   7.010  1.00  0.00     0.034 C 
BRANCH  31  32
HETATM   32  C   UNL     1      44.573 -21.513   5.988  1.00  0.00     0.164 C 
BRANCH  32  33
HETATM   33  O   UNL     1      44.407 -20.745   4.802  1.00  0.00    -0.401 OA
HETATM   34  H   UNL     1      43.878 -21.273   4.180  1.00  0.00     0.209 HD
ENDBRANCH  32  33
ENDBRANCH  31  32
ENDBRANCH  30  31
ENDBRANCH   7  30
TORSDOF 7
ENDMDL
MODEL 4
REMARK VINA RESULT:      -7.4      5.328      9.004
REMARK  7 active torsions:
REMARK  status: ('A' for Active; 'I' for Inactive)
REMARK    1  A    between atoms: C_7  and  C_8 
REMARK    2  A    between atoms: C_8  and  C_9 
REMARK    3  A    between atoms: C_9  and  C_10 
REMARK    4  A    between atoms: C_10  and  O_11 
REMARK    5  A    between atoms: C_13  and  C_14 
REMARK    6  A    between atoms: C_21  and  C_22 
REMARK       I    between atoms: C_22  and  N_23 
REMARK    7  A    between atoms: N_23  and  C_24 
ROOT
HETATM    1  C   UNL     1      44.182 -13.997   6.809  1.00  0.00     0.070 C 
HETATM    2  C   UNL     1      43.715 -15.298   6.201  1.00  0.00     0.037 C 
HETATM    3  N   UNL     1      44.623 -16.358   6.284  1.00  0.00    -0.192 N 
HETATM    4  C   UNL     1      44.253 -17.636   6.067  1.00  0.00     0.726 A 
HETATM    5  N   UNL     1      43.054 -17.883   5.462  1.00  0.00    -0.083 N 
HETATM    6  N   UNL     1      42.775 -19.202   5.424  1.00  0.00    -0.140 NA
HETATM    7  C   UNL     1      43.878 -19.702   6.002  1.00  0.00     0.166 A 
HETATM    8  N   UNL     1      44.813 -18.771   6.396  1.00  0.00    -0.046 NA
HETATM    9  C   UNL     1      42.145 -16.835   5.000  1.00  0.00     0.202 C 
HETATM   10  C   UNL     1      42.501 -15.486   5.619  1.00  0.00     0.062 C 
HETATM   11  H   UNL     1      45.445 -16.203   6.864  1.00  0.00     0.184 HD
ENDROOT
BRANCH  10  12
HETATM   12  C   UNL     1      41.405 -14.477   5.780  1.00  0.00     0.256 C 
HETATM   13  N   UNL     1      41.564 -13.321   5.046  1.00  0.00    -0.323 N 
HETATM   14  H   UNL     1      42.439 -13.172   4.565  1.00  0.00     0.169 HD
HETATM   15  O   UNL     1      40.433 -14.754   6.475  1.00  0.00    -0.267 OA
BRANCH  13  16
HETATM   16  C   UNL     1      40.614 -12.290   4.861  1.00  0.00     0.035 A 
HETATM   17  C   UNL     1      40.580 -11.110   5.608  1.00  0.00     0.031 A 
HETATM   18  C   UNL     1      39.584 -10.152   5.380  1.00  0.00     0.026 A 
HETATM   19  C   UNL     1      38.614 -10.375   4.408  1.00  0.00     0.034 A 
HETATM   20 CL   UNL     1      37.383  -9.205   4.139  1.00  0.00    -0.084 Cl
HETATM   21  C   UNL     1      38.636 -11.545   3.654  1.00  0.00     0.026 A 
HETATM   22  C   UNL     1      39.637 -12.496   3.876  1.00  0.00     0.031 A 
ENDBRANCH  13  16
ENDBRANCH  10  12
BRANCH   9  23
HETATM   23  C   UNL     1      42.145 -16.827   3.468  1.00  0.00    -0.028 A 
HETATM   24  C   UNL     1      40.920 -16.832   2.773  1.00  0.00     0.012 A 
HETATM   25  C   UNL     1      40.895 -16.828   1.377  1.00  0.00     0.043 A 
HETATM   26  C   UNL     1      42.089 -16.824   0.668  1.00  0.00     0.116 A 
HETATM   27  F   UNL     1      42.063 -16.818  -0.671  1.00  0.00    -0.206 F 
HETATM   28  C   UNL     1      43.312 -16.833   1.328  1.00  0.00     0.043 A 
HETATM   29  C   UNL     1      43.341 -16.842   2.724  1.00  0.00     0.012 A 
ENDBRANCH   9  23
BRANCH   7  30
HETATM   30  C   UNL     1      44.049 -21.156   6.253  1.00  0.00     0.085 C 
BRANCH  30  31
HETATM   31  C   UNL     1      45.056 -21.813   5.308  1.00  0.00     0.034 C 
BRANCH  31  32
HETATM   32  C   UNL     1      44.555 -21.913   3.870  1.00  0.00     0.164 C 
BRANCH  32  33
HETATM   33  O   UNL     1      44.768 -23.233   3.380  1.00  0.00    -0.401 OA
HETATM   34  H   UNL     1      45.272 -23.719   4.055  1.00  0.00     0.209 HD
ENDBRANCH  32  33
ENDBRANCH  31  32
ENDBRANCH  30  31
ENDBRANCH   7  30
TORSDOF 7
ENDMDL
MODEL 5
REMARK VINA RESULT:      -7.4      4.136      8.765
REMARK  7 active torsions:
REMARK  status: ('A' for Active; 'I' for Inactive)
REMARK    1  A    between atoms: C_7  and  C_8 
REMARK    2  A    between atoms: C_8  and  C_9 
REMARK    3  A    between atoms: C_9  and  C_10 
REMARK    4  A    between atoms: C_10  and  O_11 
REMARK    5  A    between atoms: C_13  and  C_14 
REMARK    6  A    between atoms: C_21  and  C_22 
REMARK       I    between atoms: C_22  and  N_23 
REMARK    7  A    between atoms: N_23  and  C_24 
ROOT
HETATM    1  C   UNL     1      39.768 -14.329  -1.149  1.00  0.00     0.070 C 
HETATM    2  C   UNL     1      40.639 -14.712   0.023  1.00  0.00     0.037 C 
HETATM    3  N   UNL     1      40.720 -16.082   0.287  1.00  0.00    -0.192 N 
HETATM    4  C   UNL     1      41.671 -16.603   1.088  1.00  0.00     0.726 A 
HETATM    5  N   UNL     1      42.383 -15.765   1.898  1.00  0.00    -0.083 N 
HETATM    6  N   UNL     1      43.372 -16.415   2.545  1.00  0.00    -0.140 NA
HETATM    7  C   UNL     1      43.176 -17.665   2.098  1.00  0.00     0.166 A 
HETATM    8  N   UNL     1      42.133 -17.820   1.214  1.00  0.00    -0.046 NA
HETATM    9  C   UNL     1      42.157 -14.323   1.976  1.00  0.00     0.202 C 
HETATM   10  C   UNL     1      41.334 -13.830   0.788  1.00  0.00     0.062 C 
HETATM   11  H   UNL     1      40.308 -16.701  -0.409  1.00  0.00     0.184 HD
ENDROOT
BRANCH  10  12
HETATM   12  C   UNL     1      41.511 -12.406   0.355  1.00  0.00     0.256 C 
HETATM   13  N   UNL     1      42.375 -12.222  -0.704  1.00  0.00    -0.323 N 
HETATM   14  H   UNL     1      42.918 -13.011  -1.025  1.00  0.00     0.169 HD
HETATM   15  O   UNL     1      40.850 -11.527   0.899  1.00  0.00    -0.267 OA
BRANCH  13  16
HETATM   16  C   UNL     1      42.591 -11.030  -1.432  1.00  0.00     0.035 A 
HETATM   17  C   UNL     1      43.361  -9.958  -0.975  1.00  0.00     0.031 A 
HETATM   18  C   UNL     1      43.498  -8.799  -1.749  1.00  0.00     0.026 A 
HETATM   19  C   UNL     1      42.858  -8.706  -2.981  1.00  0.00     0.034 A 
HETATM   20 CL   UNL     1      43.015  -7.276  -3.924  1.00  0.00    -0.084 Cl
HETATM   21  C   UNL     1      42.089  -9.766  -3.452  1.00  0.00     0.026 A 
HETATM   22  C   UNL     1      41.962 -10.927  -2.682  1.00  0.00     0.031 A 
ENDBRANCH  13  16
ENDBRANCH  10  12
BRANCH   9  23
HETATM   23  C   UNL     1      41.528 -13.999   3.335  1.00  0.00    -0.028 A 
HETATM   24  C   UNL     1      42.070 -12.964   4.122  1.00  0.00     0.012 A 
HETATM   25  C   UNL     1      41.515 -12.653   5.365  1.00  0.00     0.043 A 
HETATM   26  C   UNL     1      40.424 -13.373   5.832  1.00  0.00     0.116 A 
HETATM   27  F   UNL     1      39.893 -13.071   7.023  1.00  0.00    -0.206 F 
HETATM   28  C   UNL     1      39.878 -14.408   5.082  1.00  0.00     0.043 A 
HETATM   29  C   UNL     1      40.433 -14.725   3.840  1.00  0.00     0.012 A 
ENDBRANCH   9  23
BRANCH   7  30
HETATM   30  C   UNL     1      44.064 -18.791   2.486  1.00  0.00     0.085 C 
BRANCH  30  31
HETATM   31  C   UNL     1      43.542 -20.152   2.024  1.00  0.00     0.034 C 
BRANCH  31  32
HETATM   32  C   UNL     1      44.321 -21.326   2.608  1.00  0.00     0.164 C 
BRANCH  32  33
HETATM   33  O   UNL     1      44.429 -22.361   1.637  1.00  0.00    -0.401 OA
HETATM   34  H   UNL     1      43.768 -23.040   1.855  1.00  0.00     0.209 HD
ENDBRANCH  32  33
ENDBRANCH  31  32
ENDBRANCH  30  31
ENDBRANCH   7  30
TORSDOF 7
ENDMDL
MODEL 6
REMARK VINA RESULT:      -7.1      4.896      8.819
REMARK  7 active torsions:
REMARK  status: ('A' for Active; 'I' for Inactive)
REMARK    1  A    between atoms: C_7  and  C_8 
REMARK    2  A    between atoms: C_8  and  C_9 
REMARK    3  A    between atoms: C_9  and  C_10 
REMARK    4  A    between atoms: C_10  and  O_11 
REMARK    5  A    between atoms: C_13  and  C_14 
REMARK    6  A    between atoms: C_21  and  C_22 
REMARK       I    between atoms: C_22  and  N_23 
REMARK    7  A    between atoms: N_23  and  C_24 
ROOT
HETATM    1  C   UNL     1      39.222 -15.206   1.843  1.00  0.00     0.070 C 
HETATM    2  C   UNL     1      40.133 -14.734   2.950  1.00  0.00     0.037 C 
HETATM    3  N   UNL     1      40.313 -15.633   4.004  1.00  0.00    -0.192 N 
HETATM    4  C   UNL     1      41.309 -15.495   4.902  1.00  0.00     0.726 A 
HETATM    5  N   UNL     1      41.972 -14.304   4.975  1.00  0.00    -0.083 N 
HETATM    6  N   UNL     1      43.012 -14.361   5.831  1.00  0.00    -0.140 NA
HETATM    7  C   UNL     1      42.898 -15.624   6.270  1.00  0.00     0.166 A 
HETATM    8  N   UNL     1      41.856 -16.345   5.733  1.00  0.00    -0.046 NA
HETATM    9  C   UNL     1      41.647 -13.140   4.151  1.00  0.00     0.202 C 
HETATM   10  C   UNL     1      40.776 -13.535   2.961  1.00  0.00     0.062 C 
HETATM   11  H   UNL     1      39.936 -16.569   3.868  1.00  0.00     0.184 HD
ENDROOT
BRANCH  10  12
HETATM   12  C   UNL     1      40.847 -12.688   1.727  1.00  0.00     0.256 C 
HETATM   13  N   UNL     1      41.916 -12.955   0.898  1.00  0.00    -0.323 N 
HETATM   14  H   UNL     1      42.632 -13.588   1.223  1.00  0.00     0.169 HD
HETATM   15  O   UNL     1      39.948 -11.885   1.499  1.00  0.00    -0.267 OA
BRANCH  13  16
HETATM   16  C   UNL     1      42.133 -12.448  -0.404  1.00  0.00     0.035 A 
HETATM   17  C   UNL     1      42.569 -11.150  -0.680  1.00  0.00     0.031 A 
HETATM   18  C   UNL     1      42.729 -10.718  -2.002  1.00  0.00     0.026 A 
HETATM   19  C   UNL     1      42.446 -11.583  -3.055  1.00  0.00     0.034 A 
HETATM   20 CL   UNL     1      42.629 -11.047  -4.678  1.00  0.00    -0.084 Cl
HETATM   21  C   UNL     1      42.013 -12.880  -2.797  1.00  0.00     0.026 A 
HETATM   22  C   UNL     1      41.863 -13.312  -1.475  1.00  0.00     0.031 A 
ENDBRANCH  13  16
ENDBRANCH  10  12
BRANCH   9  23
HETATM   23  C   UNL     1      41.016 -12.068   5.044  1.00  0.00    -0.028 A 
HETATM   24  C   UNL     1      41.431 -10.728   4.920  1.00  0.00     0.012 A 
HETATM   25  C   UNL     1      40.871  -9.734   5.726  1.00  0.00     0.043 A 
HETATM   26  C   UNL     1      39.902 -10.071   6.662  1.00  0.00     0.116 A 
HETATM   27  F   UNL     1      39.366  -9.115   7.432  1.00  0.00    -0.206 F 
HETATM   28  C   UNL     1      39.485 -11.387   6.815  1.00  0.00     0.043 A 
HETATM   29  C   UNL     1      40.045 -12.385   6.014  1.00  0.00     0.012 A 
ENDBRANCH   9  23
BRANCH   7  30
HETATM   30  C   UNL     1      43.867 -16.219   7.226  1.00  0.00     0.085 C 
BRANCH  30  31
HETATM   31  C   UNL     1      43.258 -17.327   8.085  1.00  0.00     0.034 C 
BRANCH  31  32
HETATM   32  C   UNL     1      44.127 -18.579   8.159  1.00  0.00     0.164 C 
BRANCH  32  33
HETATM   33  O   UNL     1      44.407 -18.888   9.519  1.00  0.00    -0.401 OA
HETATM   34  H   UNL     1      44.287 -18.074  10.037  1.00  0.00     0.209 HD
ENDBRANCH  32  33
ENDBRANCH  31  32
ENDBRANCH  30  31
ENDBRANCH   7  30
TORSDOF 7
ENDMDL
MODEL 7
REMARK VINA RESULT:      -7.0      4.068      5.851
REMARK  7 active torsions:
REMARK  status: ('A' for Active; 'I' for Inactive)
REMARK    1  A    between atoms: C_7  and  C_8 
REMARK    2  A    between atoms: C_8  and  C_9 
REMARK    3  A    between atoms: C_9  and  C_10 
REMARK    4  A    between atoms: C_10  and  O_11 
REMARK    5  A    between atoms: C_13  and  C_14 
REMARK    6  A    between atoms: C_21  and  C_22 
REMARK       I    between atoms: C_22  and  N_23 
REMARK    7  A    between atoms: N_23  and  C_24 
ROOT
HETATM    1  C   UNL     1      43.772 -16.940   1.241  1.00  0.00     0.070 C 
HETATM    2  C   UNL     1      42.515 -16.105   1.242  1.00  0.00     0.037 C 
HETATM    3  N   UNL     1      42.209 -15.480   0.030  1.00  0.00    -0.192 N 
HETATM    4  C   UNL     1      40.991 -14.957  -0.220  1.00  0.00     0.726 A 
HETATM    5  N   UNL     1      40.132 -14.758   0.822  1.00  0.00    -0.083 N 
HETATM    6  N   UNL     1      38.920 -14.345   0.399  1.00  0.00    -0.140 NA
HETATM    7  C   UNL     1      39.130 -14.284  -0.924  1.00  0.00     0.166 A 
HETATM    8  N   UNL     1      40.394 -14.639  -1.339  1.00  0.00    -0.046 NA
HETATM    9  C   UNL     1      40.462 -15.051   2.216  1.00  0.00     0.202 C 
HETATM   10  C   UNL     1      41.691 -15.952   2.313  1.00  0.00     0.062 C 
HETATM   11  H   UNL     1      42.771 -15.754  -0.773  1.00  0.00     0.184 HD
ENDROOT
BRANCH  10  12
HETATM   12  C   UNL     1      41.820 -16.835   3.517  1.00  0.00     0.256 C 
HETATM   13  N   UNL     1      42.966 -16.644   4.260  1.00  0.00    -0.323 N 
HETATM   14  H   UNL     1      43.684 -16.037   3.890  1.00  0.00     0.169 HD
HETATM   15  O   UNL     1      40.903 -17.599   3.801  1.00  0.00    -0.267 OA
BRANCH  13  16
HETATM   16  C   UNL     1      43.263 -17.195   5.526  1.00  0.00     0.035 A 
HETATM   17  C   UNL     1      42.846 -16.646   6.741  1.00  0.00     0.031 A 
HETATM   18  C   UNL     1      43.210 -17.241   7.955  1.00  0.00     0.026 A 
HETATM   19  C   UNL     1      44.001 -18.386   7.958  1.00  0.00     0.034 A 
HETATM   20 CL   UNL     1      44.461 -19.107   9.449  1.00  0.00    -0.084 Cl
HETATM   21  C   UNL     1      44.423 -18.947   6.756  1.00  0.00     0.026 A 
HETATM   22  C   UNL     1      44.049 -18.357   5.545  1.00  0.00     0.031 A 
ENDBRANCH  13  16
ENDBRANCH  10  12
BRANCH   9  23
HETATM   23  C   UNL     1      40.611 -13.727   2.972  1.00  0.00    -0.028 A 
HETATM   24  C   UNL     1      39.464 -12.966   3.273  1.00  0.00     0.012 A 
HETATM   25  C   UNL     1      39.576 -11.755   3.959  1.00  0.00     0.043 A 
HETATM   26  C   UNL     1      40.828 -11.294   4.343  1.00  0.00     0.116 A 
HETATM   27  F   UNL     1      40.932 -10.133   5.003  1.00  0.00    -0.206 F 
HETATM   28  C   UNL     1      41.977 -12.018   4.048  1.00  0.00     0.043 A 
HETATM   29  C   UNL     1      41.870 -13.228   3.358  1.00  0.00     0.012 A 
ENDBRANCH   9  23
BRANCH   7  30
HETATM   30  C   UNL     1      38.054 -13.916  -1.880  1.00  0.00     0.085 C 
BRANCH  30  31
HETATM   31  C   UNL     1      38.446 -14.143  -3.340  1.00  0.00     0.034 C 
BRANCH  31  32
HETATM   32  C   UNL     1      37.941 -15.470  -3.900  1.00  0.00     0.164 C 
BRANCH  32  33
HETATM   33  O   UNL     1      38.804 -15.909  -4.943  1.00  0.00    -0.401 OA
HETATM   34  H   UNL     1      39.675 -15.500  -4.797  1.00  0.00     0.209 HD
ENDBRANCH  32  33
ENDBRANCH  31  32
ENDBRANCH  30  31
ENDBRANCH   7  30
TORSDOF 7
ENDMDL
MODEL 8
REMARK VINA RESULT:      -7.0      5.658      8.269
REMARK  7 active torsions:
REMARK  status: ('A' for Active; 'I' for Inactive)
REMARK    1  A    between atoms: C_7  and  C_8 
REMARK    2  A    between atoms: C_8  and  C_9 
REMARK    3  A    between atoms: C_9  and  C_10 
REMARK    4  A    between atoms: C_10  and  O_11 
REMARK    5  A    between atoms: C_13  and  C_14 
REMARK    6  A    between atoms: C_21  and  C_22 
REMARK       I    between atoms: C_22  and  N_23 
REMARK    7  A    between atoms: N_23  and  C_24 
ROOT
HETATM    1  C   UNL     1      38.810  -9.876   5.342  1.00  0.00     0.070 C 
HETATM    2  C   UNL     1      39.821 -10.813   4.727  1.00  0.00     0.037 C 
HETATM    3  N   UNL     1      39.496 -11.297   3.457  1.00  0.00    -0.192 N 
HETATM    4  C   UNL     1      40.410 -11.888   2.660  1.00  0.00     0.726 A 
HETATM    5  N   UNL     1      41.593 -12.299   3.204  1.00  0.00    -0.083 N 
HETATM    6  N   UNL     1      42.443 -12.758   2.264  1.00  0.00    -0.140 NA
HETATM    7  C   UNL     1      41.686 -12.625   1.164  1.00  0.00     0.166 A 
HETATM    8  N   UNL     1      40.427 -12.108   1.371  1.00  0.00    -0.046 NA
HETATM    9  C   UNL     1      41.928 -12.164   4.621  1.00  0.00     0.202 C 
HETATM   10  C   UNL     1      40.992 -11.178   5.316  1.00  0.00     0.062 C 
HETATM   11  H   UNL     1      38.691 -10.870   3.004  1.00  0.00     0.184 HD
ENDROOT
BRANCH  10  12
HETATM   12  C   UNL     1      41.506 -10.453   6.522  1.00  0.00     0.256 C 
HETATM   13  N   UNL     1      41.478 -11.179   7.695  1.00  0.00    -0.323 N 
HETATM   14  H   UNL     1      41.008 -12.073   7.697  1.00  0.00     0.169 HD
HETATM   15  O   UNL     1      41.970  -9.325   6.391  1.00  0.00    -0.267 OA
BRANCH  13  16
HETATM   16  C   UNL     1      42.060 -10.823   8.932  1.00  0.00     0.035 A 
HETATM   17  C   UNL     1      43.406 -11.018   9.253  1.00  0.00     0.031 A 
HETATM   18  C   UNL     1      43.896 -10.664  10.516  1.00  0.00     0.026 A 
HETATM   19  C   UNL     1      43.038 -10.119  11.466  1.00  0.00     0.034 A 
HETATM   20 CL   UNL     1      43.637  -9.698  13.022  1.00  0.00    -0.084 Cl
HETATM   21  C   UNL     1      41.696  -9.915  11.162  1.00  0.00     0.026 A 
HETATM   22  C   UNL     1      41.210 -10.261   9.896  1.00  0.00     0.031 A 
ENDBRANCH  13  16
ENDBRANCH  10  12
BRANCH   9  23
HETATM   23  C   UNL     1      41.933 -13.557   5.257  1.00  0.00    -0.028 A 
HETATM   24  C   UNL     1      40.716 -14.242   5.441  1.00  0.00     0.012 A 
HETATM   25  C   UNL     1      40.697 -15.511   6.021  1.00  0.00     0.043 A 
HETATM   26  C   UNL     1      41.887 -16.102   6.427  1.00  0.00     0.116 A 
HETATM   27  F   UNL     1      41.864 -17.321   6.981  1.00  0.00    -0.206 F 
HETATM   28  C   UNL     1      43.100 -15.443   6.270  1.00  0.00     0.043 A 
HETATM   29  C   UNL     1      43.123 -14.171   5.694  1.00  0.00     0.012 A 
ENDBRANCH   9  23
BRANCH   7  30
HETATM   30  C   UNL     1      42.195 -12.958  -0.191  1.00  0.00     0.085 C 
BRANCH  30  31
HETATM   31  C   UNL     1      41.298 -13.940  -0.944  1.00  0.00     0.034 C 
BRANCH  31  32
HETATM   32  C   UNL     1      41.082 -15.254  -0.198  1.00  0.00     0.164 C 
BRANCH  32  33
HETATM   33  O   UNL     1      39.814 -15.235   0.448  1.00  0.00    -0.401 OA
HETATM   34  H   UNL     1      39.678 -16.108   0.855  1.00  0.00     0.209 HD
ENDBRANCH  32  33
ENDBRANCH  31  32
ENDBRANCH  30  31
ENDBRANCH   7  30
TORSDOF 7
ENDMDL
MODEL 9
REMARK VINA RESULT:      -6.9      4.175      7.544
REMARK  7 active torsions:
REMARK  status: ('A' for Active; 'I' for Inactive)
REMARK    1  A    between atoms: C_7  and  C_8 
REMARK    2  A    between atoms: C_8  and  C_9 
REMARK    3  A    between atoms: C_9  and  C_10 
REMARK    4  A    between atoms: C_10  and  O_11 
REMARK    5  A    between atoms: C_13  and  C_14 
REMARK    6  A    between atoms: C_21  and  C_22 
REMARK       I    between atoms: C_22  and  N_23 
REMARK    7  A    between atoms: N_23  and  C_24 
ROOT
HETATM    1  C   UNL     1      42.220 -12.068  -1.099  1.00  0.00     0.070 C 
HETATM    2  C   UNL     1      41.900 -12.894   0.124  1.00  0.00     0.037 C 
HETATM    3  N   UNL     1      42.427 -12.415   1.326  1.00  0.00    -0.192 N 
HETATM    4  C   UNL     1      41.993 -12.854   2.525  1.00  0.00     0.726 A 
HETATM    5  N   UNL     1      41.247 -13.997   2.579  1.00  0.00    -0.083 N 
HETATM    6  N   UNL     1      40.791 -14.238   3.824  1.00  0.00    -0.140 NA
HETATM    7  C   UNL     1      41.333 -13.206   4.488  1.00  0.00     0.166 A 
HETATM    8  N   UNL     1      42.089 -12.344   3.725  1.00  0.00    -0.046 NA
HETATM    9  C   UNL     1      40.909 -14.803   1.407  1.00  0.00     0.202 C 
HETATM   10  C   UNL     1      41.140 -14.022   0.116  1.00  0.00     0.062 C 
HETATM   11  H   UNL     1      42.851 -11.490   1.296  1.00  0.00     0.184 HD
ENDROOT
BRANCH  10  12
HETATM   12  C   UNL     1      40.320 -14.390  -1.084  1.00  0.00     0.256 C 
HETATM   13  N   UNL     1      39.093 -13.765  -1.165  1.00  0.00    -0.323 N 
HETATM   14  H   UNL     1      38.777 -13.220  -0.376  1.00  0.00     0.169 HD
HETATM   15  O   UNL     1      40.796 -15.142  -1.927  1.00  0.00    -0.267 OA
BRANCH  13  16
HETATM   16  C   UNL     1      38.201 -13.778  -2.261  1.00  0.00     0.035 A 
HETATM   17  C   UNL     1      37.909 -14.911  -3.023  1.00  0.00     0.031 A 
HETATM   18  C   UNL     1      37.034 -14.830  -4.114  1.00  0.00     0.026 A 
HETATM   19  C   UNL     1      36.454 -13.611  -4.450  1.00  0.00     0.034 A 
HETATM   20 CL   UNL     1      35.391 -13.510  -5.799  1.00  0.00    -0.084 Cl
HETATM   21  C   UNL     1      36.733 -12.473  -3.700  1.00  0.00     0.026 A 
HETATM   22  C   UNL     1      37.599 -12.558  -2.605  1.00  0.00     0.031 A 
ENDBRANCH  13  16
ENDBRANCH  10  12
BRANCH   9  23
HETATM   23  C   UNL     1      41.690 -16.119   1.475  1.00  0.00    -0.028 A 
HETATM   24  C   UNL     1      40.994 -17.334   1.628  1.00  0.00     0.012 A 
HETATM   25  C   UNL     1      41.685 -18.545   1.695  1.00  0.00     0.043 A 
HETATM   26  C   UNL     1      43.072 -18.552   1.618  1.00  0.00     0.116 A 
HETATM   27  F   UNL     1      43.732 -19.715   1.682  1.00  0.00    -0.206 F 
HETATM   28  C   UNL     1      43.785 -17.367   1.482  1.00  0.00     0.043 A 
HETATM   29  C   UNL     1      43.097 -16.152   1.418  1.00  0.00     0.012 A 
ENDBRANCH   9  23
BRANCH   7  30
HETATM   30  C   UNL     1      41.084 -12.977   5.934  1.00  0.00     0.085 C 
BRANCH  30  31
HETATM   31  C   UNL     1      40.435 -11.624   6.224  1.00  0.00     0.034 C 
BRANCH  31  32
HETATM   32  C   UNL     1      39.657 -11.597   7.537  1.00  0.00     0.164 C 
BRANCH  32  33
HETATM   33  O   UNL     1      39.163 -12.900   7.827  1.00  0.00    -0.401 OA
HETATM   34  H   UNL     1      39.878 -13.396   8.262  1.00  0.00     0.209 HD
ENDBRANCH  32  33
ENDBRANCH  31  32
ENDBRANCH  30  31
ENDBRANCH   7  30
TORSDOF 7
ENDMDL
MODEL 10
REMARK VINA RESULT:      -6.9      3.277      5.529
REMARK  7 active torsions:
REMARK  status: ('A' for Active; 'I' for Inactive)
REMARK    1  A    between atoms: C_7  and  C_8 
REMARK    2  A    between atoms: C_8  and  C_9 
REMARK    3  A    between atoms: C_9  and  C_10 
REMARK    4  A    between atoms: C_10  and  O_11 
REMARK    5  A    between atoms: C_13  and  C_14 
REMARK    6  A    between atoms: C_21  and  C_22 
REMARK       I    between atoms: C_22  and  N_23 
REMARK    7  A    between atoms: N_23  and  C_24 
ROOT
HETATM    1  C   UNL     1      41.925 -16.553   0.129  1.00  0.00     0.070 C 
HETATM    2  C   UNL     1      41.280 -15.216  -0.147  1.00  0.00     0.037 C 
HETATM    3  N   UNL     1      40.516 -15.148  -1.316  1.00  0.00    -0.192 N 
HETATM    4  C   UNL     1      39.646 -14.144  -1.546  1.00  0.00     0.726 A 
HETATM    5  N   UNL     1      39.724 -13.015  -0.782  1.00  0.00    -0.083 N 
HETATM    6  N   UNL     1      38.718 -12.158  -1.051  1.00  0.00    -0.140 NA
HETATM    7  C   UNL     1      38.081 -12.827  -2.024  1.00  0.00     0.166 A 
HETATM    8  N   UNL     1      38.631 -14.042  -2.364  1.00  0.00    -0.046 NA
HETATM    9  C   UNL     1      40.722 -12.809   0.267  1.00  0.00     0.202 C 
HETATM   10  C   UNL     1      41.386 -14.127   0.660  1.00  0.00     0.062 C 
HETATM   11  H   UNL     1      40.345 -16.030  -1.794  1.00  0.00     0.184 HD
ENDROOT
BRANCH  10  12
HETATM   12  C   UNL     1      41.935 -14.249   2.050  1.00  0.00     0.256 C 
HETATM   13  N   UNL     1      41.433 -15.302   2.784  1.00  0.00    -0.323 N 
HETATM   14  H   UNL     1      40.659 -15.829   2.405  1.00  0.00     0.169 HD
HETATM   15  O   UNL     1      42.816 -13.477   2.415  1.00  0.00    -0.267 OA
BRANCH  13  16
HETATM   16  C   UNL     1      41.895 -15.764   4.038  1.00  0.00     0.035 A 
HETATM   17  C   UNL     1      43.156 -16.328   4.252  1.00  0.00     0.031 A 
HETATM   18  C   UNL     1      43.523 -16.789   5.522  1.00  0.00     0.026 A 
HETATM   19  C   UNL     1      42.627 -16.694   6.582  1.00  0.00     0.034 A 
HETATM   20 CL   UNL     1      43.074 -17.274   8.138  1.00  0.00    -0.084 Cl
HETATM   21  C   UNL     1      41.369 -16.133   6.386  1.00  0.00     0.026 A 
HETATM   22  C   UNL     1      41.007 -15.664   5.119  1.00  0.00     0.031 A 
ENDBRANCH  13  16
ENDBRANCH  10  12
BRANCH   9  23
HETATM   23  C   UNL     1      41.713 -11.740  -0.203  1.00  0.00    -0.028 A 
HETATM   24  C   UNL     1      41.707 -10.471   0.407  1.00  0.00     0.012 A 
HETATM   25  C   UNL     1      42.599  -9.480  -0.007  1.00  0.00     0.043 A 
HETATM   26  C   UNL     1      43.496  -9.745  -1.033  1.00  0.00     0.116 A 
HETATM   27  F   UNL     1      44.352  -8.793  -1.426  1.00  0.00    -0.206 F 
HETATM   28  C   UNL     1      43.514 -10.984  -1.662  1.00  0.00     0.043 A 
HETATM   29  C   UNL     1      42.621 -11.977  -1.254  1.00  0.00     0.012 A 
ENDBRANCH   9  23
BRANCH   7  30
HETATM   30  C   UNL     1      36.834 -12.316  -2.648  1.00  0.00     0.085 C 
BRANCH  30  31
HETATM   31  C   UNL     1      36.805 -12.499  -4.166  1.00  0.00     0.034 C 
BRANCH  31  32
HETATM   32  C   UNL     1      36.044 -13.746  -4.608  1.00  0.00     0.164 C 
BRANCH  32  33
HETATM   33  O   UNL     1      36.967 -14.765  -4.975  1.00  0.00    -0.401 OA
HETATM   34  H   UNL     1      36.510 -15.373  -5.581  1.00  0.00     0.209 HD
ENDBRANCH  32  33
ENDBRANCH  31  32
ENDBRANCH  30  31
ENDBRANCH   7  30
TORSDOF 7
ENDMDL
