MODEL 1
REMARK VINA RESULT:      -9.2      0.000      0.000
REMARK  4 active torsions:
REMARK  status: ('A' for Active; 'I' for Inactive)
REMARK       I    between atoms: N_6  and  C_7 
REMARK    1  A    between atoms: C_7  and  C_8 
REMARK    2  A    between atoms: C_9  and  N_10 
REMARK       I    between atoms: N_10  and  C_11 
REMARK    3  A    between atoms: C_11  and  C_12 
REMARK    4  A    between atoms: N_20  and  C_21 
ROOT
HETATM    1  C   UNL     1      43.413 -15.835   4.500  1.00  0.00     0.097 C 
HETATM    2  C   UNL     1      43.466 -16.760   3.464  1.00  0.00     0.149 C 
HETATM    3  N   UNL     1      43.863 -17.979   4.029  1.00  0.00    -0.217 N 
HETATM    4  N   UNL     1      44.122 -17.821   5.358  1.00  0.00    -0.177 NA
HETATM    5  C   UNL     1      43.710 -16.591   5.645  1.00  0.00     0.160 C 
ENDROOT
BRANCH   2   6
HETATM    6  N   UNL     1      43.182 -16.398   2.143  1.00  0.00    -0.306 N 
HETATM    7  C   UNL     1      41.847 -16.388   1.626  1.00  0.00     0.257 C 
HETATM    8  O   UNL     1      40.988 -17.023   2.211  1.00  0.00    -0.267 OA
HETATM    9  H   UNL     1      43.977 -16.341   1.509  1.00  0.00     0.170 HD
BRANCH   7  10
HETATM   10  C   UNL     1      41.591 -15.623   0.376  1.00  0.00     0.032 A 
HETATM   11  C   UNL     1      41.207 -16.241  -0.824  1.00  0.00     0.018 A 
HETATM   12  C   UNL     1      41.034 -15.474  -1.983  1.00  0.00     0.020 A 
HETATM   13  C   UNL     1      41.253 -14.098  -1.948  1.00  0.00     0.011 A 
HETATM   14 BR   UNL     1      41.037 -13.074  -3.520  1.00  0.00    -0.051 Br
HETATM   15  C   UNL     1      41.642 -13.476  -0.764  1.00  0.00     0.020 A 
HETATM   16  C   UNL     1      41.808 -14.237   0.397  1.00  0.00     0.018 A 
ENDBRANCH   7  10
ENDBRANCH   2   6
BRANCH   1  17
HETATM   17  C   UNL     1      43.099 -14.429   4.333  1.00  0.00     0.259 C 
HETATM   18  N   UNL     1      41.767 -14.020   4.193  1.00  0.00    -0.345 N 
HETATM   19  C   UNL     1      41.524 -12.601   3.890  1.00  0.00     0.154 C 
HETATM   20  C   UNL     1      40.617 -14.689   4.827  1.00  0.00     0.154 C 
HETATM   21  C   UNL     1      41.141 -11.818   5.160  1.00  0.00     0.254 C 
HETATM   22  N   UNL     1      39.928 -12.477   5.820  1.00  0.00    -0.072 N 
HETATM   23  C   UNL     1      39.487 -11.738   7.053  1.00  0.00     0.269 C 
HETATM   24  H   UNL     1      39.147 -12.418   5.152  1.00  0.00     0.279 HD
HETATM   25  C   UNL     1      40.173 -13.952   6.109  1.00  0.00     0.254 C 
HETATM   26  O   UNL     1      44.013 -13.601   4.364  1.00  0.00    -0.267 OA
ENDBRANCH   1  17
BRANCH   3  27
HETATM   27  C   UNL     1      43.926 -19.285   3.471  1.00  0.00     0.060 A 
HETATM   28  C   UNL     1      43.325 -19.597   2.245  1.00  0.00     0.031 A 
HETATM   29  C   UNL     1      43.455 -20.883   1.713  1.00  0.00     0.002 A 
HETATM   30  C   UNL     1      44.160 -21.864   2.408  1.00  0.00     0.000 A 
HETATM   31  C   UNL     1      44.716 -21.574   3.651  1.00  0.00     0.002 A 
HETATM   32  C   UNL     1      44.592 -20.293   4.189  1.00  0.00     0.031 A 
ENDBRANCH   3  27
TORSDOF 4
ENDMDL
MODEL 2
REMARK VINA RESULT:      -8.6      1.585      2.331
REMARK  4 active torsions:
REMARK  status: ('A' for Active; 'I' for Inactive)
REMARK       I    between atoms: N_6  and  C_7 
REMARK    1  A    between atoms: C_7  and  C_8 
REMARK    2  A    between atoms: C_9  and  N_10 
REMARK       I    between atoms: N_10  and  C_11 
REMARK    3  A    between atoms: C_11  and  C_12 
REMARK    4  A    between atoms: N_20  and  C_21 
ROOT
HETATM    1  C   UNL     1      41.589 -15.906   5.034  1.00  0.00     0.097 C 
HETATM    2  C   UNL     1      42.122 -16.603   3.957  1.00  0.00     0.149 C 
HETATM    3  N   UNL     1      42.800 -17.710   4.484  1.00  0.00    -0.217 N 
HETATM    4  N   UNL     1      42.762 -17.680   5.847  1.00  0.00    -0.177 NA
HETATM    5  C   UNL     1      41.922 -16.695   6.146  1.00  0.00     0.160 C 
ENDROOT
BRANCH   2   6
HETATM    6  N   UNL     1      41.963 -16.153   2.641  1.00  0.00    -0.306 N 
HETATM    7  C   UNL     1      40.752 -16.361   1.907  1.00  0.00     0.257 C 
HETATM    8  O   UNL     1      39.981 -17.227   2.281  1.00  0.00    -0.267 OA
HETATM    9  H   UNL     1      42.810 -15.855   2.159  1.00  0.00     0.170 HD
BRANCH   7  10
HETATM   10  C   UNL     1      40.518 -15.522   0.700  1.00  0.00     0.032 A 
HETATM   11  C   UNL     1      39.595 -14.467   0.679  1.00  0.00     0.018 A 
HETATM   12  C   UNL     1      39.380 -13.747  -0.504  1.00  0.00     0.020 A 
HETATM   13  C   UNL     1      40.074 -14.087  -1.664  1.00  0.00     0.011 A 
HETATM   14 BR   UNL     1      39.762 -13.126  -3.259  1.00  0.00    -0.051 Br
HETATM   15  C   UNL     1      40.988 -15.139  -1.655  1.00  0.00     0.020 A 
HETATM   16  C   UNL     1      41.211 -15.854  -0.474  1.00  0.00     0.018 A 
ENDBRANCH   7  10
ENDBRANCH   2   6
BRANCH   1  17
HETATM   17  C   UNL     1      40.859 -14.657   4.927  1.00  0.00     0.259 C 
HETATM   18  N   UNL     1      41.547 -13.460   4.692  1.00  0.00    -0.345 N 
HETATM   19  C   UNL     1      40.767 -12.214   4.731  1.00  0.00     0.154 C 
HETATM   20  C   UNL     1      42.788 -13.351   3.905  1.00  0.00     0.154 C 
HETATM   21  C   UNL     1      40.405 -11.739   3.310  1.00  0.00     0.254 C 
HETATM   22  N   UNL     1      41.684 -11.589   2.482  1.00  0.00    -0.072 N 
HETATM   23  C   UNL     1      41.398 -11.097   1.089  1.00  0.00     0.269 C 
HETATM   24  H   UNL     1      42.256 -10.862   2.934  1.00  0.00     0.279 HD
HETATM   25  C   UNL     1      42.502 -12.873   2.466  1.00  0.00     0.254 C 
HETATM   26  O   UNL     1      39.627 -14.673   4.996  1.00  0.00    -0.267 OA
ENDBRANCH   1  17
BRANCH   3  27
HETATM   27  C   UNL     1      43.388 -18.833   3.841  1.00  0.00     0.060 A 
HETATM   28  C   UNL     1      43.009 -19.231   2.553  1.00  0.00     0.031 A 
HETATM   29  C   UNL     1      43.650 -20.313   1.942  1.00  0.00     0.002 A 
HETATM   30  C   UNL     1      44.647 -21.013   2.619  1.00  0.00     0.000 A 
HETATM   31  C   UNL     1      44.992 -20.655   3.919  1.00  0.00     0.002 A 
HETATM   32  C   UNL     1      44.358 -19.575   4.535  1.00  0.00     0.031 A 
ENDBRANCH   3  27
TORSDOF 4
ENDMDL
MODEL 3
REMARK VINA RESULT:      -8.4      3.057      5.923
REMARK  4 active torsions:
REMARK  status: ('A' for Active; 'I' for Inactive)
REMARK       I    between atoms: N_6  and  C_7 
REMARK    1  A    between atoms: C_7  and  C_8 
REMARK    2  A    between atoms: C_9  and  N_10 
REMARK       I    between atoms: N_10  and  C_11 
REMARK    3  A    between atoms: C_11  and  C_12 
REMARK    4  A    between atoms: N_20  and  C_21 
ROOT
HETATM    1  C   UNL     1      40.730 -16.280   1.767  1.00  0.00     0.097 C 
HETATM    2  C   UNL     1      41.198 -16.552   3.047  1.00  0.00     0.149 C 
HETATM    3  N   UNL     1      41.953 -17.729   2.961  1.00  0.00    -0.217 N 
HETATM    4  N   UNL     1      41.909 -18.226   1.691  1.00  0.00    -0.177 NA
HETATM    5  C   UNL     1      41.308 -17.283   0.974  1.00  0.00     0.160 C 
ENDROOT
BRANCH   2   6
HETATM    6  N   UNL     1      40.873 -15.737   4.136  1.00  0.00    -0.306 N 
HETATM    7  C   UNL     1      41.751 -14.708   4.606  1.00  0.00     0.257 C 
HETATM    8  O   UNL     1      42.928 -14.757   4.297  1.00  0.00    -0.267 OA
HETATM    9  H   UNL     1      40.083 -16.037   4.706  1.00  0.00     0.170 HD
BRANCH   7  10
HETATM   10  C   UNL     1      41.176 -13.649   5.479  1.00  0.00     0.032 A 
HETATM   11  C   UNL     1      39.835 -13.652   5.890  1.00  0.00     0.018 A 
HETATM   12  C   UNL     1      39.337 -12.599   6.668  1.00  0.00     0.020 A 
HETATM   13  C   UNL     1      40.171 -11.541   7.025  1.00  0.00     0.011 A 
HETATM   14 BR   UNL     1      39.487 -10.115   8.056  1.00  0.00    -0.051 Br
HETATM   15  C   UNL     1      41.503 -11.525   6.616  1.00  0.00     0.020 A 
HETATM   16  C   UNL     1      42.005 -12.579   5.846  1.00  0.00     0.018 A 
ENDBRANCH   7  10
ENDBRANCH   2   6
BRANCH   1  17
HETATM   17  C   UNL     1      39.854 -15.174   1.429  1.00  0.00     0.259 C 
HETATM   18  N   UNL     1      40.344 -14.092   0.688  1.00  0.00    -0.345 N 
HETATM   19  C   UNL     1      39.448 -12.943   0.496  1.00  0.00     0.154 C 
HETATM   20  C   UNL     1      41.397 -14.192  -0.339  1.00  0.00     0.154 C 
HETATM   21  C   UNL     1      38.776 -12.985  -0.890  1.00  0.00     0.254 C 
HETATM   22  N   UNL     1      39.852 -13.058  -1.976  1.00  0.00    -0.072 N 
HETATM   23  C   UNL     1      39.258 -13.072  -3.358  1.00  0.00     0.269 C 
HETATM   24  H   UNL     1      40.412 -12.196  -1.910  1.00  0.00     0.279 HD
HETATM   25  C   UNL     1      40.795 -14.234  -1.760  1.00  0.00     0.254 C 
HETATM   26  O   UNL     1      38.667 -15.225   1.761  1.00  0.00    -0.267 OA
ENDBRANCH   1  17
BRANCH   3  27
HETATM   27  C   UNL     1      42.785 -18.373   3.917  1.00  0.00     0.060 A 
HETATM   28  C   UNL     1      42.521 -18.307   5.291  1.00  0.00     0.031 A 
HETATM   29  C   UNL     1      43.339 -18.996   6.191  1.00  0.00     0.002 A 
HETATM   30  C   UNL     1      44.431 -19.729   5.730  1.00  0.00     0.000 A 
HETATM   31  C   UNL     1      44.729 -19.756   4.370  1.00  0.00     0.002 A 
HETATM   32  C   UNL     1      43.916 -19.072   3.465  1.00  0.00     0.031 A 
ENDBRANCH   3  27
TORSDOF 4
ENDMDL
MODEL 4
REMARK VINA RESULT:      -8.2      3.365      5.980
REMARK  4 active torsions:
REMARK  status: ('A' for Active; 'I' for Inactive)
REMARK       I    between atoms: N_6  and  C_7 
REMARK    1  A    between atoms: C_7  and  C_8 
REMARK    2  A    between atoms: C_9  and  N_10 
REMARK       I    between atoms: N_10  and  C_11 
REMARK    3  A    between atoms: C_11  and  C_12 
REMARK    4  A    between atoms: N_20  and  C_21 
ROOT
HETATM    1  C   UNL     1      41.077 -16.174   1.624  1.00  0.00     0.097 C 
HETATM    2  C   UNL     1      42.036 -16.500   2.575  1.00  0.00     0.149 C 
HETATM    3  N   UNL     1      42.269 -17.877   2.461  1.00  0.00    -0.217 N 
HETATM    4  N   UNL     1      41.441 -18.419   1.522  1.00  0.00    -0.177 NA
HETATM    5  C   UNL     1      40.854 -17.379   0.940  1.00  0.00     0.160 C 
ENDROOT
BRANCH   2   6
HETATM    6  N   UNL     1      42.562 -15.540   3.446  1.00  0.00    -0.306 N 
HETATM    7  C   UNL     1      42.077 -15.376   4.783  1.00  0.00     0.257 C 
HETATM    8  O   UNL     1      40.979 -15.821   5.065  1.00  0.00    -0.267 OA
HETATM    9  H   UNL     1      43.160 -14.829   3.027  1.00  0.00     0.170 HD
BRANCH   7  10
HETATM   10  C   UNL     1      42.935 -14.638   5.748  1.00  0.00     0.032 A 
HETATM   11  C   UNL     1      44.027 -15.232   6.398  1.00  0.00     0.018 A 
HETATM   12  C   UNL     1      44.765 -14.501   7.338  1.00  0.00     0.020 A 
HETATM   13  C   UNL     1      44.408 -13.187   7.637  1.00  0.00     0.011 A 
HETATM   14 BR   UNL     1      45.396 -12.217   8.921  1.00  0.00    -0.051 Br
HETATM   15  C   UNL     1      43.321 -12.591   7.002  1.00  0.00     0.020 A 
HETATM   16  C   UNL     1      42.587 -13.314   6.058  1.00  0.00     0.018 A 
ENDBRANCH   7  10
ENDBRANCH   2   6
BRANCH   1  17
HETATM   17  C   UNL     1      40.508 -14.851   1.449  1.00  0.00     0.259 C 
HETATM   18  N   UNL     1      40.903 -14.056   0.366  1.00  0.00    -0.345 N 
HETATM   19  C   UNL     1      40.395 -12.676   0.321  1.00  0.00     0.154 C 
HETATM   20  C   UNL     1      41.299 -14.578  -0.954  1.00  0.00     0.154 C 
HETATM   21  C   UNL     1      39.191 -12.557  -0.634  1.00  0.00     0.254 C 
HETATM   22  N   UNL     1      39.588 -13.066  -2.021  1.00  0.00    -0.072 N 
HETATM   23  C   UNL     1      38.459 -12.948  -3.009  1.00  0.00     0.269 C 
HETATM   24  H   UNL     1      40.341 -12.455  -2.367  1.00  0.00     0.279 HD
HETATM   25  C   UNL     1      40.138 -14.485  -1.967  1.00  0.00     0.254 C 
HETATM   26  O   UNL     1      39.642 -14.461   2.235  1.00  0.00    -0.267 OA
ENDBRANCH   1  17
BRANCH   3  27
HETATM   27  C   UNL     1      43.251 -18.707   3.067  1.00  0.00     0.060 A 
HETATM   28  C   UNL     1      43.634 -18.546   4.404  1.00  0.00     0.031 A 
HETATM   29  C   UNL     1      44.569 -19.417   4.971  1.00  0.00     0.002 A 
HETATM   30  C   UNL     1      45.139 -20.432   4.205  1.00  0.00     0.000 A 
HETATM   31  C   UNL     1      44.801 -20.566   2.861  1.00  0.00     0.002 A 
HETATM   32  C   UNL     1      43.868 -19.700   2.288  1.00  0.00     0.031 A 
ENDBRANCH   3  27
TORSDOF 4
ENDMDL
MODEL 5
REMARK VINA RESULT:      -8.0      3.453      7.873
REMARK  4 active torsions:
REMARK  status: ('A' for Active; 'I' for Inactive)
REMARK       I    between atoms: N_6  and  C_7 
REMARK    1  A    between atoms: C_7  and  C_8 
REMARK    2  A    between atoms: C_9  and  N_10 
REMARK       I    between atoms: N_10  and  C_11 
REMARK    3  A    between atoms: C_11  and  C_12 
REMARK    4  A    between atoms: N_20  and  C_21 
ROOT
HETATM    1  C   UNL     1      41.602 -12.380   3.934  1.00  0.00     0.097 C 
HETATM    2  C   UNL     1      41.650 -12.624   5.302  1.00  0.00     0.149 C 
HETATM    3  N   UNL     1      41.234 -11.447   5.938  1.00  0.00    -0.217 N 
HETATM    4  N   UNL     1      41.000 -10.470   5.017  1.00  0.00    -0.177 NA
HETATM    5  C   UNL     1      41.080 -11.081   3.839  1.00  0.00     0.160 C 
ENDROOT
BRANCH   2   6
HETATM    6  N   UNL     1      42.083 -13.851   5.813  1.00  0.00    -0.306 N 
HETATM    7  C   UNL     1      41.239 -15.008   5.834  1.00  0.00     0.257 C 
HETATM    8  O   UNL     1      40.035 -14.856   5.735  1.00  0.00    -0.267 OA
HETATM    9  H   UNL     1      42.946 -13.837   6.355  1.00  0.00     0.170 HD
BRANCH   7  10
HETATM   10  C   UNL     1      41.886 -16.337   6.010  1.00  0.00     0.032 A 
HETATM   11  C   UNL     1      42.588 -16.689   7.172  1.00  0.00     0.018 A 
HETATM   12  C   UNL     1      43.221 -17.935   7.258  1.00  0.00     0.020 A 
HETATM   13  C   UNL     1      43.165 -18.822   6.184  1.00  0.00     0.011 A 
HETATM   14 BR   UNL     1      44.040 -20.491   6.300  1.00  0.00    -0.051 Br
HETATM   15  C   UNL     1      42.477 -18.479   5.023  1.00  0.00     0.020 A 
HETATM   16  C   UNL     1      41.836 -17.239   4.936  1.00  0.00     0.018 A 
ENDBRANCH   7  10
ENDBRANCH   2   6
BRANCH   1  17
HETATM   17  C   UNL     1      42.013 -13.326   2.915  1.00  0.00     0.259 C 
HETATM   18  N   UNL     1      41.086 -14.233   2.386  1.00  0.00    -0.345 N 
HETATM   19  C   UNL     1      41.594 -15.256   1.459  1.00  0.00     0.154 C 
HETATM   20  C   UNL     1      39.647 -13.958   2.224  1.00  0.00     0.154 C 
HETATM   21  C   UNL     1      41.335 -14.857  -0.006  1.00  0.00     0.254 C 
HETATM   22  N   UNL     1      39.840 -14.595  -0.207  1.00  0.00    -0.072 N 
HETATM   23  C   UNL     1      39.519 -14.228  -1.630  1.00  0.00     0.269 C 
HETATM   24  H   UNL     1      39.347 -15.478  -0.017  1.00  0.00     0.279 HD
HETATM   25  C   UNL     1      39.311 -13.555   0.772  1.00  0.00     0.254 C 
HETATM   26  O   UNL     1      43.170 -13.288   2.489  1.00  0.00    -0.267 OA
ENDBRANCH   1  17
BRANCH   3  27
HETATM   27  C   UNL     1      40.941 -11.182   7.304  1.00  0.00     0.060 A 
HETATM   28  C   UNL     1      39.667 -11.396   7.844  1.00  0.00     0.031 A 
HETATM   29  C   UNL     1      39.440 -11.167   9.204  1.00  0.00     0.002 A 
HETATM   30  C   UNL     1      40.468 -10.703  10.021  1.00  0.00     0.000 A 
HETATM   31  C   UNL     1      41.724 -10.439   9.479  1.00  0.00     0.002 A 
HETATM   32  C   UNL     1      41.959 -10.666   8.123  1.00  0.00     0.031 A 
ENDBRANCH   3  27
TORSDOF 4
ENDMDL
MODEL 6
REMARK VINA RESULT:      -8.0      1.826      6.266
REMARK  4 active torsions:
REMARK  status: ('A' for Active; 'I' for Inactive)
REMARK       I    between atoms: N_6  and  C_7 
REMARK    1  A    between atoms: C_7  and  C_8 
REMARK    2  A    between atoms: C_9  and  N_10 
REMARK       I    between atoms: N_10  and  C_11 
REMARK    3  A    between atoms: C_11  and  C_12 
REMARK    4  A    between atoms: N_20  and  C_21 
ROOT
HETATM    1  C   UNL     1      41.886 -17.109   4.102  1.00  0.00     0.097 C 
HETATM    2  C   UNL     1      41.505 -15.849   3.655  1.00  0.00     0.149 C 
HETATM    3  N   UNL     1      40.772 -15.255   4.690  1.00  0.00    -0.217 N 
HETATM    4  N   UNL     1      40.630 -16.128   5.728  1.00  0.00    -0.177 NA
HETATM    5  C   UNL     1      41.415 -17.155   5.424  1.00  0.00     0.160 C 
ENDROOT
BRANCH   2   6
HETATM    6  N   UNL     1      41.833 -15.397   2.372  1.00  0.00    -0.306 N 
HETATM    7  C   UNL     1      40.897 -15.436   1.289  1.00  0.00     0.257 C 
HETATM    8  O   UNL     1      39.935 -16.178   1.373  1.00  0.00    -0.267 OA
HETATM    9  H   UNL     1      42.821 -15.229   2.190  1.00  0.00     0.170 HD
BRANCH   7  10
HETATM   10  C   UNL     1      41.176 -14.587   0.099  1.00  0.00     0.032 A 
HETATM   11  C   UNL     1      40.991 -15.042  -1.215  1.00  0.00     0.018 A 
HETATM   12  C   UNL     1      41.321 -14.214  -2.296  1.00  0.00     0.020 A 
HETATM   13  C   UNL     1      41.845 -12.943  -2.067  1.00  0.00     0.011 A 
HETATM   14 BR   UNL     1      42.308 -11.843  -3.530  1.00  0.00    -0.051 Br
HETATM   15  C   UNL     1      42.039 -12.485  -0.766  1.00  0.00     0.020 A 
HETATM   16  C   UNL     1      41.703 -13.305   0.316  1.00  0.00     0.018 A 
ENDBRANCH   7  10
ENDBRANCH   2   6
BRANCH   1  17
HETATM   17  C   UNL     1      42.615 -18.079   3.308  1.00  0.00     0.259 C 
HETATM   18  N   UNL     1      43.908 -18.463   3.684  1.00  0.00    -0.345 N 
HETATM   19  C   UNL     1      44.645 -19.343   2.765  1.00  0.00     0.154 C 
HETATM   20  C   UNL     1      44.385 -18.538   5.076  1.00  0.00     0.154 C 
HETATM   21  C   UNL     1      44.579 -20.812   3.227  1.00  0.00     0.254 C 
HETATM   22  N   UNL     1      45.100 -20.919   4.662  1.00  0.00    -0.072 N 
HETATM   23  C   UNL     1      45.088 -22.338   5.161  1.00  0.00     0.269 C 
HETATM   24  H   UNL     1      46.086 -20.623   4.652  1.00  0.00     0.279 HD
HETATM   25  C   UNL     1      44.352 -19.987   5.607  1.00  0.00     0.254 C 
HETATM   26  O   UNL     1      42.063 -18.592   2.331  1.00  0.00    -0.267 OA
ENDBRANCH   1  17
BRANCH   3  27
HETATM   27  C   UNL     1      40.282 -13.929   4.840  1.00  0.00     0.060 A 
HETATM   28  C   UNL     1      40.399 -13.229   6.047  1.00  0.00     0.031 A 
HETATM   29  C   UNL     1      39.945 -11.909   6.134  1.00  0.00     0.002 A 
HETATM   30  C   UNL     1      39.355 -11.294   5.031  1.00  0.00     0.000 A 
HETATM   31  C   UNL     1      39.190 -12.002   3.844  1.00  0.00     0.002 A 
HETATM   32  C   UNL     1      39.641 -13.320   3.749  1.00  0.00     0.031 A 
ENDBRANCH   3  27
TORSDOF 4
ENDMDL
MODEL 7
REMARK VINA RESULT:      -8.0      3.726      5.716
REMARK  4 active torsions:
REMARK  status: ('A' for Active; 'I' for Inactive)
REMARK       I    between atoms: N_6  and  C_7 
REMARK    1  A    between atoms: C_7  and  C_8 
REMARK    2  A    between atoms: C_9  and  N_10 
REMARK       I    between atoms: N_10  and  C_11 
REMARK    3  A    between atoms: C_11  and  C_12 
REMARK    4  A    between atoms: N_20  and  C_21 
ROOT
HETATM    1  C   UNL     1      40.579 -15.381   3.252  1.00  0.00     0.097 C 
HETATM    2  C   UNL     1      41.621 -16.082   3.846  1.00  0.00     0.149 C 
HETATM    3  N   UNL     1      41.752 -17.287   3.142  1.00  0.00    -0.217 N 
HETATM    4  N   UNL     1      40.786 -17.381   2.184  1.00  0.00    -0.177 NA
HETATM    5  C   UNL     1      40.201 -16.188   2.168  1.00  0.00     0.160 C 
ENDROOT
BRANCH   2   6
HETATM    6  N   UNL     1      42.307 -15.578   4.956  1.00  0.00    -0.306 N 
HETATM    7  C   UNL     1      43.297 -14.550   4.837  1.00  0.00     0.257 C 
HETATM    8  O   UNL     1      43.805 -14.349   3.748  1.00  0.00    -0.267 OA
HETATM    9  H   UNL     1      42.223 -16.110   5.820  1.00  0.00     0.170 HD
BRANCH   7  10
HETATM   10  C   UNL     1      43.674 -13.803   6.067  1.00  0.00     0.032 A 
HETATM   11  C   UNL     1      42.859 -12.810   6.630  1.00  0.00     0.018 A 
HETATM   12  C   UNL     1      43.293 -12.103   7.758  1.00  0.00     0.020 A 
HETATM   13  C   UNL     1      44.540 -12.377   8.317  1.00  0.00     0.011 A 
HETATM   14 BR   UNL     1      45.126 -11.405   9.825  1.00  0.00    -0.051 Br
HETATM   15  C   UNL     1      45.361 -13.357   7.761  1.00  0.00     0.020 A 
HETATM   16  C   UNL     1      44.927 -14.070   6.639  1.00  0.00     0.018 A 
ENDBRANCH   7  10
ENDBRANCH   2   6
BRANCH   1  17
HETATM   17  C   UNL     1      40.078 -14.102   3.718  1.00  0.00     0.259 C 
HETATM   18  N   UNL     1      40.106 -12.987   2.871  1.00  0.00    -0.345 N 
HETATM   19  C   UNL     1      39.713 -11.692   3.446  1.00  0.00     0.154 C 
HETATM   20  C   UNL     1      39.959 -13.047   1.406  1.00  0.00     0.154 C 
HETATM   21  C   UNL     1      38.256 -11.342   3.086  1.00  0.00     0.254 C 
HETATM   22  N   UNL     1      38.085 -11.369   1.565  1.00  0.00    -0.072 N 
HETATM   23  C   UNL     1      36.686 -11.005   1.149  1.00  0.00     0.269 C 
HETATM   24  H   UNL     1      38.702 -10.641   1.177  1.00  0.00     0.279 HD
HETATM   25  C   UNL     1      38.519 -12.702   0.970  1.00  0.00     0.254 C 
HETATM   26  O   UNL     1      39.585 -14.024   4.846  1.00  0.00    -0.267 OA
ENDBRANCH   1  17
BRANCH   3  27
HETATM   27  C   UNL     1      42.745 -18.302   3.213  1.00  0.00     0.060 A 
HETATM   28  C   UNL     1      43.523 -18.498   4.360  1.00  0.00     0.031 A 
HETATM   29  C   UNL     1      44.454 -19.540   4.401  1.00  0.00     0.002 A 
HETATM   30  C   UNL     1      44.628 -20.371   3.296  1.00  0.00     0.000 A 
HETATM   31  C   UNL     1      43.893 -20.150   2.133  1.00  0.00     0.002 A 
HETATM   32  C   UNL     1      42.962 -19.112   2.085  1.00  0.00     0.031 A 
ENDBRANCH   3  27
TORSDOF 4
ENDMDL
MODEL 8
REMARK VINA RESULT:      -7.8      2.146      3.154
REMARK  4 active torsions:
REMARK  status: ('A' for Active; 'I' for Inactive)
REMARK       I    between atoms: N_6  and  C_7 
REMARK    1  A    between atoms: C_7  and  C_8 
REMARK    2  A    between atoms: C_9  and  N_10 
REMARK       I    between atoms: N_10  and  C_11 
REMARK    3  A    between atoms: C_11  and  C_12 
REMARK    4  A    between atoms: N_20  and  C_21 
ROOT
HETATM    1  C   UNL     1      41.851 -13.052   4.401  1.00  0.00     0.097 C 
HETATM    2  C   UNL     1      41.871 -14.048   3.432  1.00  0.00     0.149 C 
HETATM    3  N   UNL     1      42.855 -14.968   3.816  1.00  0.00    -0.217 N 
HETATM    4  N   UNL     1      43.486 -14.539   4.947  1.00  0.00    -0.177 NA
HETATM    5  C   UNL     1      42.782 -13.489   5.356  1.00  0.00     0.160 C 
ENDROOT
BRANCH   2   6
HETATM    6  N   UNL     1      41.034 -14.000   2.312  1.00  0.00    -0.306 N 
HETATM    7  C   UNL     1      41.487 -13.519   1.042  1.00  0.00     0.257 C 
HETATM    8  O   UNL     1      42.486 -12.825   1.001  1.00  0.00    -0.267 OA
HETATM    9  H   UNL     1      40.038 -14.127   2.486  1.00  0.00     0.170 HD
BRANCH   7  10
HETATM   10  C   UNL     1      40.685 -13.872  -0.161  1.00  0.00     0.032 A 
HETATM   11  C   UNL     1      39.348 -13.478  -0.321  1.00  0.00     0.018 A 
HETATM   12  C   UNL     1      38.628 -13.886  -1.451  1.00  0.00     0.020 A 
HETATM   13  C   UNL     1      39.235 -14.693  -2.412  1.00  0.00     0.011 A 
HETATM   14 BR   UNL     1      38.250 -15.255  -3.922  1.00  0.00    -0.051 Br
HETATM   15  C   UNL     1      40.560 -15.095  -2.258  1.00  0.00     0.020 A 
HETATM   16  C   UNL     1      41.285 -14.683  -1.136  1.00  0.00     0.018 A 
ENDBRANCH   7  10
ENDBRANCH   2   6
BRANCH   1  17
HETATM   17  C   UNL     1      41.009 -11.872   4.350  1.00  0.00     0.259 C 
HETATM   18  N   UNL     1      39.906 -11.760   5.206  1.00  0.00    -0.345 N 
HETATM   19  C   UNL     1      39.014 -10.607   5.012  1.00  0.00     0.154 C 
HETATM   20  C   UNL     1      39.841 -12.329   6.564  1.00  0.00     0.154 C 
HETATM   21  C   UNL     1      39.322  -9.488   6.026  1.00  0.00     0.254 C 
HETATM   22  N   UNL     1      39.231 -10.049   7.447  1.00  0.00    -0.072 N 
HETATM   23  C   UNL     1      39.493  -8.993   8.486  1.00  0.00     0.269 C 
HETATM   24  H   UNL     1      38.261 -10.362   7.590  1.00  0.00     0.279 HD
HETATM   25  C   UNL     1      40.136 -11.259   7.637  1.00  0.00     0.254 C 
HETATM   26  O   UNL     1      41.306 -10.954   3.582  1.00  0.00    -0.267 OA
ENDBRANCH   1  17
BRANCH   3  27
HETATM   27  C   UNL     1      43.192 -16.245   3.289  1.00  0.00     0.060 A 
HETATM   28  C   UNL     1      43.656 -16.406   1.979  1.00  0.00     0.031 A 
HETATM   29  C   UNL     1      44.021 -17.675   1.520  1.00  0.00     0.002 A 
HETATM   30  C   UNL     1      43.900 -18.786   2.353  1.00  0.00     0.000 A 
HETATM   31  C   UNL     1      43.390 -18.640   3.641  1.00  0.00     0.002 A 
HETATM   32  C   UNL     1      43.025 -17.376   4.106  1.00  0.00     0.031 A 
ENDBRANCH   3  27
TORSDOF 4
ENDMDL
MODEL 9
REMARK VINA RESULT:      -7.7      3.512      6.546
REMARK  4 active torsions:
REMARK  status: ('A' for Active; 'I' for Inactive)
REMARK       I    between atoms: N_6  and  C_7 
REMARK    1  A    between atoms: C_7  and  C_8 
REMARK    2  A    between atoms: C_9  and  N_10 
REMARK       I    between atoms: N_10  and  C_11 
REMARK    3  A    between atoms: C_11  and  C_12 
REMARK    4  A    between atoms: N_20  and  C_21 
ROOT
HETATM    1  C   UNL     1      40.004 -11.490  -0.011  1.00  0.00     0.097 C 
HETATM    2  C   UNL     1      40.067 -12.829  -0.377  1.00  0.00     0.149 C 
HETATM    3  N   UNL     1      39.236 -12.985  -1.494  1.00  0.00    -0.217 N 
HETATM    4  N   UNL     1      38.612 -11.807  -1.785  1.00  0.00    -0.177 NA
HETATM    5  C   UNL     1      39.189 -10.908  -0.995  1.00  0.00     0.160 C 
ENDROOT
BRANCH   2   6
HETATM    6  N   UNL     1      40.833 -13.751   0.344  1.00  0.00    -0.306 N 
HETATM    7  C   UNL     1      40.237 -14.814   1.096  1.00  0.00     0.257 C 
HETATM    8  O   UNL     1      39.063 -14.724   1.406  1.00  0.00    -0.267 OA
HETATM    9  H   UNL     1      41.816 -13.517   0.479  1.00  0.00     0.170 HD
BRANCH   7  10
HETATM   10  C   UNL     1      41.102 -15.959   1.488  1.00  0.00     0.032 A 
HETATM   11  C   UNL     1      40.964 -16.628   2.713  1.00  0.00     0.018 A 
HETATM   12  C   UNL     1      41.844 -17.665   3.049  1.00  0.00     0.020 A 
HETATM   13  C   UNL     1      42.865 -18.025   2.171  1.00  0.00     0.011 A 
HETATM   14 BR   UNL     1      44.059 -19.410   2.641  1.00  0.00    -0.051 Br
HETATM   15  C   UNL     1      43.015 -17.363   0.955  1.00  0.00     0.020 A 
HETATM   16  C   UNL     1      42.134 -16.332   0.612  1.00  0.00     0.018 A 
ENDBRANCH   7  10
ENDBRANCH   2   6
BRANCH   1  17
HETATM   17  C   UNL     1      40.676 -10.919   1.140  1.00  0.00     0.259 C 
HETATM   18  N   UNL     1      39.937 -10.541   2.268  1.00  0.00    -0.345 N 
HETATM   19  C   UNL     1      40.656  -9.844   3.345  1.00  0.00     0.154 C 
HETATM   20  C   UNL     1      38.707 -11.213   2.724  1.00  0.00     0.154 C 
HETATM   21  C   UNL     1      41.022 -10.810   4.487  1.00  0.00     0.254 C 
HETATM   22  N   UNL     1      39.755 -11.499   4.999  1.00  0.00    -0.072 N 
HETATM   23  C   UNL     1      40.044 -12.436   6.139  1.00  0.00     0.269 C 
HETATM   24  H   UNL     1      39.140 -10.764   5.376  1.00  0.00     0.279 HD
HETATM   25  C   UNL     1      38.998 -12.198   3.877  1.00  0.00     0.254 C 
HETATM   26  O   UNL     1      41.906 -10.818   1.129  1.00  0.00    -0.267 OA
ENDBRANCH   1  17
BRANCH   3  27
HETATM   27  C   UNL     1      39.048 -14.091  -2.367  1.00  0.00     0.060 A 
HETATM   28  C   UNL     1      37.809 -14.364  -2.959  1.00  0.00     0.031 A 
HETATM   29  C   UNL     1      37.683 -15.435  -3.849  1.00  0.00     0.002 A 
HETATM   30  C   UNL     1      38.780 -16.248  -4.131  1.00  0.00     0.000 A 
HETATM   31  C   UNL     1      40.002 -16.012  -3.505  1.00  0.00     0.002 A 
HETATM   32  C   UNL     1      40.135 -14.945  -2.617  1.00  0.00     0.031 A 
ENDBRANCH   3  27
TORSDOF 4
ENDMDL
MODEL 10
REMARK VINA RESULT:      -7.7      3.296      6.423
REMARK  4 active torsions:
REMARK  status: ('A' for Active; 'I' for Inactive)
REMARK       I    between atoms: N_6  and  C_7 
REMARK    1  A    between atoms: C_7  and  C_8 
REMARK    2  A    between atoms: C_9  and  N_10 
REMARK       I    between atoms: N_10  and  C_11 
REMARK    3  A    between atoms: C_11  and  C_12 
REMARK    4  A    between atoms: N_20  and  C_21 
ROOT
HETATM    1  C   UNL     1      39.455 -13.339   1.744  1.00  0.00     0.097 C 
HETATM    2  C   UNL     1      39.609 -14.350   0.803  1.00  0.00     0.149 C 
HETATM    3  N   UNL     1      38.980 -13.913  -0.369  1.00  0.00    -0.217 N 
HETATM    4  N   UNL     1      38.385 -12.703  -0.163  1.00  0.00    -0.177 NA
HETATM    5  C   UNL     1      38.801 -12.316   1.039  1.00  0.00     0.160 C 
ENDROOT
BRANCH   2   6
HETATM    6  N   UNL     1      40.266 -15.546   1.113  1.00  0.00    -0.306 N 
HETATM    7  C   UNL     1      41.691 -15.672   1.044  1.00  0.00     0.257 C 
HETATM    8  O   UNL     1      42.319 -14.862   0.386  1.00  0.00    -0.267 OA
HETATM    9  H   UNL     1      39.682 -16.376   1.190  1.00  0.00     0.170 HD
BRANCH   7  10
HETATM   10  C   UNL     1      42.323 -16.813   1.760  1.00  0.00     0.032 A 
HETATM   11  C   UNL     1      41.914 -17.226   3.036  1.00  0.00     0.018 A 
HETATM   12  C   UNL     1      42.583 -18.274   3.682  1.00  0.00     0.020 A 
HETATM   13  C   UNL     1      43.664 -18.898   3.062  1.00  0.00     0.011 A 
HETATM   14 BR   UNL     1      44.574 -20.295   3.949  1.00  0.00    -0.051 Br
HETATM   15  C   UNL     1      44.083 -18.490   1.797  1.00  0.00     0.020 A 
HETATM   16  C   UNL     1      43.412 -17.451   1.146  1.00  0.00     0.018 A 
ENDBRANCH   7  10
ENDBRANCH   2   6
BRANCH   1  17
HETATM   17  C   UNL     1      39.913 -13.416   3.118  1.00  0.00     0.259 C 
HETATM   18  N   UNL     1      40.703 -12.391   3.652  1.00  0.00    -0.345 N 
HETATM   19  C   UNL     1      41.249 -12.592   5.003  1.00  0.00     0.154 C 
HETATM   20  C   UNL     1      40.604 -10.972   3.266  1.00  0.00     0.154 C 
HETATM   21  C   UNL     1      40.406 -11.856   6.061  1.00  0.00     0.254 C 
HETATM   22  N   UNL     1      40.313 -10.372   5.697  1.00  0.00    -0.072 N 
HETATM   23  C   UNL     1      39.524  -9.591   6.711  1.00  0.00     0.269 C 
HETATM   24  H   UNL     1      41.270  -9.992   5.719  1.00  0.00     0.279 HD
HETATM   25  C   UNL     1      39.772 -10.167   4.288  1.00  0.00     0.254 C 
HETATM   26  O   UNL     1      39.558 -14.368   3.818  1.00  0.00    -0.267 OA
ENDBRANCH   1  17
BRANCH   3  27
HETATM   27  C   UNL     1      38.965 -14.466  -1.679  1.00  0.00     0.060 A 
HETATM   28  C   UNL     1      40.124 -14.966  -2.284  1.00  0.00     0.031 A 
HETATM   29  C   UNL     1      40.052 -15.545  -3.555  1.00  0.00     0.002 A 
HETATM   30  C   UNL     1      38.836 -15.605  -4.232  1.00  0.00     0.000 A 
HETATM   31  C   UNL     1      37.689 -15.064  -3.657  1.00  0.00     0.002 A 
HETATM   32  C   UNL     1      37.753 -14.485  -2.389  1.00  0.00     0.031 A 
ENDBRANCH   3  27
TORSDOF 4
ENDMDL
