MODEL 1
REMARK VINA RESULT:      -7.7      0.000      0.000
REMARK  5 active torsions:
REMARK  status: ('A' for Active; 'I' for Inactive)
REMARK    1  A    between atoms: C_3  and  O_4 
REMARK    2  A    between atoms: O_4  and  C_5 
REMARK    3  A    between atoms: C_8  and  N_9 
REMARK       I    between atoms: N_9  and  C_10 
REMARK    4  A    between atoms: C_10  and  C_11 
REMARK    5  A    between atoms: C_11  and  C_12 
ROOT
HETATM    1  C   UNL     1      44.321 -18.966   2.068  1.00  0.00     0.004 A 
HETATM    2  C   UNL     1      43.481 -18.030   2.671  1.00  0.00     0.037 A 
HETATM    3  C   UNL     1      43.051 -18.219   3.986  1.00  0.00     0.077 A 
HETATM    4  C   UNL     1      43.484 -19.331   4.713  1.00  0.00     0.059 A 
HETATM    5  C   UNL     1      44.332 -20.267   4.111  1.00  0.00     0.047 A 
HETATM    6  C   UNL     1      44.791 -21.403   4.856  1.00  0.00     0.099 C 
HETATM    7  N   UNL     1      45.167 -22.323   5.455  1.00  0.00    -0.191 NA
HETATM    8  C   UNL     1      44.747 -20.084   2.786  1.00  0.00     0.023 A 
ENDROOT
BRANCH   3   9
HETATM    9  O   UNL     1      42.277 -17.220   4.532  1.00  0.00    -0.311 OA
BRANCH   9  10
HETATM   10  C   UNL     1      42.916 -16.353   5.384  1.00  0.00     0.076 A 
HETATM   11  C   UNL     1      43.213 -15.069   4.938  1.00  0.00     0.039 A 
HETATM   12  C   UNL     1      43.818 -14.152   5.803  1.00  0.00     0.032 A 
HETATM   13  C   UNL     1      44.099 -14.504   7.126  1.00  0.00     0.034 A 
HETATM   14  C   UNL     1      43.763 -15.792   7.571  1.00  0.00     0.032 A 
HETATM   15  C   UNL     1      43.174 -16.717   6.704  1.00  0.00     0.039 A 
BRANCH  13  16
HETATM   16  N   UNL     1      44.683 -13.629   8.067  1.00  0.00    -0.327 N 
HETATM   17  C   UNL     1      44.285 -12.333   8.374  1.00  0.00     0.227 C 
HETATM   18  O   UNL     1      43.396 -11.706   7.804  1.00  0.00    -0.273 OA
HETATM   19  H   UNL     1      45.504 -13.980   8.545  1.00  0.00     0.169 HD
BRANCH  17  20
HETATM   20  C   UNL     1      45.142 -11.723   9.489  1.00  0.00     0.159 C 
BRANCH  20  21
HETATM   21  C   UNL     1      44.387 -11.381  10.740  1.00  0.00     0.017 A 
HETATM   22  N   UNL     1      43.635 -12.297  11.441  1.00  0.00    -0.369 N 
HETATM   23  H   UNL     1      43.558 -13.281  11.197  1.00  0.00     0.165 HD
HETATM   24  C   UNL     1      43.048 -11.690  12.519  1.00  0.00     0.088 A 
HETATM   25  C   UNL     1      43.419 -10.366  12.515  1.00  0.00     0.019 A 
HETATM   26  C   UNL     1      44.262 -10.168  11.395  1.00  0.00     0.027 A 
ENDBRANCH  20  21
ENDBRANCH  17  20
ENDBRANCH  13  16
ENDBRANCH   9  10
ENDBRANCH   3   9
TORSDOF 5
ENDMDL
MODEL 2
REMARK VINA RESULT:      -7.7      5.880      8.876
REMARK  5 active torsions:
REMARK  status: ('A' for Active; 'I' for Inactive)
REMARK    1  A    between atoms: C_3  and  O_4 
REMARK    2  A    between atoms: O_4  and  C_5 
REMARK    3  A    between atoms: C_8  and  N_9 
REMARK       I    between atoms: N_9  and  C_10 
REMARK    4  A    between atoms: C_10  and  C_11 
REMARK    5  A    between atoms: C_11  and  C_12 
ROOT
HETATM    1  C   UNL     1      44.721 -22.279   4.644  1.00  0.00     0.004 A 
HETATM    2  C   UNL     1      44.712 -21.621   3.414  1.00  0.00     0.037 A 
HETATM    3  C   UNL     1      44.480 -20.245   3.356  1.00  0.00     0.077 A 
HETATM    4  C   UNL     1      44.285 -19.517   4.533  1.00  0.00     0.059 A 
HETATM    5  C   UNL     1      44.301 -20.174   5.768  1.00  0.00     0.047 A 
HETATM    6  C   UNL     1      44.115 -19.430   6.979  1.00  0.00     0.099 C 
HETATM    7  N   UNL     1      43.967 -18.832   7.963  1.00  0.00    -0.191 NA
HETATM    8  C   UNL     1      44.515 -21.557   5.820  1.00  0.00     0.023 A 
ENDROOT
BRANCH   3   9
HETATM    9  O   UNL     1      44.551 -19.659   2.112  1.00  0.00    -0.311 OA
BRANCH   9  10
HETATM   10  C   UNL     1      43.682 -18.622   1.879  1.00  0.00     0.076 A 
HETATM   11  C   UNL     1      44.198 -17.347   1.671  1.00  0.00     0.039 A 
HETATM   12  C   UNL     1      43.337 -16.284   1.382  1.00  0.00     0.032 A 
HETATM   13  C   UNL     1      41.960 -16.498   1.267  1.00  0.00     0.034 A 
HETATM   14  C   UNL     1      41.458 -17.795   1.447  1.00  0.00     0.032 A 
HETATM   15  C   UNL     1      42.315 -18.857   1.753  1.00  0.00     0.039 A 
BRANCH  13  16
HETATM   16  N   UNL     1      41.030 -15.484   0.952  1.00  0.00    -0.327 N 
HETATM   17  C   UNL     1      40.596 -15.099  -0.311  1.00  0.00     0.227 C 
HETATM   18  O   UNL     1      41.025 -15.535  -1.375  1.00  0.00    -0.273 OA
HETATM   19  H   UNL     1      40.665 -14.960   1.739  1.00  0.00     0.169 HD
BRANCH  17  20
HETATM   20  C   UNL     1      39.539 -13.992  -0.238  1.00  0.00     0.159 C 
BRANCH  20  21
HETATM   21  C   UNL     1      38.786 -13.762  -1.516  1.00  0.00     0.017 A 
HETATM   22  N   UNL     1      38.188 -14.776  -2.231  1.00  0.00    -0.369 N 
HETATM   23  H   UNL     1      38.173 -15.750  -1.939  1.00  0.00     0.165 HD
HETATM   24  C   UNL     1      37.599 -14.266  -3.357  1.00  0.00     0.088 A 
HETATM   25  C   UNL     1      37.821 -12.909  -3.375  1.00  0.00     0.019 A 
HETATM   26  C   UNL     1      38.569 -12.589  -2.217  1.00  0.00     0.027 A 
ENDBRANCH  20  21
ENDBRANCH  17  20
ENDBRANCH  13  16
ENDBRANCH   9  10
ENDBRANCH   3   9
TORSDOF 5
ENDMDL
MODEL 3
REMARK VINA RESULT:      -7.6      6.309      9.358
REMARK  5 active torsions:
REMARK  status: ('A' for Active; 'I' for Inactive)
REMARK    1  A    between atoms: C_3  and  O_4 
REMARK    2  A    between atoms: O_4  and  C_5 
REMARK    3  A    between atoms: C_8  and  N_9 
REMARK       I    between atoms: N_9  and  C_10 
REMARK    4  A    between atoms: C_10  and  C_11 
REMARK    5  A    between atoms: C_11  and  C_12 
ROOT
HETATM    1  C   UNL     1      44.340 -20.364   6.107  1.00  0.00     0.004 A 
HETATM    2  C   UNL     1      43.761 -19.119   5.856  1.00  0.00     0.037 A 
HETATM    3  C   UNL     1      43.462 -18.737   4.546  1.00  0.00     0.077 A 
HETATM    4  C   UNL     1      43.712 -19.612   3.486  1.00  0.00     0.059 A 
HETATM    5  C   UNL     1      44.286 -20.863   3.738  1.00  0.00     0.047 A 
HETATM    6  C   UNL     1      44.532 -21.770   2.655  1.00  0.00     0.099 C 
HETATM    7  N   UNL     1      44.732 -22.509   1.782  1.00  0.00    -0.191 NA
HETATM    8  C   UNL     1      44.603 -21.235   5.049  1.00  0.00     0.023 A 
ENDROOT
BRANCH   3   9
HETATM    9  O   UNL     1      42.834 -17.522   4.387  1.00  0.00    -0.311 OA
BRANCH   9  10
HETATM   10  C   UNL     1      42.474 -17.188   3.104  1.00  0.00     0.076 A 
HETATM   11  C   UNL     1      43.475 -16.960   2.164  1.00  0.00     0.039 A 
HETATM   12  C   UNL     1      43.134 -16.669   0.840  1.00  0.00     0.032 A 
HETATM   13  C   UNL     1      41.794 -16.635   0.443  1.00  0.00     0.034 A 
HETATM   14  C   UNL     1      40.798 -16.898   1.395  1.00  0.00     0.032 A 
HETATM   15  C   UNL     1      41.134 -17.174   2.724  1.00  0.00     0.039 A 
BRANCH  13  16
HETATM   16  N   UNL     1      41.371 -16.373  -0.878  1.00  0.00    -0.327 N 
HETATM   17  C   UNL     1      40.957 -15.156  -1.406  1.00  0.00     0.227 C 
HETATM   18  O   UNL     1      40.814 -14.115  -0.771  1.00  0.00    -0.273 OA
HETATM   19  H   UNL     1      41.337 -17.174  -1.497  1.00  0.00     0.169 HD
BRANCH  17  20
HETATM   20  C   UNL     1      40.624 -15.266  -2.899  1.00  0.00     0.159 C 
BRANCH  20  21
HETATM   21  C   UNL     1      39.232 -14.839  -3.260  1.00  0.00     0.017 A 
HETATM   22  N   UNL     1      38.736 -13.582  -2.996  1.00  0.00    -0.369 N 
HETATM   23  H   UNL     1      39.276 -12.832  -2.572  1.00  0.00     0.165 HD
HETATM   24  C   UNL     1      37.436 -13.495  -3.419  1.00  0.00     0.088 A 
HETATM   25  C   UNL     1      37.084 -14.710  -3.958  1.00  0.00     0.019 A 
HETATM   26  C   UNL     1      38.213 -15.559  -3.859  1.00  0.00     0.027 A 
ENDBRANCH  20  21
ENDBRANCH  17  20
ENDBRANCH  13  16
ENDBRANCH   9  10
ENDBRANCH   3   9
TORSDOF 5
ENDMDL
MODEL 4
REMARK VINA RESULT:      -7.6      4.853      8.779
REMARK  5 active torsions:
REMARK  status: ('A' for Active; 'I' for Inactive)
REMARK    1  A    between atoms: C_3  and  O_4 
REMARK    2  A    between atoms: O_4  and  C_5 
REMARK    3  A    between atoms: C_8  and  N_9 
REMARK       I    between atoms: N_9  and  C_10 
REMARK    4  A    between atoms: C_10  and  C_11 
REMARK    5  A    between atoms: C_11  and  C_12 
ROOT
HETATM    1  C   UNL     1      43.704 -19.003   7.720  1.00  0.00     0.004 A 
HETATM    2  C   UNL     1      43.651 -19.519   6.425  1.00  0.00     0.037 A 
HETATM    3  C   UNL     1      43.790 -18.669   5.325  1.00  0.00     0.077 A 
HETATM    4  C   UNL     1      44.012 -17.303   5.517  1.00  0.00     0.059 A 
HETATM    5  C   UNL     1      44.073 -16.785   6.816  1.00  0.00     0.047 A 
HETATM    6  C   UNL     1      44.314 -15.387   7.020  1.00  0.00     0.099 C 
HETATM    7  N   UNL     1      44.512 -14.256   7.191  1.00  0.00    -0.191 NA
HETATM    8  C   UNL     1      43.914 -17.637   7.916  1.00  0.00     0.023 A 
ENDROOT
BRANCH   3   9
HETATM    9  O   UNL     1      43.790 -19.263   4.083  1.00  0.00    -0.311 OA
BRANCH   9  10
HETATM   10  C   UNL     1      43.310 -18.502   3.045  1.00  0.00     0.076 A 
HETATM   11  C   UNL     1      44.172 -18.167   2.004  1.00  0.00     0.039 A 
HETATM   12  C   UNL     1      43.694 -17.436   0.912  1.00  0.00     0.032 A 
HETATM   13  C   UNL     1      42.349 -17.064   0.841  1.00  0.00     0.034 A 
HETATM   14  C   UNL     1      41.486 -17.436   1.883  1.00  0.00     0.032 A 
HETATM   15  C   UNL     1      41.964 -18.153   2.984  1.00  0.00     0.039 A 
BRANCH  13  16
HETATM   16  N   UNL     1      41.786 -16.348  -0.238  1.00  0.00    -0.327 N 
HETATM   17  C   UNL     1      41.418 -15.009  -0.262  1.00  0.00     0.227 C 
HETATM   18  O   UNL     1      41.449 -14.244   0.699  1.00  0.00    -0.273 OA
HETATM   19  H   UNL     1      41.604 -16.886  -1.076  1.00  0.00     0.169 HD
BRANCH  17  20
HETATM   20  C   UNL     1      40.890 -14.586  -1.637  1.00  0.00     0.159 C 
BRANCH  20  21
HETATM   21  C   UNL     1      41.577 -13.392  -2.230  1.00  0.00     0.017 A 
HETATM   22  N   UNL     1      42.316 -12.500  -1.485  1.00  0.00    -0.369 N 
HETATM   23  H   UNL     1      42.488 -12.593  -0.487  1.00  0.00     0.165 HD
HETATM   24  C   UNL     1      42.800 -11.506  -2.293  1.00  0.00     0.088 A 
HETATM   25  C   UNL     1      42.367 -11.753  -3.575  1.00  0.00     0.019 A 
HETATM   26  C   UNL     1      41.596 -12.940  -3.538  1.00  0.00     0.027 A 
ENDBRANCH  20  21
ENDBRANCH  17  20
ENDBRANCH  13  16
ENDBRANCH   9  10
ENDBRANCH   3   9
TORSDOF 5
ENDMDL
MODEL 5
REMARK VINA RESULT:      -7.6      6.126      8.603
REMARK  5 active torsions:
REMARK  status: ('A' for Active; 'I' for Inactive)
REMARK    1  A    between atoms: C_3  and  O_4 
REMARK    2  A    between atoms: O_4  and  C_5 
REMARK    3  A    between atoms: C_8  and  N_9 
REMARK       I    between atoms: N_9  and  C_10 
REMARK    4  A    between atoms: C_10  and  C_11 
REMARK    5  A    between atoms: C_11  and  C_12 
ROOT
HETATM    1  C   UNL     1      44.612 -20.231   5.548  1.00  0.00     0.004 A 
HETATM    2  C   UNL     1      44.408 -18.862   5.373  1.00  0.00     0.037 A 
HETATM    3  C   UNL     1      44.151 -18.349   4.100  1.00  0.00     0.077 A 
HETATM    4  C   UNL     1      44.066 -19.208   3.001  1.00  0.00     0.059 A 
HETATM    5  C   UNL     1      44.264 -20.582   3.177  1.00  0.00     0.047 A 
HETATM    6  C   UNL     1      44.165 -21.470   2.056  1.00  0.00     0.099 C 
HETATM    7  N   UNL     1      44.084 -22.194   1.152  1.00  0.00    -0.191 NA
HETATM    8  C   UNL     1      44.540 -21.091   4.452  1.00  0.00     0.023 A 
ENDROOT
BRANCH   3   9
HETATM    9  O   UNL     1      43.897 -16.998   4.019  1.00  0.00    -0.311 OA
BRANCH   9  10
HETATM   10  C   UNL     1      42.873 -16.621   3.186  1.00  0.00     0.076 A 
HETATM   11  C   UNL     1      41.570 -16.980   3.520  1.00  0.00     0.039 A 
HETATM   12  C   UNL     1      40.505 -16.565   2.715  1.00  0.00     0.032 A 
HETATM   13  C   UNL     1      40.733 -15.765   1.592  1.00  0.00     0.034 A 
HETATM   14  C   UNL     1      42.049 -15.384   1.287  1.00  0.00     0.032 A 
HETATM   15  C   UNL     1      43.118 -15.811   2.080  1.00  0.00     0.039 A 
BRANCH  13  16
HETATM   16  N   UNL     1      39.710 -15.285   0.746  1.00  0.00    -0.327 N 
HETATM   17  C   UNL     1      38.851 -14.219   0.982  1.00  0.00     0.227 C 
HETATM   18  O   UNL     1      38.793 -13.567   2.021  1.00  0.00    -0.273 OA
HETATM   19  H   UNL     1      39.572 -15.801  -0.115  1.00  0.00     0.169 HD
BRANCH  17  20
HETATM   20  C   UNL     1      37.907 -13.974  -0.201  1.00  0.00     0.159 C 
BRANCH  20  21
HETATM   21  C   UNL     1      38.586 -13.912  -1.538  1.00  0.00     0.017 A 
HETATM   22  N   UNL     1      38.423 -14.872  -2.512  1.00  0.00    -0.369 N 
HETATM   23  H   UNL     1      37.807 -15.677  -2.424  1.00  0.00     0.165 HD
HETATM   24  C   UNL     1      39.180 -14.557  -3.608  1.00  0.00     0.088 A 
HETATM   25  C   UNL     1      39.845 -13.384  -3.342  1.00  0.00     0.019 A 
HETATM   26  C   UNL     1      39.473 -12.975  -2.038  1.00  0.00     0.027 A 
ENDBRANCH  20  21
ENDBRANCH  17  20
ENDBRANCH  13  16
ENDBRANCH   9  10
ENDBRANCH   3   9
TORSDOF 5
ENDMDL
MODEL 6
REMARK VINA RESULT:      -7.4      5.438      9.487
REMARK  5 active torsions:
REMARK  status: ('A' for Active; 'I' for Inactive)
REMARK    1  A    between atoms: C_3  and  O_4 
REMARK    2  A    between atoms: O_4  and  C_5 
REMARK    3  A    between atoms: C_8  and  N_9 
REMARK       I    between atoms: N_9  and  C_10 
REMARK    4  A    between atoms: C_10  and  C_11 
REMARK    5  A    between atoms: C_11  and  C_12 
ROOT
HETATM    1  C   UNL     1      44.948 -18.626   6.054  1.00  0.00     0.004 A 
HETATM    2  C   UNL     1      43.773 -18.888   5.349  1.00  0.00     0.037 A 
HETATM    3  C   UNL     1      42.803 -17.893   5.209  1.00  0.00     0.077 A 
HETATM    4  C   UNL     1      43.018 -16.623   5.748  1.00  0.00     0.059 A 
HETATM    5  C   UNL     1      44.199 -16.357   6.450  1.00  0.00     0.047 A 
HETATM    6  C   UNL     1      44.432 -15.051   6.994  1.00  0.00     0.099 C 
HETATM    7  N   UNL     1      44.626 -13.995   7.434  1.00  0.00    -0.191 NA
HETATM    8  C   UNL     1      45.162 -17.362   6.604  1.00  0.00     0.023 A 
ENDROOT
BRANCH   3   9
HETATM    9  O   UNL     1      41.701 -18.209   4.446  1.00  0.00    -0.311 OA
BRANCH   9  10
HETATM   10  C   UNL     1      41.638 -17.632   3.202  1.00  0.00     0.076 A 
HETATM   11  C   UNL     1      42.609 -17.960   2.260  1.00  0.00     0.039 A 
HETATM   12  C   UNL     1      42.539 -17.424   0.970  1.00  0.00     0.032 A 
HETATM   13  C   UNL     1      41.482 -16.584   0.607  1.00  0.00     0.034 A 
HETATM   14  C   UNL     1      40.493 -16.289   1.558  1.00  0.00     0.032 A 
HETATM   15  C   UNL     1      40.570 -16.809   2.854  1.00  0.00     0.039 A 
BRANCH  13  16
HETATM   16  N   UNL     1      41.327 -16.025  -0.680  1.00  0.00    -0.327 N 
HETATM   17  C   UNL     1      41.477 -14.693  -1.045  1.00  0.00     0.227 C 
HETATM   18  O   UNL     1      41.692 -13.762  -0.273  1.00  0.00    -0.273 OA
HETATM   19  H   UNL     1      41.043 -16.669  -1.409  1.00  0.00     0.169 HD
BRANCH  17  20
HETATM   20  C   UNL     1      41.275 -14.488  -2.550  1.00  0.00     0.159 C 
BRANCH  20  21
HETATM   21  C   UNL     1      39.857 -14.638  -3.016  1.00  0.00     0.017 A 
HETATM   22  N   UNL     1      39.371 -15.789  -3.596  1.00  0.00    -0.369 N 
HETATM   23  H   UNL     1      39.915 -16.639  -3.722  1.00  0.00     0.165 HD
HETATM   24  C   UNL     1      38.056 -15.620  -3.936  1.00  0.00     0.088 A 
HETATM   25  C   UNL     1      37.685 -14.345  -3.578  1.00  0.00     0.019 A 
HETATM   26  C   UNL     1      38.818 -13.724  -2.999  1.00  0.00     0.027 A 
ENDBRANCH  20  21
ENDBRANCH  17  20
ENDBRANCH  13  16
ENDBRANCH   9  10
ENDBRANCH   3   9
TORSDOF 5
ENDMDL
MODEL 7
REMARK VINA RESULT:      -7.4      5.826      9.165
REMARK  5 active torsions:
REMARK  status: ('A' for Active; 'I' for Inactive)
REMARK    1  A    between atoms: C_3  and  O_4 
REMARK    2  A    between atoms: O_4  and  C_5 
REMARK    3  A    between atoms: C_8  and  N_9 
REMARK       I    between atoms: N_9  and  C_10 
REMARK    4  A    between atoms: C_10  and  C_11 
REMARK    5  A    between atoms: C_11  and  C_12 
ROOT
HETATM    1  C   UNL     1      44.663 -17.201   6.615  1.00  0.00     0.004 A 
HETATM    2  C   UNL     1      43.552 -16.656   5.971  1.00  0.00     0.037 A 
HETATM    3  C   UNL     1      42.853 -17.406   5.023  1.00  0.00     0.077 A 
HETATM    4  C   UNL     1      43.244 -18.717   4.738  1.00  0.00     0.059 A 
HETATM    5  C   UNL     1      44.354 -19.267   5.389  1.00  0.00     0.047 A 
HETATM    6  C   UNL     1      44.753 -20.616   5.111  1.00  0.00     0.099 C 
HETATM    7  N   UNL     1      45.079 -21.708   4.892  1.00  0.00    -0.191 NA
HETATM    8  C   UNL     1      45.064 -18.505   6.325  1.00  0.00     0.023 A 
ENDROOT
BRANCH   3   9
HETATM    9  O   UNL     1      41.730 -16.822   4.479  1.00  0.00    -0.311 OA
BRANCH   9  10
HETATM   10  C   UNL     1      41.781 -16.546   3.135  1.00  0.00     0.076 A 
HETATM   11  C   UNL     1      41.033 -17.329   2.261  1.00  0.00     0.039 A 
HETATM   12  C   UNL     1      41.028 -17.037   0.893  1.00  0.00     0.032 A 
HETATM   13  C   UNL     1      41.743 -15.942   0.399  1.00  0.00     0.034 A 
HETATM   14  C   UNL     1      42.466 -15.143   1.298  1.00  0.00     0.032 A 
HETATM   15  C   UNL     1      42.487 -15.443   2.663  1.00  0.00     0.039 A 
BRANCH  13  16
HETATM   16  N   UNL     1      41.767 -15.567  -0.962  1.00  0.00    -0.327 N 
HETATM   17  C   UNL     1      40.839 -14.783  -1.637  1.00  0.00     0.227 C 
HETATM   18  O   UNL     1      39.790 -14.354  -1.164  1.00  0.00    -0.273 OA
HETATM   19  H   UNL     1      42.532 -15.941  -1.509  1.00  0.00     0.169 HD
BRANCH  17  20
HETATM   20  C   UNL     1      41.241 -14.555  -3.098  1.00  0.00     0.159 C 
BRANCH  20  21
HETATM   21  C   UNL     1      41.093 -13.140  -3.574  1.00  0.00     0.017 A 
HETATM   22  N   UNL     1      39.880 -12.582  -3.914  1.00  0.00    -0.369 N 
HETATM   23  H   UNL     1      38.988 -13.064  -3.838  1.00  0.00     0.165 HD
HETATM   24  C   UNL     1      40.062 -11.290  -4.330  1.00  0.00     0.088 A 
HETATM   25  C   UNL     1      41.406 -11.008  -4.263  1.00  0.00     0.019 A 
HETATM   26  C   UNL     1      42.058 -12.171  -3.788  1.00  0.00     0.027 A 
ENDBRANCH  20  21
ENDBRANCH  17  20
ENDBRANCH  13  16
ENDBRANCH   9  10
ENDBRANCH   3   9
TORSDOF 5
ENDMDL
MODEL 8
REMARK VINA RESULT:      -7.3      5.354      8.496
REMARK  5 active torsions:
REMARK  status: ('A' for Active; 'I' for Inactive)
REMARK    1  A    between atoms: C_3  and  O_4 
REMARK    2  A    between atoms: O_4  and  C_5 
REMARK    3  A    between atoms: C_8  and  N_9 
REMARK       I    between atoms: N_9  and  C_10 
REMARK    4  A    between atoms: C_10  and  C_11 
REMARK    5  A    between atoms: C_11  and  C_12 
ROOT
HETATM    1  C   UNL     1      41.404 -14.213  -3.211  1.00  0.00     0.004 A 
HETATM    2  C   UNL     1      40.801 -14.931  -2.178  1.00  0.00     0.037 A 
HETATM    3  C   UNL     1      40.964 -14.522  -0.853  1.00  0.00     0.077 A 
HETATM    4  C   UNL     1      41.706 -13.375  -0.558  1.00  0.00     0.059 A 
HETATM    5  C   UNL     1      42.305 -12.650  -1.595  1.00  0.00     0.047 A 
HETATM    6  C   UNL     1      43.056 -11.465  -1.300  1.00  0.00     0.099 C 
HETATM    7  N   UNL     1      43.663 -10.504  -1.067  1.00  0.00    -0.191 NA
HETATM    8  C   UNL     1      42.156 -13.074  -2.921  1.00  0.00     0.023 A 
ENDROOT
BRANCH   3   9
HETATM    9  O   UNL     1      40.286 -15.244   0.104  1.00  0.00    -0.311 OA
BRANCH   9  10
HETATM   10  C   UNL     1      41.039 -16.109   0.859  1.00  0.00     0.076 A 
HETATM   11  C   UNL     1      42.256 -16.556   0.354  1.00  0.00     0.039 A 
HETATM   12  C   UNL     1      43.064 -17.397   1.125  1.00  0.00     0.032 A 
HETATM   13  C   UNL     1      42.675 -17.768   2.415  1.00  0.00     0.034 A 
HETATM   14  C   UNL     1      41.460 -17.283   2.923  1.00  0.00     0.032 A 
HETATM   15  C   UNL     1      40.642 -16.456   2.148  1.00  0.00     0.039 A 
BRANCH  13  16
HETATM   16  N   UNL     1      43.446 -18.592   3.263  1.00  0.00    -0.327 N 
HETATM   17  C   UNL     1      43.966 -19.848   2.976  1.00  0.00     0.227 C 
HETATM   18  O   UNL     1      43.762 -20.485   1.946  1.00  0.00    -0.273 OA
HETATM   19  H   UNL     1      43.609 -18.234   4.197  1.00  0.00     0.169 HD
BRANCH  17  20
HETATM   20  C   UNL     1      44.795 -20.402   4.140  1.00  0.00     0.159 C 
BRANCH  20  21
HETATM   21  C   UNL     1      44.587 -19.695   5.447  1.00  0.00     0.017 A 
HETATM   22  N   UNL     1      45.273 -18.555   5.805  1.00  0.00    -0.369 N 
HETATM   23  H   UNL     1      45.943 -18.080   5.207  1.00  0.00     0.165 HD
HETATM   24  C   UNL     1      44.888 -18.154   7.056  1.00  0.00     0.088 A 
HETATM   25  C   UNL     1      43.947 -19.045   7.517  1.00  0.00     0.019 A 
HETATM   26  C   UNL     1      43.756 -20.017   6.506  1.00  0.00     0.027 A 
ENDBRANCH  20  21
ENDBRANCH  17  20
ENDBRANCH  13  16
ENDBRANCH   9  10
ENDBRANCH   3   9
TORSDOF 5
ENDMDL
MODEL 9
REMARK VINA RESULT:      -7.3      6.164      8.930
REMARK  5 active torsions:
REMARK  status: ('A' for Active; 'I' for Inactive)
REMARK    1  A    between atoms: C_3  and  O_4 
REMARK    2  A    between atoms: O_4  and  C_5 
REMARK    3  A    between atoms: C_8  and  N_9 
REMARK       I    between atoms: N_9  and  C_10 
REMARK    4  A    between atoms: C_10  and  C_11 
REMARK    5  A    between atoms: C_11  and  C_12 
ROOT
HETATM    1  C   UNL     1      44.695 -18.781   5.143  1.00  0.00     0.004 A 
HETATM    2  C   UNL     1      43.632 -17.924   4.861  1.00  0.00     0.037 A 
HETATM    3  C   UNL     1      42.819 -18.157   3.749  1.00  0.00     0.077 A 
HETATM    4  C   UNL     1      43.049 -19.268   2.933  1.00  0.00     0.059 A 
HETATM    5  C   UNL     1      44.112 -20.132   3.219  1.00  0.00     0.047 A 
HETATM    6  C   UNL     1      44.345 -21.281   2.393  1.00  0.00     0.099 C 
HETATM    7  N   UNL     1      44.536 -22.213   1.729  1.00  0.00    -0.191 NA
HETATM    8  C   UNL     1      44.936 -19.885   4.323  1.00  0.00     0.023 A 
ENDROOT
BRANCH   3   9
HETATM    9  O   UNL     1      41.752 -17.304   3.575  1.00  0.00    -0.311 OA
BRANCH   9  10
HETATM   10  C   UNL     1      41.689 -16.650   2.370  1.00  0.00     0.076 A 
HETATM   11  C   UNL     1      42.167 -15.345   2.289  1.00  0.00     0.039 A 
HETATM   12  C   UNL     1      42.160 -14.674   1.062  1.00  0.00     0.032 A 
HETATM   13  C   UNL     1      41.705 -15.315  -0.094  1.00  0.00     0.034 A 
HETATM   14  C   UNL     1      41.257 -16.642  -0.003  1.00  0.00     0.032 A 
HETATM   15  C   UNL     1      41.247 -17.309   1.226  1.00  0.00     0.039 A 
BRANCH  13  16
HETATM   16  N   UNL     1      41.691 -14.716  -1.372  1.00  0.00    -0.327 N 
HETATM   17  C   UNL     1      40.910 -13.646  -1.794  1.00  0.00     0.227 C 
HETATM   18  O   UNL     1      40.035 -13.097  -1.130  1.00  0.00    -0.273 OA
HETATM   19  H   UNL     1      42.297 -15.139  -2.065  1.00  0.00     0.169 HD
BRANCH  17  20
HETATM   20  C   UNL     1      41.219 -13.250  -3.242  1.00  0.00     0.159 C 
BRANCH  20  21
HETATM   21  C   UNL     1      41.769 -11.864  -3.407  1.00  0.00     0.017 A 
HETATM   22  N   UNL     1      41.905 -10.977  -2.361  1.00  0.00    -0.369 N 
HETATM   23  H   UNL     1      41.682 -11.196  -1.394  1.00  0.00     0.165 HD
HETATM   24  C   UNL     1      42.411  -9.791  -2.820  1.00  0.00     0.088 A 
HETATM   25  C   UNL     1      42.602  -9.907  -4.177  1.00  0.00     0.019 A 
HETATM   26  C   UNL     1      42.198 -11.211  -4.549  1.00  0.00     0.027 A 
ENDBRANCH  20  21
ENDBRANCH  17  20
ENDBRANCH  13  16
ENDBRANCH   9  10
ENDBRANCH   3   9
TORSDOF 5
ENDMDL
MODEL 10
REMARK VINA RESULT:      -7.1      5.856      8.101
REMARK  5 active torsions:
REMARK  status: ('A' for Active; 'I' for Inactive)
REMARK    1  A    between atoms: C_3  and  O_4 
REMARK    2  A    between atoms: O_4  and  C_5 
REMARK    3  A    between atoms: C_8  and  N_9 
REMARK       I    between atoms: N_9  and  C_10 
REMARK    4  A    between atoms: C_10  and  C_11 
REMARK    5  A    between atoms: C_11  and  C_12 
ROOT
HETATM    1  C   UNL     1      44.682 -22.239   4.654  1.00  0.00     0.004 A 
HETATM    2  C   UNL     1      44.683 -21.566   3.432  1.00  0.00     0.037 A 
HETATM    3  C   UNL     1      44.449 -20.190   3.390  1.00  0.00     0.077 A 
HETATM    4  C   UNL     1      44.243 -19.477   4.573  1.00  0.00     0.059 A 
HETATM    5  C   UNL     1      44.249 -20.150   5.800  1.00  0.00     0.047 A 
HETATM    6  C   UNL     1      44.051 -19.421   7.019  1.00  0.00     0.099 C 
HETATM    7  N   UNL     1      43.894 -18.835   8.008  1.00  0.00    -0.191 NA
HETATM    8  C   UNL     1      44.465 -21.533   5.838  1.00  0.00     0.023 A 
ENDROOT
BRANCH   3   9
HETATM    9  O   UNL     1      44.529 -19.589   2.153  1.00  0.00    -0.311 OA
BRANCH   9  10
HETATM   10  C   UNL     1      43.649 -18.562   1.919  1.00  0.00     0.076 A 
HETATM   11  C   UNL     1      44.152 -17.281   1.712  1.00  0.00     0.039 A 
HETATM   12  C   UNL     1      43.279 -16.228   1.421  1.00  0.00     0.032 A 
HETATM   13  C   UNL     1      41.905 -16.456   1.306  1.00  0.00     0.034 A 
HETATM   14  C   UNL     1      41.416 -17.759   1.486  1.00  0.00     0.032 A 
HETATM   15  C   UNL     1      42.284 -18.811   1.793  1.00  0.00     0.039 A 
BRANCH  13  16
HETATM   16  N   UNL     1      40.963 -15.452   0.991  1.00  0.00    -0.327 N 
HETATM   17  C   UNL     1      40.641 -14.964  -0.270  1.00  0.00     0.227 C 
HETATM   18  O   UNL     1      41.196 -15.278  -1.319  1.00  0.00    -0.273 OA
HETATM   19  H   UNL     1      40.497 -15.021   1.780  1.00  0.00     0.169 HD
BRANCH  17  20
HETATM   20  C   UNL     1      39.531 -13.909  -0.206  1.00  0.00     0.159 C 
BRANCH  20  21
HETATM   21  C   UNL     1      39.914 -12.565  -0.751  1.00  0.00     0.017 A 
HETATM   22  N   UNL     1      41.186 -12.261  -1.183  1.00  0.00    -0.369 N 
HETATM   23  H   UNL     1      41.956 -12.925  -1.205  1.00  0.00     0.165 HD
HETATM   24  C   UNL     1      41.237 -10.959  -1.603  1.00  0.00     0.088 A 
HETATM   25  C   UNL     1      39.987 -10.411  -1.437  1.00  0.00     0.019 A 
HETATM   26  C   UNL     1      39.152 -11.420  -0.900  1.00  0.00     0.027 A 
ENDBRANCH  20  21
ENDBRANCH  17  20
ENDBRANCH  13  16
ENDBRANCH   9  10
ENDBRANCH   3   9
TORSDOF 5
ENDMDL
