MODEL 1
REMARK VINA RESULT:     -10.4      0.000      0.000
REMARK  9 active torsions:
REMARK  status: ('A' for Active; 'I' for Inactive)
REMARK    1  A    between atoms: C_4  and  C_5 
REMARK    2  A    between atoms: C_16  and  C_17 
REMARK    3  A    between atoms: C_20  and  C_21 
REMARK    4  A    between atoms: C_21  and  N_22 
REMARK    5  A    between atoms: N_22  and  C_23 
REMARK    6  A    between atoms: C_23  and  N_24 
REMARK    7  A    between atoms: N_24  and  C_25 
REMARK    8  A    between atoms: C_27  and  C_28 
REMARK    9  A    between atoms: C_28  and  O_29 
ROOT
HETATM    1  C   UNL     1      40.514 -12.315   4.060  1.00  0.00     0.067 C 
HETATM    2  C   UNL     1      41.592 -11.580   4.876  1.00  0.00     0.001 C 
HETATM    3  C   UNL     1      41.429 -11.825   6.389  1.00  0.00     0.040 C 
HETATM    4  C   UNL     1      40.094 -11.279   6.920  1.00  0.00     0.206 C 
HETATM    5  N   UNL     1      39.252 -10.911   5.701  1.00  0.00    -0.065 N 
HETATM    6  H   UNL     1      38.304 -10.650   6.008  1.00  0.00     0.280 HD
HETATM    7  C   UNL     1      39.133 -12.073   4.714  1.00  0.00     0.246 C 
HETATM    8  C   UNL     1      41.337 -10.063   4.664  1.00  0.00     0.033 C 
HETATM    9  C   UNL     1      39.880  -9.709   5.006  1.00  0.00     0.236 C 
ENDROOT
BRANCH   4  10
HETATM   10  C   UNL     1      39.364 -12.252   7.875  1.00  0.00     0.155 C 
BRANCH  10  11
HETATM   11  N   UNL     1      38.907 -11.588   9.096  1.00  0.00    -0.365 N 
HETATM   12  H   UNL     1      38.146 -12.031   9.602  1.00  0.00     0.161 HD
BRANCH  11  13
HETATM   13  C   UNL     1      39.652 -10.770   9.901  1.00  0.00     0.172 C 
HETATM   14  S   UNL     1      39.509  -9.108   9.977  1.00  0.00    -0.041 SA
BRANCH  13  15
HETATM   15  N   UNL     1      40.604 -11.363  10.680  1.00  0.00    -0.333 N 
HETATM   16  H   UNL     1      40.289 -12.248  11.075  1.00  0.00     0.168 HD
BRANCH  15  17
HETATM   17  C   UNL     1      41.963 -11.055  10.912  1.00  0.00     0.035 A 
HETATM   18  C   UNL     1      43.005 -11.441  10.070  1.00  0.00     0.047 A 
HETATM   19  C   UNL     1      44.339 -11.117  10.366  1.00  0.00     0.041 A 
HETATM   20  C   UNL     1      44.635 -10.421  11.541  1.00  0.00     0.018 A 
HETATM   21  C   UNL     1      43.602 -10.060  12.407  1.00  0.00     0.003 A 
HETATM   22  C   UNL     1      42.277 -10.378  12.095  1.00  0.00     0.029 A 
BRANCH  19  23
HETATM   23  C   UNL     1      45.381 -11.537   9.391  1.00  0.00     0.293 C 
HETATM   24  O   UNL     1      46.200 -10.757   8.922  1.00  0.00    -0.259 OA
BRANCH  23  25
HETATM   25  O   UNL     1      45.282 -12.856   9.114  1.00  0.00    -0.323 OA
HETATM   26  C   UNL     1      45.395 -13.180   7.727  1.00  0.00     0.213 C 
ENDBRANCH  23  25
ENDBRANCH  19  23
ENDBRANCH  15  17
ENDBRANCH  13  15
ENDBRANCH  11  13
ENDBRANCH  10  11
ENDBRANCH   4  10
BRANCH   1  27
HETATM   27  C   UNL     1      40.679 -13.752   3.648  1.00  0.00     0.038 C 
HETATM   28  N   UNL     1      40.079 -14.507   2.667  1.00  0.00    -0.277 N 
HETATM   29  C   UNL     1      38.957 -14.234   1.801  1.00  0.00     0.179 C 
HETATM   30  N   UNL     1      40.677 -15.696   2.482  1.00  0.00    -0.172 NA
HETATM   31  C   UNL     1      41.574 -15.814   3.465  1.00  0.00     0.089 C 
HETATM   32  C   UNL     1      41.585 -14.628   4.232  1.00  0.00     0.061 C 
BRANCH  31  33
HETATM   33  C   UNL     1      42.436 -16.985   3.613  1.00  0.00    -0.005 A 
HETATM   34  C   UNL     1      42.469 -17.979   2.624  1.00  0.00     0.026 A 
HETATM   35  C   UNL     1      43.220 -19.154   2.798  1.00  0.00    -0.025 A 
HETATM   36  C   UNL     1      43.965 -19.331   3.985  1.00  0.00    -0.026 A 
HETATM   37  C   UNL     1      43.237 -20.162   1.820  1.00  0.00     0.012 A 
HETATM   38  C   UNL     1      43.958 -18.319   4.956  1.00  0.00     0.013 A 
HETATM   39  C   UNL     1      44.693 -20.516   4.168  1.00  0.00     0.012 A 
HETATM   40  C   UNL     1      43.203 -17.158   4.771  1.00  0.00     0.014 A 
HETATM   41  C   UNL     1      44.689 -21.514   3.192  1.00  0.00     0.001 A 
HETATM   42  C   UNL     1      43.965 -21.335   2.017  1.00  0.00     0.001 A 
ENDBRANCH  31  33
ENDBRANCH   1  27
TORSDOF 9
ENDMDL
MODEL 2
REMARK VINA RESULT:     -10.3      1.236      2.043
REMARK  9 active torsions:
REMARK  status: ('A' for Active; 'I' for Inactive)
REMARK    1  A    between atoms: C_4  and  C_5 
REMARK    2  A    between atoms: C_16  and  C_17 
REMARK    3  A    between atoms: C_20  and  C_21 
REMARK    4  A    between atoms: C_21  and  N_22 
REMARK    5  A    between atoms: N_22  and  C_23 
REMARK    6  A    between atoms: C_23  and  N_24 
REMARK    7  A    between atoms: N_24  and  C_25 
REMARK    8  A    between atoms: C_27  and  C_28 
REMARK    9  A    between atoms: C_28  and  O_29 
ROOT
HETATM    1  C   UNL     1      40.596 -13.440   4.053  1.00  0.00     0.067 C 
HETATM    2  C   UNL     1      40.939 -12.028   3.545  1.00  0.00     0.001 C 
HETATM    3  C   UNL     1      41.432 -11.116   4.686  1.00  0.00     0.040 C 
HETATM    4  C   UNL     1      40.349 -10.896   5.755  1.00  0.00     0.206 C 
HETATM    5  N   UNL     1      39.226 -11.886   5.456  1.00  0.00    -0.065 N 
HETATM    6  H   UNL     1      38.532 -11.854   6.216  1.00  0.00     0.280 HD
HETATM    7  C   UNL     1      39.743 -13.321   5.338  1.00  0.00     0.246 C 
HETATM    8  C   UNL     1      39.605 -11.406   3.053  1.00  0.00     0.033 C 
HETATM    9  C   UNL     1      38.538 -11.480   4.158  1.00  0.00     0.236 C 
ENDROOT
BRANCH   4  10
HETATM   10  C   UNL     1      40.877 -11.016   7.203  1.00  0.00     0.155 C 
BRANCH  10  11
HETATM   11  N   UNL     1      39.827 -11.403   8.144  1.00  0.00    -0.365 N 
HETATM   12  H   UNL     1      39.475 -12.353   8.074  1.00  0.00     0.161 HD
BRANCH  11  13
HETATM   13  C   UNL     1      39.610 -10.865   9.383  1.00  0.00     0.172 C 
HETATM   14  S   UNL     1      38.515  -9.653   9.726  1.00  0.00    -0.041 SA
BRANCH  13  15
HETATM   15  N   UNL     1      40.374 -11.343  10.410  1.00  0.00    -0.333 N 
HETATM   16  H   UNL     1      39.962 -12.163  10.852  1.00  0.00     0.168 HD
BRANCH  15  17
HETATM   17  C   UNL     1      41.669 -11.005  10.862  1.00  0.00     0.035 A 
HETATM   18  C   UNL     1      42.837 -11.262  10.146  1.00  0.00     0.047 A 
HETATM   19  C   UNL     1      44.097 -10.916  10.660  1.00  0.00     0.041 A 
HETATM   20  C   UNL     1      44.189 -10.331  11.925  1.00  0.00     0.018 A 
HETATM   21  C   UNL     1      43.029 -10.102  12.664  1.00  0.00     0.003 A 
HETATM   22  C   UNL     1      41.778 -10.440  12.137  1.00  0.00     0.029 A 
BRANCH  19  23
HETATM   23  C   UNL     1      45.286 -11.192   9.809  1.00  0.00     0.293 C 
HETATM   24  O   UNL     1      46.102 -10.329   9.511  1.00  0.00    -0.259 OA
BRANCH  23  25
HETATM   25  O   UNL     1      45.319 -12.489   9.429  1.00  0.00    -0.323 OA
HETATM   26  C   UNL     1      46.011 -12.729   8.202  1.00  0.00     0.213 C 
ENDBRANCH  23  25
ENDBRANCH  19  23
ENDBRANCH  15  17
ENDBRANCH  13  15
ENDBRANCH  11  13
ENDBRANCH  10  11
ENDBRANCH   4  10
BRANCH   1  27
HETATM   27  C   UNL     1      41.647 -14.506   4.191  1.00  0.00     0.038 C 
HETATM   28  N   UNL     1      42.708 -14.651   5.055  1.00  0.00    -0.277 N 
HETATM   29  C   UNL     1      43.288 -13.746   6.020  1.00  0.00     0.179 C 
HETATM   30  N   UNL     1      43.274 -15.868   4.990  1.00  0.00    -0.172 NA
HETATM   31  C   UNL     1      42.703 -16.484   3.952  1.00  0.00     0.089 C 
HETATM   32  C   UNL     1      41.699 -15.653   3.409  1.00  0.00     0.061 C 
BRANCH  31  33
HETATM   33  C   UNL     1      43.055 -17.844   3.548  1.00  0.00    -0.005 A 
HETATM   34  C   UNL     1      43.576 -18.756   4.479  1.00  0.00     0.026 A 
HETATM   35  C   UNL     1      44.007 -20.033   4.084  1.00  0.00    -0.025 A 
HETATM   36  C   UNL     1      43.903 -20.411   2.727  1.00  0.00    -0.026 A 
HETATM   37  C   UNL     1      44.550 -20.939   5.010  1.00  0.00     0.012 A 
HETATM   38  C   UNL     1      43.349 -19.510   1.805  1.00  0.00     0.013 A 
HETATM   39  C   UNL     1      44.358 -21.677   2.329  1.00  0.00     0.012 A 
HETATM   40  C   UNL     1      42.929 -18.241   2.212  1.00  0.00     0.014 A 
HETATM   41  C   UNL     1      44.907 -22.562   3.260  1.00  0.00     0.001 A 
HETATM   42  C   UNL     1      44.999 -22.195   4.599  1.00  0.00     0.001 A 
ENDBRANCH  31  33
ENDBRANCH   1  27
TORSDOF 9
ENDMDL
MODEL 3
REMARK VINA RESULT:     -10.2      4.933      8.640
REMARK  9 active torsions:
REMARK  status: ('A' for Active; 'I' for Inactive)
REMARK    1  A    between atoms: C_4  and  C_5 
REMARK    2  A    between atoms: C_16  and  C_17 
REMARK    3  A    between atoms: C_20  and  C_21 
REMARK    4  A    between atoms: C_21  and  N_22 
REMARK    5  A    between atoms: N_22  and  C_23 
REMARK    6  A    between atoms: C_23  and  N_24 
REMARK    7  A    between atoms: N_24  and  C_25 
REMARK    8  A    between atoms: C_27  and  C_28 
REMARK    9  A    between atoms: C_28  and  O_29 
ROOT
HETATM    1  C   UNL     1      41.745 -13.594   5.807  1.00  0.00     0.067 C 
HETATM    2  C   UNL     1      40.244 -13.932   5.787  1.00  0.00     0.001 C 
HETATM    3  C   UNL     1      39.755 -14.278   4.367  1.00  0.00     0.040 C 
HETATM    4  C   UNL     1      39.902 -13.088   3.403  1.00  0.00     0.206 C 
HETATM    5  N   UNL     1      40.742 -12.038   4.124  1.00  0.00    -0.065 N 
HETATM    6  H   UNL     1      40.964 -11.272   3.472  1.00  0.00     0.280 HD
HETATM    7  C   UNL     1      42.058 -12.616   4.649  1.00  0.00     0.246 C 
HETATM    8  C   UNL     1      39.499 -12.630   6.185  1.00  0.00     0.033 C 
HETATM    9  C   UNL     1      39.935 -11.464   5.282  1.00  0.00     0.236 C 
ENDROOT
BRANCH   4  10
HETATM   10  C   UNL     1      40.489 -13.478   2.027  1.00  0.00     0.155 C 
BRANCH  10  11
HETATM   11  N   UNL     1      40.857 -14.891   1.964  1.00  0.00    -0.365 N 
HETATM   12  H   UNL     1      40.211 -15.554   2.382  1.00  0.00     0.161 HD
BRANCH  11  13
HETATM   13  C   UNL     1      41.658 -15.478   1.022  1.00  0.00     0.172 C 
HETATM   14  S   UNL     1      42.118 -17.083   1.018  1.00  0.00    -0.041 SA
BRANCH  13  15
HETATM   15  N   UNL     1      42.138 -14.676   0.026  1.00  0.00    -0.333 N 
HETATM   16  H   UNL     1      43.103 -14.395   0.183  1.00  0.00     0.168 HD
BRANCH  15  17
HETATM   17  C   UNL     1      41.599 -14.297  -1.224  1.00  0.00     0.035 A 
HETATM   18  C   UNL     1      40.602 -15.007  -1.891  1.00  0.00     0.047 A 
HETATM   19  C   UNL     1      40.121 -14.586  -3.142  1.00  0.00     0.041 A 
HETATM   20  C   UNL     1      40.670 -13.452  -3.746  1.00  0.00     0.018 A 
HETATM   21  C   UNL     1      41.692 -12.755  -3.102  1.00  0.00     0.003 A 
HETATM   22  C   UNL     1      42.154 -13.177  -1.851  1.00  0.00     0.029 A 
BRANCH  19  23
HETATM   23  C   UNL     1      39.029 -15.384  -3.762  1.00  0.00     0.293 C 
HETATM   24  O   UNL     1      39.229 -16.197  -4.655  1.00  0.00    -0.259 OA
BRANCH  23  25
HETATM   25  O   UNL     1      37.833 -15.079  -3.211  1.00  0.00    -0.323 OA
HETATM   26  C   UNL     1      36.832 -14.681  -4.150  1.00  0.00     0.213 C 
ENDBRANCH  23  25
ENDBRANCH  19  23
ENDBRANCH  15  17
ENDBRANCH  13  15
ENDBRANCH  11  13
ENDBRANCH  10  11
ENDBRANCH   4  10
BRANCH   1  27
HETATM   27  C   UNL     1      42.794 -14.665   5.915  1.00  0.00     0.038 C 
HETATM   28  N   UNL     1      43.947 -14.758   6.660  1.00  0.00    -0.277 N 
HETATM   29  C   UNL     1      44.646 -13.787   7.468  1.00  0.00     0.179 C 
HETATM   30  N   UNL     1      44.490 -15.988   6.636  1.00  0.00    -0.172 NA
HETATM   31  C   UNL     1      43.795 -16.678   5.728  1.00  0.00     0.089 C 
HETATM   32  C   UNL     1      42.742 -15.876   5.234  1.00  0.00     0.061 C 
BRANCH  31  33
HETATM   33  C   UNL     1      44.083 -18.074   5.405  1.00  0.00    -0.005 A 
HETATM   34  C   UNL     1      44.099 -18.512   4.072  1.00  0.00     0.026 A 
HETATM   35  C   UNL     1      44.281 -19.868   3.754  1.00  0.00    -0.025 A 
HETATM   36  C   UNL     1      44.461 -20.807   4.794  1.00  0.00    -0.026 A 
HETATM   37  C   UNL     1      44.275 -20.313   2.422  1.00  0.00     0.012 A 
HETATM   38  C   UNL     1      44.479 -20.360   6.124  1.00  0.00     0.013 A 
HETATM   39  C   UNL     1      44.615 -22.164   4.477  1.00  0.00     0.012 A 
HETATM   40  C   UNL     1      44.293 -19.008   6.426  1.00  0.00     0.014 A 
HETATM   41  C   UNL     1      44.594 -22.592   3.147  1.00  0.00     0.001 A 
HETATM   42  C   UNL     1      44.429 -21.668   2.121  1.00  0.00     0.001 A 
ENDBRANCH  31  33
ENDBRANCH   1  27
TORSDOF 9
ENDMDL
MODEL 4
REMARK VINA RESULT:     -10.1      4.337      7.840
REMARK  9 active torsions:
REMARK  status: ('A' for Active; 'I' for Inactive)
REMARK    1  A    between atoms: C_4  and  C_5 
REMARK    2  A    between atoms: C_16  and  C_17 
REMARK    3  A    between atoms: C_20  and  C_21 
REMARK    4  A    between atoms: C_21  and  N_22 
REMARK    5  A    between atoms: N_22  and  C_23 
REMARK    6  A    between atoms: C_23  and  N_24 
REMARK    7  A    between atoms: N_24  and  C_25 
REMARK    8  A    between atoms: C_27  and  C_28 
REMARK    9  A    between atoms: C_28  and  O_29 
ROOT
HETATM    1  C   UNL     1      41.780 -13.384   5.901  1.00  0.00     0.067 C 
HETATM    2  C   UNL     1      40.288 -13.687   6.118  1.00  0.00     0.001 C 
HETATM    3  C   UNL     1      39.594 -14.108   4.807  1.00  0.00     0.040 C 
HETATM    4  C   UNL     1      39.617 -12.984   3.757  1.00  0.00     0.206 C 
HETATM    5  N   UNL     1      40.568 -11.912   4.281  1.00  0.00    -0.065 N 
HETATM    6  H   UNL     1      40.705 -11.193   3.556  1.00  0.00     0.280 HD
HETATM    7  C   UNL     1      41.937 -12.487   4.650  1.00  0.00     0.246 C 
HETATM    8  C   UNL     1      39.627 -12.345   6.533  1.00  0.00     0.033 C 
HETATM    9  C   UNL     1      39.945 -11.248   5.504  1.00  0.00     0.236 C 
ENDROOT
BRANCH   4  10
HETATM   10  C   UNL     1      39.994 -13.472   2.339  1.00  0.00     0.155 C 
BRANCH  10  11
HETATM   11  N   UNL     1      40.369 -14.885   2.323  1.00  0.00    -0.365 N 
HETATM   12  H   UNL     1      40.123 -15.436   3.140  1.00  0.00     0.161 HD
BRANCH  11  13
HETATM   13  C   UNL     1      40.541 -15.665   1.212  1.00  0.00     0.172 C 
HETATM   14  S   UNL     1      41.235 -17.183   1.201  1.00  0.00    -0.041 SA
BRANCH  13  15
HETATM   15  N   UNL     1      40.136 -15.142   0.017  1.00  0.00    -0.333 N 
HETATM   16  H   UNL     1      39.123 -15.127  -0.079  1.00  0.00     0.168 HD
BRANCH  15  17
HETATM   17  C   UNL     1      40.845 -14.497  -1.022  1.00  0.00     0.035 A 
HETATM   18  C   UNL     1      41.517 -13.284  -0.872  1.00  0.00     0.047 A 
HETATM   19  C   UNL     1      42.190 -12.687  -1.951  1.00  0.00     0.041 A 
HETATM   20  C   UNL     1      42.162 -13.300  -3.206  1.00  0.00     0.018 A 
HETATM   21  C   UNL     1      41.463 -14.496  -3.373  1.00  0.00     0.003 A 
HETATM   22  C   UNL     1      40.808 -15.088  -2.289  1.00  0.00     0.029 A 
BRANCH  19  23
HETATM   23  C   UNL     1      42.912 -11.413  -1.689  1.00  0.00     0.293 C 
HETATM   24  O   UNL     1      43.470 -11.175  -0.626  1.00  0.00    -0.259 OA
BRANCH  23  25
HETATM   25  O   UNL     1      42.852 -10.594  -2.763  1.00  0.00    -0.323 OA
HETATM   26  C   UNL     1      41.823  -9.605  -2.696  1.00  0.00     0.213 C 
ENDBRANCH  23  25
ENDBRANCH  19  23
ENDBRANCH  15  17
ENDBRANCH  13  15
ENDBRANCH  11  13
ENDBRANCH  10  11
ENDBRANCH   4  10
BRANCH   1  27
HETATM   27  C   UNL     1      42.818 -14.471   5.927  1.00  0.00     0.038 C 
HETATM   28  N   UNL     1      43.947 -14.654   6.693  1.00  0.00    -0.277 N 
HETATM   29  C   UNL     1      44.625 -13.781   7.621  1.00  0.00     0.179 C 
HETATM   30  N   UNL     1      44.481 -15.879   6.555  1.00  0.00    -0.172 NA
HETATM   31  C   UNL     1      43.811 -16.463   5.558  1.00  0.00     0.089 C 
HETATM   32  C   UNL     1      42.780 -15.602   5.120  1.00  0.00     0.061 C 
BRANCH  31  33
HETATM   33  C   UNL     1      44.100 -17.820   5.098  1.00  0.00    -0.005 A 
HETATM   34  C   UNL     1      43.812 -18.205   3.780  1.00  0.00     0.026 A 
HETATM   35  C   UNL     1      43.997 -19.531   3.353  1.00  0.00    -0.025 A 
HETATM   36  C   UNL     1      44.491 -20.491   4.264  1.00  0.00    -0.026 A 
HETATM   37  C   UNL     1      43.688 -19.925   2.041  1.00  0.00     0.012 A 
HETATM   38  C   UNL     1      44.810 -20.094   5.571  1.00  0.00     0.013 A 
HETATM   39  C   UNL     1      44.649 -21.820   3.844  1.00  0.00     0.012 A 
HETATM   40  C   UNL     1      44.618 -18.772   5.983  1.00  0.00     0.014 A 
HETATM   41  C   UNL     1      44.325 -22.198   2.539  1.00  0.00     0.001 A 
HETATM   42  C   UNL     1      43.850 -21.251   1.638  1.00  0.00     0.001 A 
ENDBRANCH  31  33
ENDBRANCH   1  27
TORSDOF 9
ENDMDL
MODEL 5
REMARK VINA RESULT:     -10.0      5.672      9.518
REMARK  9 active torsions:
REMARK  status: ('A' for Active; 'I' for Inactive)
REMARK    1  A    between atoms: C_4  and  C_5 
REMARK    2  A    between atoms: C_16  and  C_17 
REMARK    3  A    between atoms: C_20  and  C_21 
REMARK    4  A    between atoms: C_21  and  N_22 
REMARK    5  A    between atoms: N_22  and  C_23 
REMARK    6  A    between atoms: C_23  and  N_24 
REMARK    7  A    between atoms: N_24  and  C_25 
REMARK    8  A    between atoms: C_27  and  C_28 
REMARK    9  A    between atoms: C_28  and  O_29 
ROOT
HETATM    1  C   UNL     1      39.573 -14.049   2.531  1.00  0.00     0.067 C 
HETATM    2  C   UNL     1      39.198 -14.456   1.095  1.00  0.00     0.001 C 
HETATM    3  C   UNL     1      40.251 -13.982   0.074  1.00  0.00     0.040 C 
HETATM    4  C   UNL     1      40.361 -12.449   0.031  1.00  0.00     0.206 C 
HETATM    5  N   UNL     1      39.570 -11.917   1.223  1.00  0.00    -0.065 N 
HETATM    6  H   UNL     1      39.713 -10.900   1.300  1.00  0.00     0.280 HD
HETATM    7  C   UNL     1      40.007 -12.564   2.538  1.00  0.00     0.246 C 
HETATM    8  C   UNL     1      37.897 -13.683   0.750  1.00  0.00     0.033 C 
HETATM    9  C   UNL     1      38.087 -12.177   0.991  1.00  0.00     0.236 C 
ENDROOT
BRANCH   4  10
HETATM   10  C   UNL     1      41.819 -11.935   0.008  1.00  0.00     0.155 C 
BRANCH  10  11
HETATM   11  N   UNL     1      42.565 -12.441  -1.144  1.00  0.00    -0.365 N 
HETATM   12  H   UNL     1      42.976 -13.366  -1.056  1.00  0.00     0.161 HD
BRANCH  11  13
HETATM   13  C   UNL     1      42.374 -12.087  -2.452  1.00  0.00     0.172 C 
HETATM   14  S   UNL     1      42.452 -10.529  -3.046  1.00  0.00    -0.041 SA
BRANCH  13  15
HETATM   15  N   UNL     1      42.070 -13.088  -3.329  1.00  0.00    -0.333 N 
HETATM   16  H   UNL     1      42.845 -13.310  -3.952  1.00  0.00     0.168 HD
BRANCH  15  17
HETATM   17  C   UNL     1      40.956 -13.952  -3.428  1.00  0.00     0.035 A 
HETATM   18  C   UNL     1      39.641 -13.515  -3.583  1.00  0.00     0.047 A 
HETATM   19  C   UNL     1      38.575 -14.426  -3.658  1.00  0.00     0.041 A 
HETATM   20  C   UNL     1      38.829 -15.795  -3.545  1.00  0.00     0.018 A 
HETATM   21  C   UNL     1      40.137 -16.240  -3.355  1.00  0.00     0.003 A 
HETATM   22  C   UNL     1      41.192 -15.324  -3.295  1.00  0.00     0.029 A 
BRANCH  19  23
HETATM   23  C   UNL     1      37.210 -13.871  -3.862  1.00  0.00     0.293 C 
HETATM   24  O   UNL     1      36.842 -12.818  -3.358  1.00  0.00    -0.259 OA
BRANCH  23  25
HETATM   25  O   UNL     1      36.472 -14.681  -4.654  1.00  0.00    -0.323 OA
HETATM   26  C   UNL     1      35.206 -14.139  -5.037  1.00  0.00     0.213 C 
ENDBRANCH  23  25
ENDBRANCH  19  23
ENDBRANCH  15  17
ENDBRANCH  13  15
ENDBRANCH  11  13
ENDBRANCH  10  11
ENDBRANCH   4  10
BRANCH   1  27
HETATM   27  C   UNL     1      40.489 -14.890   3.376  1.00  0.00     0.038 C 
HETATM   28  N   UNL     1      40.708 -14.940   4.734  1.00  0.00    -0.277 N 
HETATM   29  C   UNL     1      40.262 -14.084   5.807  1.00  0.00     0.179 C 
HETATM   30  N   UNL     1      41.451 -15.996   5.106  1.00  0.00    -0.172 NA
HETATM   31  C   UNL     1      41.882 -16.559   3.975  1.00  0.00     0.089 C 
HETATM   32  C   UNL     1      41.324 -15.879   2.870  1.00  0.00     0.061 C 
BRANCH  31  33
HETATM   33  C   UNL     1      42.732 -17.749   3.957  1.00  0.00    -0.005 A 
HETATM   34  C   UNL     1      42.722 -18.619   2.857  1.00  0.00     0.026 A 
HETATM   35  C   UNL     1      43.462 -19.813   2.867  1.00  0.00    -0.025 A 
HETATM   36  C   UNL     1      44.239 -20.138   4.002  1.00  0.00    -0.026 A 
HETATM   37  C   UNL     1      43.436 -20.698   1.777  1.00  0.00     0.012 A 
HETATM   38  C   UNL     1      44.273 -19.248   5.086  1.00  0.00     0.013 A 
HETATM   39  C   UNL     1      44.955 -21.344   4.022  1.00  0.00     0.012 A 
HETATM   40  C   UNL     1      43.529 -18.066   5.063  1.00  0.00     0.014 A 
HETATM   41  C   UNL     1      44.909 -22.219   2.934  1.00  0.00     0.001 A 
HETATM   42  C   UNL     1      44.154 -21.895   1.812  1.00  0.00     0.001 A 
ENDBRANCH  31  33
ENDBRANCH   1  27
TORSDOF 9
ENDMDL
MODEL 6
REMARK VINA RESULT:      -9.8      3.302      4.690
REMARK  9 active torsions:
REMARK  status: ('A' for Active; 'I' for Inactive)
REMARK    1  A    between atoms: C_4  and  C_5 
REMARK    2  A    between atoms: C_16  and  C_17 
REMARK    3  A    between atoms: C_20  and  C_21 
REMARK    4  A    between atoms: C_21  and  N_22 
REMARK    5  A    between atoms: N_22  and  C_23 
REMARK    6  A    between atoms: C_23  and  N_24 
REMARK    7  A    between atoms: N_24  and  C_25 
REMARK    8  A    between atoms: C_27  and  C_28 
REMARK    9  A    between atoms: C_28  and  O_29 
ROOT
HETATM    1  C   UNL     1      38.800 -13.364  -0.062  1.00  0.00     0.067 C 
HETATM    2  C   UNL     1      39.284 -11.918  -0.269  1.00  0.00     0.001 C 
HETATM    3  C   UNL     1      39.519 -11.197   1.073  1.00  0.00     0.040 C 
HETATM    4  C   UNL     1      38.223 -11.064   1.890  1.00  0.00     0.206 C 
HETATM    5  N   UNL     1      37.179 -11.941   1.205  1.00  0.00    -0.065 N 
HETATM    6  H   UNL     1      36.328 -11.974   1.785  1.00  0.00     0.280 HD
HETATM    7  C   UNL     1      37.676 -13.373   1.001  1.00  0.00     0.246 C 
HETATM    8  C   UNL     1      38.113 -11.163  -0.955  1.00  0.00     0.033 C 
HETATM    9  C   UNL     1      36.818 -11.327  -0.142  1.00  0.00     0.236 C 
ENDROOT
BRANCH   4  10
HETATM   10  C   UNL     1      38.399 -11.407   3.387  1.00  0.00     0.155 C 
BRANCH  10  11
HETATM   11  N   UNL     1      39.164 -10.386   4.101  1.00  0.00    -0.365 N 
HETATM   12  H   UNL     1      38.651  -9.573   4.430  1.00  0.00     0.161 HD
BRANCH  11  13
HETATM   13  C   UNL     1      40.318 -10.585   4.808  1.00  0.00     0.172 C 
HETATM   14  S   UNL     1      41.412  -9.393   5.218  1.00  0.00    -0.041 SA
BRANCH  13  15
HETATM   15  N   UNL     1      40.606 -11.868   5.181  1.00  0.00    -0.333 N 
HETATM   16  H   UNL     1      39.805 -12.342   5.594  1.00  0.00     0.168 HD
BRANCH  15  17
HETATM   17  C   UNL     1      41.740 -12.683   4.967  1.00  0.00     0.035 A 
HETATM   18  C   UNL     1      42.503 -13.241   5.992  1.00  0.00     0.047 A 
HETATM   19  C   UNL     1      43.631 -14.030   5.712  1.00  0.00     0.041 A 
HETATM   20  C   UNL     1      44.017 -14.235   4.385  1.00  0.00     0.018 A 
HETATM   21  C   UNL     1      43.280 -13.651   3.355  1.00  0.00     0.003 A 
HETATM   22  C   UNL     1      42.151 -12.879   3.645  1.00  0.00     0.029 A 
BRANCH  19  23
HETATM   23  C   UNL     1      44.363 -14.617   6.867  1.00  0.00     0.293 C 
HETATM   24  O   UNL     1      44.908 -13.932   7.722  1.00  0.00    -0.259 OA
BRANCH  23  25
HETATM   25  O   UNL     1      44.335 -15.968   6.821  1.00  0.00    -0.323 OA
HETATM   26  C   UNL     1      43.469 -16.574   7.783  1.00  0.00     0.213 C 
ENDBRANCH  23  25
ENDBRANCH  19  23
ENDBRANCH  15  17
ENDBRANCH  13  15
ENDBRANCH  11  13
ENDBRANCH  10  11
ENDBRANCH   4  10
BRANCH   1  27
HETATM   27  C   UNL     1      39.767 -14.495   0.155  1.00  0.00     0.038 C 
HETATM   28  N   UNL     1      40.641 -15.139  -0.689  1.00  0.00    -0.277 N 
HETATM   29  C   UNL     1      40.815 -15.070  -2.121  1.00  0.00     0.179 C 
HETATM   30  N   UNL     1      41.493 -15.952  -0.042  1.00  0.00    -0.172 NA
HETATM   31  C   UNL     1      41.073 -15.990   1.226  1.00  0.00     0.089 C 
HETATM   32  C   UNL     1      39.977 -15.113   1.382  1.00  0.00     0.061 C 
BRANCH  31  33
HETATM   33  C   UNL     1      41.744 -16.778   2.258  1.00  0.00    -0.005 A 
HETATM   34  C   UNL     1      42.741 -17.704   1.917  1.00  0.00     0.026 A 
HETATM   35  C   UNL     1      43.326 -18.534   2.888  1.00  0.00    -0.025 A 
HETATM   36  C   UNL     1      42.911 -18.426   4.234  1.00  0.00    -0.026 A 
HETATM   37  C   UNL     1      44.308 -19.479   2.546  1.00  0.00     0.012 A 
HETATM   38  C   UNL     1      41.939 -17.474   4.577  1.00  0.00     0.013 A 
HETATM   39  C   UNL     1      43.476 -19.274   5.198  1.00  0.00     0.012 A 
HETATM   40  C   UNL     1      41.363 -16.658   3.600  1.00  0.00     0.014 A 
HETATM   41  C   UNL     1      44.442 -20.217   4.839  1.00  0.00     0.001 A 
HETATM   42  C   UNL     1      44.860 -20.316   3.516  1.00  0.00     0.001 A 
ENDBRANCH  31  33
ENDBRANCH   1  27
TORSDOF 9
ENDMDL
MODEL 7
REMARK VINA RESULT:      -9.6      2.880      4.683
REMARK  9 active torsions:
REMARK  status: ('A' for Active; 'I' for Inactive)
REMARK    1  A    between atoms: C_4  and  C_5 
REMARK    2  A    between atoms: C_16  and  C_17 
REMARK    3  A    between atoms: C_20  and  C_21 
REMARK    4  A    between atoms: C_21  and  N_22 
REMARK    5  A    between atoms: N_22  and  C_23 
REMARK    6  A    between atoms: C_23  and  N_24 
REMARK    7  A    between atoms: N_24  and  C_25 
REMARK    8  A    between atoms: C_27  and  C_28 
REMARK    9  A    between atoms: C_28  and  O_29 
ROOT
HETATM    1  C   UNL     1      39.795 -14.528   0.465  1.00  0.00     0.067 C 
HETATM    2  C   UNL     1      39.781 -13.243  -0.381  1.00  0.00     0.001 C 
HETATM    3  C   UNL     1      39.567 -11.989   0.489  1.00  0.00     0.040 C 
HETATM    4  C   UNL     1      38.202 -12.007   1.198  1.00  0.00     0.206 C 
HETATM    5  N   UNL     1      37.626 -13.407   1.009  1.00  0.00    -0.065 N 
HETATM    6  H   UNL     1      36.766 -13.500   1.568  1.00  0.00     0.280 HD
HETATM    7  C   UNL     1      38.605 -14.496   1.453  1.00  0.00     0.246 C 
HETATM    8  C   UNL     1      38.531 -13.340  -1.297  1.00  0.00     0.033 C 
HETATM    9  C   UNL     1      37.270 -13.605  -0.459  1.00  0.00     0.236 C 
ENDROOT
BRANCH   4  10
HETATM   10  C   UNL     1      38.274 -11.589   2.685  1.00  0.00     0.155 C 
BRANCH  10  11
HETATM   11  N   UNL     1      39.617 -11.161   3.074  1.00  0.00    -0.365 N 
HETATM   12  H   UNL     1      40.116 -10.563   2.422  1.00  0.00     0.161 HD
BRANCH  11  13
HETATM   13  C   UNL     1      40.088 -11.031   4.352  1.00  0.00     0.172 C 
HETATM   14  S   UNL     1      39.359 -10.139   5.559  1.00  0.00    -0.041 SA
BRANCH  13  15
HETATM   15  N   UNL     1      41.263 -11.663   4.648  1.00  0.00    -0.333 N 
HETATM   16  H   UNL     1      42.067 -11.040   4.585  1.00  0.00     0.168 HD
BRANCH  15  17
HETATM   17  C   UNL     1      41.542 -12.950   5.158  1.00  0.00     0.035 A 
HETATM   18  C   UNL     1      42.785 -13.342   5.653  1.00  0.00     0.047 A 
HETATM   19  C   UNL     1      43.002 -14.644   6.131  1.00  0.00     0.041 A 
HETATM   20  C   UNL     1      41.963 -15.578   6.083  1.00  0.00     0.018 A 
HETATM   21  C   UNL     1      40.726 -15.206   5.557  1.00  0.00     0.003 A 
HETATM   22  C   UNL     1      40.519 -13.902   5.096  1.00  0.00     0.029 A 
BRANCH  19  23
HETATM   23  C   UNL     1      44.349 -14.961   6.676  1.00  0.00     0.293 C 
HETATM   24  O   UNL     1      44.716 -16.105   6.911  1.00  0.00    -0.259 OA
BRANCH  23  25
HETATM   25  O   UNL     1      45.071 -13.834   6.867  1.00  0.00    -0.323 OA
HETATM   26  C   UNL     1      44.907 -13.237   8.155  1.00  0.00     0.213 C 
ENDBRANCH  23  25
ENDBRANCH  19  23
ENDBRANCH  15  17
ENDBRANCH  13  15
ENDBRANCH  11  13
ENDBRANCH  10  11
ENDBRANCH   4  10
BRANCH   1  27
HETATM   27  C   UNL     1      41.049 -15.016   1.137  1.00  0.00     0.038 C 
HETATM   28  N   UNL     1      42.089 -14.353   1.746  1.00  0.00    -0.277 N 
HETATM   29  C   UNL     1      42.428 -12.951   1.804  1.00  0.00     0.179 C 
HETATM   30  N   UNL     1      42.909 -15.175   2.424  1.00  0.00    -0.172 NA
HETATM   31  C   UNL     1      42.518 -16.416   2.122  1.00  0.00     0.089 C 
HETATM   32  C   UNL     1      41.374 -16.358   1.296  1.00  0.00     0.061 C 
BRANCH  31  33
HETATM   33  C   UNL     1      43.170 -17.606   2.666  1.00  0.00    -0.005 A 
HETATM   34  C   UNL     1      43.207 -18.801   1.931  1.00  0.00     0.026 A 
HETATM   35  C   UNL     1      43.746 -19.976   2.480  1.00  0.00    -0.025 A 
HETATM   36  C   UNL     1      44.271 -19.952   3.792  1.00  0.00    -0.026 A 
HETATM   37  C   UNL     1      43.764 -21.179   1.756  1.00  0.00     0.012 A 
HETATM   38  C   UNL     1      44.264 -18.746   4.510  1.00  0.00     0.013 A 
HETATM   39  C   UNL     1      44.784 -21.132   4.348  1.00  0.00     0.012 A 
HETATM   40  C   UNL     1      43.721 -17.586   3.952  1.00  0.00     0.014 A 
HETATM   41  C   UNL     1      44.783 -22.323   3.620  1.00  0.00     0.001 A 
HETATM   42  C   UNL     1      44.277 -22.346   2.324  1.00  0.00     0.001 A 
ENDBRANCH  31  33
ENDBRANCH   1  27
TORSDOF 9
ENDMDL
MODEL 8
REMARK VINA RESULT:      -9.1      4.814      8.117
REMARK  9 active torsions:
REMARK  status: ('A' for Active; 'I' for Inactive)
REMARK    1  A    between atoms: C_4  and  C_5 
REMARK    2  A    between atoms: C_16  and  C_17 
REMARK    3  A    between atoms: C_20  and  C_21 
REMARK    4  A    between atoms: C_21  and  N_22 
REMARK    5  A    between atoms: N_22  and  C_23 
REMARK    6  A    between atoms: C_23  and  N_24 
REMARK    7  A    between atoms: N_24  and  C_25 
REMARK    8  A    between atoms: C_27  and  C_28 
REMARK    9  A    between atoms: C_28  and  O_29 
ROOT
HETATM    1  C   UNL     1      41.530 -13.490   5.667  1.00  0.00     0.067 C 
HETATM    2  C   UNL     1      40.093 -13.827   5.234  1.00  0.00     0.001 C 
HETATM    3  C   UNL     1      39.932 -13.781   3.701  1.00  0.00     0.040 C 
HETATM    4  C   UNL     1      40.192 -12.375   3.137  1.00  0.00     0.206 C 
HETATM    5  N   UNL     1      40.791 -11.549   4.273  1.00  0.00    -0.065 N 
HETATM    6  H   UNL     1      41.089 -10.633   3.907  1.00  0.00     0.280 HD
HETATM    7  C   UNL     1      42.007 -12.233   4.901  1.00  0.00     0.246 C 
HETATM    8  C   UNL     1      39.194 -12.688   5.787  1.00  0.00     0.033 C 
HETATM    9  C   UNL     1      39.725 -11.318   5.337  1.00  0.00     0.236 C 
ENDROOT
BRANCH   4  10
HETATM   10  C   UNL     1      41.075 -12.371   1.869  1.00  0.00     0.155 C 
BRANCH  10  11
HETATM   11  N   UNL     1      41.478 -11.020   1.480  1.00  0.00    -0.365 N 
HETATM   12  H   UNL     1      42.467 -10.866   1.310  1.00  0.00     0.161 HD
BRANCH  11  13
HETATM   13  C   UNL     1      40.697 -10.095   0.843  1.00  0.00     0.172 C 
HETATM   14  S   UNL     1      39.328  -9.387   1.484  1.00  0.00    -0.041 SA
BRANCH  13  15
HETATM   15  N   UNL     1      41.056  -9.748  -0.429  1.00  0.00    -0.333 N 
HETATM   16  H   UNL     1      41.282  -8.759  -0.514  1.00  0.00     0.168 HD
BRANCH  15  17
HETATM   17  C   UNL     1      41.310 -10.522  -1.584  1.00  0.00     0.035 A 
HETATM   18  C   UNL     1      40.574 -11.650  -1.944  1.00  0.00     0.047 A 
HETATM   19  C   UNL     1      40.888 -12.387  -3.098  1.00  0.00     0.041 A 
HETATM   20  C   UNL     1      41.976 -12.004  -3.885  1.00  0.00     0.018 A 
HETATM   21  C   UNL     1      42.740 -10.897  -3.514  1.00  0.00     0.003 A 
HETATM   22  C   UNL     1      42.410 -10.164  -2.370  1.00  0.00     0.029 A 
BRANCH  19  23
HETATM   23  C   UNL     1      40.024 -13.553  -3.424  1.00  0.00     0.293 C 
HETATM   24  O   UNL     1      38.806 -13.528  -3.308  1.00  0.00    -0.259 OA
BRANCH  23  25
HETATM   25  O   UNL     1      40.766 -14.601  -3.848  1.00  0.00    -0.323 OA
HETATM   26  C   UNL     1      40.921 -15.644  -2.883  1.00  0.00     0.213 C 
ENDBRANCH  23  25
ENDBRANCH  19  23
ENDBRANCH  15  17
ENDBRANCH  13  15
ENDBRANCH  11  13
ENDBRANCH  10  11
ENDBRANCH   4  10
BRANCH   1  27
HETATM   27  C   UNL     1      42.606 -14.539   5.716  1.00  0.00     0.038 C 
HETATM   28  N   UNL     1      43.740 -14.665   6.485  1.00  0.00    -0.277 N 
HETATM   29  C   UNL     1      44.387 -13.748   7.394  1.00  0.00     0.179 C 
HETATM   30  N   UNL     1      44.317 -15.874   6.375  1.00  0.00    -0.172 NA
HETATM   31  C   UNL     1      43.668 -16.502   5.391  1.00  0.00     0.089 C 
HETATM   32  C   UNL     1      42.608 -15.688   4.935  1.00  0.00     0.061 C 
BRANCH  31  33
HETATM   33  C   UNL     1      44.005 -17.858   4.961  1.00  0.00    -0.005 A 
HETATM   34  C   UNL     1      43.702 -18.293   3.662  1.00  0.00     0.026 A 
HETATM   35  C   UNL     1      43.934 -19.621   3.266  1.00  0.00    -0.025 A 
HETATM   36  C   UNL     1      44.492 -20.533   4.190  1.00  0.00    -0.026 A 
HETATM   37  C   UNL     1      43.611 -20.065   1.973  1.00  0.00     0.012 A 
HETATM   38  C   UNL     1      44.825 -20.085   5.478  1.00  0.00     0.013 A 
HETATM   39  C   UNL     1      44.697 -21.865   3.803  1.00  0.00     0.012 A 
HETATM   40  C   UNL     1      44.585 -18.762   5.858  1.00  0.00     0.014 A 
HETATM   41  C   UNL     1      44.359 -22.293   2.517  1.00  0.00     0.001 A 
HETATM   42  C   UNL     1      43.821 -21.394   1.603  1.00  0.00     0.001 A 
ENDBRANCH  31  33
ENDBRANCH   1  27
TORSDOF 9
ENDMDL
MODEL 9
REMARK VINA RESULT:      -9.1      3.905      6.889
REMARK  9 active torsions:
REMARK  status: ('A' for Active; 'I' for Inactive)
REMARK    1  A    between atoms: C_4  and  C_5 
REMARK    2  A    between atoms: C_16  and  C_17 
REMARK    3  A    between atoms: C_20  and  C_21 
REMARK    4  A    between atoms: C_21  and  N_22 
REMARK    5  A    between atoms: N_22  and  C_23 
REMARK    6  A    between atoms: C_23  and  N_24 
REMARK    7  A    between atoms: N_24  and  C_25 
REMARK    8  A    between atoms: C_27  and  C_28 
REMARK    9  A    between atoms: C_28  and  O_29 
ROOT
HETATM    1  C   UNL     1      41.097 -13.429   5.791  1.00  0.00     0.067 C 
HETATM    2  C   UNL     1      39.615 -13.065   5.596  1.00  0.00     0.001 C 
HETATM    3  C   UNL     1      39.437 -11.919   4.580  1.00  0.00     0.040 C 
HETATM    4  C   UNL     1      40.101 -10.617   5.059  1.00  0.00     0.206 C 
HETATM    5  N   UNL     1      40.954 -10.978   6.273  1.00  0.00    -0.065 N 
HETATM    6  H   UNL     1      41.508 -10.158   6.555  1.00  0.00     0.280 HD
HETATM    7  C   UNL     1      41.916 -12.130   5.977  1.00  0.00     0.246 C 
HETATM    8  C   UNL     1      39.123 -12.503   6.957  1.00  0.00     0.033 C 
HETATM    9  C   UNL     1      40.038 -11.360   7.429  1.00  0.00     0.236 C 
ENDROOT
BRANCH   4  10
HETATM   10  C   UNL     1      40.910  -9.895   3.958  1.00  0.00     0.155 C 
BRANCH  10  11
HETATM   11  N   UNL     1      40.048  -9.335   2.917  1.00  0.00    -0.365 N 
HETATM   12  H   UNL     1      39.464  -8.547   3.179  1.00  0.00     0.161 HD
BRANCH  11  13
HETATM   13  C   UNL     1      40.271  -9.383   1.568  1.00  0.00     0.172 C 
HETATM   14  S   UNL     1      41.561  -8.675   0.781  1.00  0.00    -0.041 SA
BRANCH  13  15
HETATM   15  N   UNL     1      39.346 -10.042   0.809  1.00  0.00    -0.333 N 
HETATM   16  H   UNL     1      38.848  -9.420   0.175  1.00  0.00     0.168 HD
BRANCH  15  17
HETATM   17  C   UNL     1      39.066 -11.416   0.641  1.00  0.00     0.035 A 
HETATM   18  C   UNL     1      39.931 -12.320   0.025  1.00  0.00     0.047 A 
HETATM   19  C   UNL     1      39.586 -13.673  -0.126  1.00  0.00     0.041 A 
HETATM   20  C   UNL     1      38.340 -14.120   0.321  1.00  0.00     0.018 A 
HETATM   21  C   UNL     1      37.453 -13.217   0.907  1.00  0.00     0.003 A 
HETATM   22  C   UNL     1      37.814 -11.875   1.063  1.00  0.00     0.029 A 
BRANCH  19  23
HETATM   23  C   UNL     1      40.587 -14.571  -0.760  1.00  0.00     0.293 C 
HETATM   24  O   UNL     1      41.619 -14.915  -0.197  1.00  0.00    -0.259 OA
BRANCH  23  25
HETATM   25  O   UNL     1      40.197 -14.929  -2.004  1.00  0.00    -0.323 OA
HETATM   26  C   UNL     1      40.753 -14.130  -3.051  1.00  0.00     0.213 C 
ENDBRANCH  23  25
ENDBRANCH  19  23
ENDBRANCH  15  17
ENDBRANCH  13  15
ENDBRANCH  11  13
ENDBRANCH  10  11
ENDBRANCH   4  10
BRANCH   1  27
HETATM   27  C   UNL     1      41.800 -14.391   4.874  1.00  0.00     0.038 C 
HETATM   28  N   UNL     1      42.398 -14.228   3.646  1.00  0.00    -0.277 N 
HETATM   29  C   UNL     1      42.409 -13.115   2.727  1.00  0.00     0.179 C 
HETATM   30  N   UNL     1      43.114 -15.300   3.265  1.00  0.00    -0.172 NA
HETATM   31  C   UNL     1      42.851 -16.255   4.161  1.00  0.00     0.089 C 
HETATM   32  C   UNL     1      42.010 -15.733   5.169  1.00  0.00     0.061 C 
BRANCH  31  33
HETATM   33  C   UNL     1      43.445 -17.589   4.093  1.00  0.00    -0.005 A 
HETATM   34  C   UNL     1      43.252 -18.401   2.965  1.00  0.00     0.026 A 
HETATM   35  C   UNL     1      43.737 -19.719   2.926  1.00  0.00    -0.025 A 
HETATM   36  C   UNL     1      44.440 -20.233   4.039  1.00  0.00    -0.026 A 
HETATM   37  C   UNL     1      43.526 -20.543   1.808  1.00  0.00     0.012 A 
HETATM   38  C   UNL     1      44.660 -19.406   5.151  1.00  0.00     0.013 A 
HETATM   39  C   UNL     1      44.899 -21.558   4.009  1.00  0.00     0.012 A 
HETATM   40  C   UNL     1      44.169 -18.098   5.176  1.00  0.00     0.014 A 
HETATM   41  C   UNL     1      44.670 -22.367   2.895  1.00  0.00     0.001 A 
HETATM   42  C   UNL     1      43.989 -21.859   1.794  1.00  0.00     0.001 A 
ENDBRANCH  31  33
ENDBRANCH   1  27
TORSDOF 9
ENDMDL
MODEL 10
REMARK VINA RESULT:      -9.0      5.984     10.014
REMARK  9 active torsions:
REMARK  status: ('A' for Active; 'I' for Inactive)
REMARK    1  A    between atoms: C_4  and  C_5 
REMARK    2  A    between atoms: C_16  and  C_17 
REMARK    3  A    between atoms: C_20  and  C_21 
REMARK    4  A    between atoms: C_21  and  N_22 
REMARK    5  A    between atoms: N_22  and  C_23 
REMARK    6  A    between atoms: C_23  and  N_24 
REMARK    7  A    between atoms: N_24  and  C_25 
REMARK    8  A    between atoms: C_27  and  C_28 
REMARK    9  A    between atoms: C_28  and  O_29 
ROOT
HETATM    1  C   UNL     1      41.855 -13.227   3.787  1.00  0.00     0.067 C 
HETATM    2  C   UNL     1      40.337 -13.139   4.019  1.00  0.00     0.001 C 
HETATM    3  C   UNL     1      39.553 -13.996   3.005  1.00  0.00     0.040 C 
HETATM    4  C   UNL     1      39.759 -13.511   1.561  1.00  0.00     0.206 C 
HETATM    5  N   UNL     1      40.897 -12.495   1.595  1.00  0.00    -0.065 N 
HETATM    6  H   UNL     1      41.147 -12.230   0.632  1.00  0.00     0.280 HD
HETATM    7  C   UNL     1      42.147 -13.055   2.278  1.00  0.00     0.246 C 
HETATM    8  C   UNL     1      39.937 -11.667   3.725  1.00  0.00     0.033 C 
HETATM    9  C   UNL     1      40.428 -11.246   2.331  1.00  0.00     0.236 C 
ENDROOT
BRANCH   4  10
HETATM   10  C   UNL     1      40.014 -14.656   0.555  1.00  0.00     0.155 C 
BRANCH  10  11
HETATM   11  N   UNL     1      40.472 -14.160  -0.742  1.00  0.00    -0.365 N 
HETATM   12  H   UNL     1      41.406 -13.762  -0.779  1.00  0.00     0.161 HD
BRANCH  11  13
HETATM   13  C   UNL     1      40.050 -14.592  -1.970  1.00  0.00     0.172 C 
HETATM   14  S   UNL     1      41.041 -15.194  -3.171  1.00  0.00    -0.041 SA
BRANCH  13  15
HETATM   15  N   UNL     1      38.714 -14.493  -2.238  1.00  0.00    -0.333 N 
HETATM   16  H   UNL     1      38.150 -15.083  -1.629  1.00  0.00     0.168 HD
BRANCH  15  17
HETATM   17  C   UNL     1      37.980 -13.632  -3.084  1.00  0.00     0.035 A 
HETATM   18  C   UNL     1      36.872 -14.030  -3.831  1.00  0.00     0.047 A 
HETATM   19  C   UNL     1      36.196 -13.127  -4.668  1.00  0.00     0.041 A 
HETATM   20  C   UNL     1      36.658 -11.813  -4.781  1.00  0.00     0.018 A 
HETATM   21  C   UNL     1      37.787 -11.416  -4.065  1.00  0.00     0.003 A 
HETATM   22  C   UNL     1      38.444 -12.320  -3.225  1.00  0.00     0.029 A 
BRANCH  19  23
HETATM   23  C   UNL     1      35.000 -13.629  -5.396  1.00  0.00     0.293 C 
HETATM   24  O   UNL     1      35.023 -13.917  -6.586  1.00  0.00    -0.259 OA
BRANCH  23  25
HETATM   25  O   UNL     1      33.930 -13.710  -4.574  1.00  0.00    -0.323 OA
HETATM   26  C   UNL     1      33.210 -12.486  -4.418  1.00  0.00     0.213 C 
ENDBRANCH  23  25
ENDBRANCH  19  23
ENDBRANCH  15  17
ENDBRANCH  13  15
ENDBRANCH  11  13
ENDBRANCH  10  11
ENDBRANCH   4  10
BRANCH   1  27
HETATM   27  C   UNL     1      42.681 -14.335   4.380  1.00  0.00     0.038 C 
HETATM   28  N   UNL     1      43.307 -14.472   5.597  1.00  0.00    -0.277 N 
HETATM   29  C   UNL     1      43.537 -13.530   6.666  1.00  0.00     0.179 C 
HETATM   30  N   UNL     1      43.754 -15.720   5.820  1.00  0.00    -0.172 NA
HETATM   31  C   UNL     1      43.584 -16.381   4.672  1.00  0.00     0.089 C 
HETATM   32  C   UNL     1      42.940 -15.540   3.737  1.00  0.00     0.061 C 
BRANCH  31  33
HETATM   33  C   UNL     1      43.955 -17.785   4.505  1.00  0.00    -0.005 A 
HETATM   34  C   UNL     1      43.765 -18.435   3.277  1.00  0.00     0.026 A 
HETATM   35  C   UNL     1      44.028 -19.807   3.130  1.00  0.00    -0.025 A 
HETATM   36  C   UNL     1      44.504 -20.544   4.238  1.00  0.00    -0.026 A 
HETATM   37  C   UNL     1      43.817 -20.465   1.908  1.00  0.00     0.012 A 
HETATM   38  C   UNL     1      44.726 -19.883   5.455  1.00  0.00     0.013 A 
HETATM   39  C   UNL     1      44.741 -21.919   4.098  1.00  0.00     0.012 A 
HETATM   40  C   UNL     1      44.456 -18.518   5.587  1.00  0.00     0.014 A 
HETATM   41  C   UNL     1      44.514 -22.561   2.879  1.00  0.00     0.001 A 
HETATM   42  C   UNL     1      44.057 -21.835   1.784  1.00  0.00     0.001 A 
ENDBRANCH  31  33
ENDBRANCH   1  27
TORSDOF 9
ENDMDL
