MODEL 1
REMARK VINA RESULT:      -9.5      0.000      0.000
REMARK  8 active torsions:
REMARK  status: ('A' for Active; 'I' for Inactive)
REMARK    1  A    between atoms: C_4  and  S_5 
REMARK    2  A    between atoms: S_5  and  C_6 
REMARK    3  A    between atoms: C_6  and  C_7 
REMARK       I    between atoms: C_7  and  N_8 
REMARK    4  A    between atoms: N_8  and  C_9 
REMARK    5  A    between atoms: C_20  and  C_21 
REMARK    6  A    between atoms: C_27  and  C_28 
REMARK       I    between atoms: C_28  and  N_29 
REMARK    7  A    between atoms: N_29  and  C_30 
REMARK    8  A    between atoms: C_31  and  O_32 
ROOT
HETATM    1  C   UNL     1      43.713 -14.819   5.551  1.00  0.00     0.069 C 
HETATM    2  C   UNL     1      42.580 -14.261   4.724  1.00  0.00     0.019 C 
HETATM    3  N   UNL     1      42.367 -12.898   4.848  1.00  0.00    -0.353 N 
HETATM    4  C   UNL     1      41.278 -12.211   4.346  1.00  0.00     0.087 C 
HETATM    5  C   UNL     1      40.424 -12.867   3.526  1.00  0.00     0.055 C 
HETATM    6  C   UNL     1      39.112 -12.253   3.064  1.00  0.00     0.019 C 
HETATM    7  N   UNL     1      38.024 -11.745   2.681  1.00  0.00    -0.096 N 
HETATM    8  C   UNL     1      40.770 -14.263   3.011  1.00  0.00     0.104 C 
HETATM    9  C   UNL     1      41.819 -14.983   3.861  1.00  0.00     0.046 C 
HETATM   10  H   UNL     1      42.955 -12.376   5.493  1.00  0.00     0.166 HD
ENDROOT
BRANCH   4  11
HETATM   11  S   UNL     1      41.158 -10.491   4.629  1.00  0.00    -0.102 SA
BRANCH  11  12
HETATM   12  C   UNL     1      40.499 -10.375   6.321  1.00  0.00     0.184 C 
BRANCH  12  13
HETATM   13  C   UNL     1      41.590  -9.992   7.330  1.00  0.00     0.231 C 
HETATM   14  N   UNL     1      42.045 -11.042   8.109  1.00  0.00    -0.326 N 
HETATM   15  H   UNL     1      41.559 -11.922   7.963  1.00  0.00     0.169 HD
HETATM   16  O   UNL     1      42.014  -8.839   7.366  1.00  0.00    -0.272 OA
BRANCH  14  17
HETATM   17  C   UNL     1      43.008 -11.030   9.135  1.00  0.00     0.036 A 
HETATM   18  C   UNL     1      42.823 -10.428  10.379  1.00  0.00     0.053 A 
HETATM   19  C   UNL     1      43.841 -10.481  11.336  1.00  0.00     0.036 A 
HETATM   20 CL   UNL     1      43.612  -9.734  12.871  1.00  0.00    -0.084 Cl
HETATM   21  C   UNL     1      45.042 -11.135  11.069  1.00  0.00     0.024 A 
HETATM   22  C   UNL     1      45.234 -11.737   9.829  1.00  0.00     0.004 A 
HETATM   23  C   UNL     1      44.222 -11.681   8.868  1.00  0.00     0.029 A 
ENDBRANCH  14  17
ENDBRANCH  12  13
ENDBRANCH  11  12
ENDBRANCH   4  11
BRANCH   8  24
HETATM   24  C   UNL     1      41.208 -14.126   1.541  1.00  0.00    -0.044 A 
HETATM   25  C   UNL     1      41.889 -12.980   1.085  1.00  0.00     0.008 A 
HETATM   26  C   UNL     1      42.222 -12.832  -0.261  1.00  0.00     0.001 A 
HETATM   27  C   UNL     1      41.873 -13.818  -1.177  1.00  0.00     0.000 A 
HETATM   28  C   UNL     1      41.187 -14.953  -0.747  1.00  0.00     0.001 A 
HETATM   29  C   UNL     1      40.855 -15.109   0.602  1.00  0.00     0.008 A 
ENDBRANCH   8  24
BRANCH   9  30
HETATM   30  C   UNL     1      41.982 -16.477   3.767  1.00  0.00     0.255 C 
HETATM   31  N   UNL     1      43.116 -16.919   3.117  1.00  0.00    -0.321 N 
HETATM   32  H   UNL     1      43.609 -16.300   2.494  1.00  0.00     0.169 HD
HETATM   33  O   UNL     1      41.079 -17.218   4.149  1.00  0.00    -0.268 OA
BRANCH  31  34
HETATM   34  C   UNL     1      43.540 -18.269   3.086  1.00  0.00     0.068 A 
HETATM   35  C   UNL     1      44.231 -18.888   4.149  1.00  0.00     0.095 A 
HETATM   36  C   UNL     1      44.572 -20.241   4.038  1.00  0.00     0.039 A 
HETATM   37  C   UNL     1      44.267 -20.959   2.878  1.00  0.00     0.003 A 
HETATM   38  C   UNL     1      43.643 -20.327   1.808  1.00  0.00     0.002 A 
HETATM   39  C   UNL     1      43.295 -18.979   1.904  1.00  0.00     0.032 A 
BRANCH  35  40
HETATM   40  O   UNL     1      44.632 -18.080   5.182  1.00  0.00    -0.354 OA
HETATM   41  C   UNL     1      44.357 -18.511   6.506  1.00  0.00     0.210 C 
ENDBRANCH  35  40
ENDBRANCH  31  34
ENDBRANCH   9  30
TORSDOF 8
ENDMDL
MODEL 2
REMARK VINA RESULT:      -9.2      4.812      7.158
REMARK  8 active torsions:
REMARK  status: ('A' for Active; 'I' for Inactive)
REMARK    1  A    between atoms: C_4  and  S_5 
REMARK    2  A    between atoms: S_5  and  C_6 
REMARK    3  A    between atoms: C_6  and  C_7 
REMARK       I    between atoms: C_7  and  N_8 
REMARK    4  A    between atoms: N_8  and  C_9 
REMARK    5  A    between atoms: C_20  and  C_21 
REMARK    6  A    between atoms: C_27  and  C_28 
REMARK       I    between atoms: C_28  and  N_29 
REMARK    7  A    between atoms: N_29  and  C_30 
REMARK    8  A    between atoms: C_31  and  O_32 
ROOT
HETATM    1  C   UNL     1      43.759 -14.017   3.653  1.00  0.00     0.069 C 
HETATM    2  C   UNL     1      42.487 -14.161   2.851  1.00  0.00     0.019 C 
HETATM    3  N   UNL     1      41.621 -13.081   2.910  1.00  0.00    -0.353 N 
HETATM    4  C   UNL     1      40.328 -13.067   2.423  1.00  0.00     0.087 C 
HETATM    5  C   UNL     1      39.906 -14.119   1.683  1.00  0.00     0.055 C 
HETATM    6  C   UNL     1      38.458 -14.277   1.251  1.00  0.00     0.019 C 
HETATM    7  N   UNL     1      37.256 -14.408   0.893  1.00  0.00    -0.096 N 
HETATM    8  C   UNL     1      40.898 -15.190   1.231  1.00  0.00     0.104 C 
HETATM    9  C   UNL     1      42.178 -15.226   2.068  1.00  0.00     0.046 C 
HETATM   10  H   UNL     1      41.878 -12.290   3.495  1.00  0.00     0.166 HD
ENDROOT
BRANCH   4  11
HETATM   11  S   UNL     1      39.367 -11.621   2.614  1.00  0.00    -0.102 SA
BRANCH  11  12
HETATM   12  C   UNL     1      40.220 -10.392   1.579  1.00  0.00     0.184 C 
BRANCH  12  13
HETATM   13  C   UNL     1      39.998 -10.657   0.083  1.00  0.00     0.231 C 
HETATM   14  N   UNL     1      38.754 -11.179  -0.228  1.00  0.00    -0.326 N 
HETATM   15  H   UNL     1      38.164 -11.380   0.574  1.00  0.00     0.169 HD
HETATM   16  O   UNL     1      40.876 -10.369  -0.727  1.00  0.00    -0.272 OA
BRANCH  14  17
HETATM   17  C   UNL     1      38.242 -11.557  -1.483  1.00  0.00     0.036 A 
HETATM   18  C   UNL     1      38.287 -12.854  -1.991  1.00  0.00     0.053 A 
HETATM   19  C   UNL     1      37.739 -13.129  -3.248  1.00  0.00     0.036 A 
HETATM   20 CL   UNL     1      37.798 -14.732  -3.875  1.00  0.00    -0.084 Cl
HETATM   21  C   UNL     1      37.139 -12.123  -4.004  1.00  0.00     0.024 A 
HETATM   22  C   UNL     1      37.092 -10.825  -3.503  1.00  0.00     0.004 A 
HETATM   23  C   UNL     1      37.644 -10.545  -2.250  1.00  0.00     0.029 A 
ENDBRANCH  14  17
ENDBRANCH  12  13
ENDBRANCH  11  12
ENDBRANCH   4  11
BRANCH   8  24
HETATM   24  C   UNL     1      41.188 -14.960  -0.264  1.00  0.00    -0.044 A 
HETATM   25  C   UNL     1      41.726 -13.742  -0.725  1.00  0.00     0.008 A 
HETATM   26  C   UNL     1      41.923 -13.514  -2.087  1.00  0.00     0.001 A 
HETATM   27  C   UNL     1      41.577 -14.492  -3.013  1.00  0.00     0.000 A 
HETATM   28  C   UNL     1      41.031 -15.699  -2.577  1.00  0.00     0.001 A 
HETATM   29  C   UNL     1      40.837 -15.934  -1.212  1.00  0.00     0.008 A 
ENDBRANCH   8  24
BRANCH   9  30
HETATM   30  C   UNL     1      43.066 -16.442   2.050  1.00  0.00     0.255 C 
HETATM   31  N   UNL     1      42.753 -17.431   2.961  1.00  0.00    -0.321 N 
HETATM   32  H   UNL     1      42.187 -17.210   3.764  1.00  0.00     0.169 HD
HETATM   33  O   UNL     1      44.069 -16.459   1.340  1.00  0.00    -0.268 OA
BRANCH  31  34
HETATM   34  C   UNL     1      43.347 -18.715   2.976  1.00  0.00     0.068 A 
HETATM   35  C   UNL     1      44.226 -19.150   3.990  1.00  0.00     0.095 A 
HETATM   36  C   UNL     1      44.730 -20.455   3.936  1.00  0.00     0.039 A 
HETATM   37  C   UNL     1      44.399 -21.302   2.876  1.00  0.00     0.003 A 
HETATM   38  C   UNL     1      43.583 -20.847   1.845  1.00  0.00     0.002 A 
HETATM   39  C   UNL     1      43.072 -19.550   1.886  1.00  0.00     0.032 A 
BRANCH  35  40
HETATM   40  O   UNL     1      44.626 -18.212   4.908  1.00  0.00    -0.354 OA
HETATM   41  C   UNL     1      44.648 -18.590   6.276  1.00  0.00     0.210 C 
ENDBRANCH  35  40
ENDBRANCH  31  34
ENDBRANCH   9  30
TORSDOF 8
ENDMDL
MODEL 3
REMARK VINA RESULT:      -9.0      1.987      2.456
REMARK  8 active torsions:
REMARK  status: ('A' for Active; 'I' for Inactive)
REMARK    1  A    between atoms: C_4  and  S_5 
REMARK    2  A    between atoms: S_5  and  C_6 
REMARK    3  A    between atoms: C_6  and  C_7 
REMARK       I    between atoms: C_7  and  N_8 
REMARK    4  A    between atoms: N_8  and  C_9 
REMARK    5  A    between atoms: C_20  and  C_21 
REMARK    6  A    between atoms: C_27  and  C_28 
REMARK       I    between atoms: C_28  and  N_29 
REMARK    7  A    between atoms: N_29  and  C_30 
REMARK    8  A    between atoms: C_31  and  O_32 
ROOT
HETATM    1  C   UNL     1      43.911 -14.138   3.728  1.00  0.00     0.069 C 
HETATM    2  C   UNL     1      42.634 -14.190   2.923  1.00  0.00     0.019 C 
HETATM    3  N   UNL     1      41.821 -13.073   3.024  1.00  0.00    -0.353 N 
HETATM    4  C   UNL     1      40.530 -12.979   2.540  1.00  0.00     0.087 C 
HETATM    5  C   UNL     1      40.059 -13.980   1.761  1.00  0.00     0.055 C 
HETATM    6  C   UNL     1      38.604 -14.052   1.325  1.00  0.00     0.019 C 
HETATM    7  N   UNL     1      37.398 -14.113   0.964  1.00  0.00    -0.096 N 
HETATM    8  C   UNL     1      40.999 -15.079   1.266  1.00  0.00     0.104 C 
HETATM    9  C   UNL     1      42.275 -15.208   2.100  1.00  0.00     0.046 C 
HETATM   10  H   UNL     1      42.114 -12.318   3.639  1.00  0.00     0.166 HD
ENDROOT
BRANCH   4  11
HETATM   11  S   UNL     1      39.638 -11.497   2.789  1.00  0.00    -0.102 SA
BRANCH  11  12
HETATM   12  C   UNL     1      38.664 -11.824   4.291  1.00  0.00     0.184 C 
BRANCH  12  13
HETATM   13  C   UNL     1      39.565 -12.066   5.510  1.00  0.00     0.231 C 
HETATM   14  N   UNL     1      39.596 -11.019   6.415  1.00  0.00    -0.326 N 
HETATM   15  H   UNL     1      39.072 -10.196   6.133  1.00  0.00     0.169 HD
HETATM   16  O   UNL     1      40.150 -13.139   5.637  1.00  0.00    -0.272 OA
BRANCH  14  17
HETATM   17  C   UNL     1      40.331 -10.904   7.610  1.00  0.00     0.036 A 
HETATM   18  C   UNL     1      39.767 -10.941   8.885  1.00  0.00     0.053 A 
HETATM   19  C   UNL     1      40.587 -10.829  10.012  1.00  0.00     0.036 A 
HETATM   20 CL   UNL     1      39.888 -10.871  11.586  1.00  0.00    -0.084 Cl
HETATM   21  C   UNL     1      41.967 -10.687   9.882  1.00  0.00     0.024 A 
HETATM   22  C   UNL     1      42.536 -10.649   8.613  1.00  0.00     0.004 A 
HETATM   23  C   UNL     1      41.720 -10.754   7.484  1.00  0.00     0.029 A 
ENDBRANCH  14  17
ENDBRANCH  12  13
ENDBRANCH  11  12
ENDBRANCH   4  11
BRANCH   8  24
HETATM   24  C   UNL     1      41.300 -14.805  -0.219  1.00  0.00    -0.044 A 
HETATM   25  C   UNL     1      41.825 -13.568  -0.643  1.00  0.00     0.008 A 
HETATM   26  C   UNL     1      42.032 -13.302  -1.996  1.00  0.00     0.001 A 
HETATM   27  C   UNL     1      41.708 -14.260  -2.951  1.00  0.00     0.000 A 
HETATM   28  C   UNL     1      41.176 -15.485  -2.552  1.00  0.00     0.001 A 
HETATM   29  C   UNL     1      40.971 -15.759  -1.196  1.00  0.00     0.008 A 
ENDBRANCH   8  24
BRANCH   9  30
HETATM   30  C   UNL     1      43.105 -16.464   2.034  1.00  0.00     0.255 C 
HETATM   31  N   UNL     1      42.841 -17.411   3.001  1.00  0.00    -0.321 N 
HETATM   32  H   UNL     1      42.367 -17.144   3.848  1.00  0.00     0.169 HD
HETATM   33  O   UNL     1      44.031 -16.545   1.230  1.00  0.00    -0.268 OA
BRANCH  31  34
HETATM   34  C   UNL     1      43.378 -18.721   2.999  1.00  0.00     0.068 A 
HETATM   35  C   UNL     1      44.242 -19.205   4.004  1.00  0.00     0.095 A 
HETATM   36  C   UNL     1      44.689 -20.530   3.932  1.00  0.00     0.039 A 
HETATM   37  C   UNL     1      44.315 -21.350   2.864  1.00  0.00     0.003 A 
HETATM   38  C   UNL     1      43.516 -20.848   1.843  1.00  0.00     0.002 A 
HETATM   39  C   UNL     1      43.062 -19.530   1.900  1.00  0.00     0.032 A 
BRANCH  35  40
HETATM   40  O   UNL     1      44.687 -18.297   4.930  1.00  0.00    -0.354 OA
HETATM   41  C   UNL     1      44.556 -18.631   6.303  1.00  0.00     0.210 C 
ENDBRANCH  35  40
ENDBRANCH  31  34
ENDBRANCH   9  30
TORSDOF 8
ENDMDL
MODEL 4
REMARK VINA RESULT:      -9.0      3.139      8.644
REMARK  8 active torsions:
REMARK  status: ('A' for Active; 'I' for Inactive)
REMARK    1  A    between atoms: C_4  and  S_5 
REMARK    2  A    between atoms: S_5  and  C_6 
REMARK    3  A    between atoms: C_6  and  C_7 
REMARK       I    between atoms: C_7  and  N_8 
REMARK    4  A    between atoms: N_8  and  C_9 
REMARK    5  A    between atoms: C_20  and  C_21 
REMARK    6  A    between atoms: C_27  and  C_28 
REMARK       I    between atoms: C_28  and  N_29 
REMARK    7  A    between atoms: N_29  and  C_30 
REMARK    8  A    between atoms: C_31  and  O_32 
ROOT
HETATM    1  C   UNL     1      43.381 -16.314   6.763  1.00  0.00     0.069 C 
HETATM    2  C   UNL     1      42.988 -15.359   5.661  1.00  0.00     0.019 C 
HETATM    3  N   UNL     1      42.302 -15.926   4.599  1.00  0.00    -0.353 N 
HETATM    4  C   UNL     1      42.018 -15.293   3.404  1.00  0.00     0.087 C 
HETATM    5  C   UNL     1      42.272 -13.968   3.299  1.00  0.00     0.055 C 
HETATM    6  C   UNL     1      42.156 -13.223   1.979  1.00  0.00     0.019 C 
HETATM    7  N   UNL     1      42.061 -12.604   0.885  1.00  0.00    -0.096 N 
HETATM    8  C   UNL     1      42.668 -13.160   4.534  1.00  0.00     0.104 C 
HETATM    9  C   UNL     1      43.215 -14.020   5.674  1.00  0.00     0.046 C 
HETATM   10  H   UNL     1      42.135 -16.929   4.615  1.00  0.00     0.166 HD
ENDROOT
BRANCH   4  11
HETATM   11  S   UNL     1      41.170 -16.178   2.158  1.00  0.00    -0.102 SA
BRANCH  11  12
HETATM   12  C   UNL     1      42.456 -16.520   0.917  1.00  0.00     0.184 C 
BRANCH  12  13
HETATM   13  C   UNL     1      43.452 -17.579   1.409  1.00  0.00     0.231 C 
HETATM   14  N   UNL     1      42.870 -18.768   1.813  1.00  0.00    -0.326 N 
HETATM   15  H   UNL     1      41.855 -18.773   1.796  1.00  0.00     0.169 HD
HETATM   16  O   UNL     1      44.659 -17.346   1.380  1.00  0.00    -0.272 OA
BRANCH  14  17
HETATM   17  C   UNL     1      43.486 -19.921   2.336  1.00  0.00     0.036 A 
HETATM   18  C   UNL     1      43.880 -20.067   3.665  1.00  0.00     0.053 A 
HETATM   19  C   UNL     1      44.474 -21.260   4.088  1.00  0.00     0.036 A 
HETATM   20 CL   UNL     1      44.964 -21.437   5.730  1.00  0.00    -0.084 Cl
HETATM   21  C   UNL     1      44.676 -22.314   3.199  1.00  0.00     0.024 A 
HETATM   22  C   UNL     1      44.286 -22.175   1.871  1.00  0.00     0.004 A 
HETATM   23  C   UNL     1      43.697 -20.983   1.443  1.00  0.00     0.029 A 
ENDBRANCH  14  17
ENDBRANCH  12  13
ENDBRANCH  11  12
ENDBRANCH   4  11
BRANCH   8  24
HETATM   24  C   UNL     1      41.444 -12.332   4.966  1.00  0.00    -0.044 A 
HETATM   25  C   UNL     1      41.438 -10.927   4.860  1.00  0.00     0.008 A 
HETATM   26  C   UNL     1      40.353 -10.178   5.316  1.00  0.00     0.001 A 
HETATM   27  C   UNL     1      39.262 -10.816   5.896  1.00  0.00     0.000 A 
HETATM   28  C   UNL     1      39.256 -12.204   6.021  1.00  0.00     0.001 A 
HETATM   29  C   UNL     1      40.338 -12.960   5.561  1.00  0.00     0.008 A 
ENDBRANCH   8  24
BRANCH   9  30
HETATM   30  C   UNL     1      44.024 -13.396   6.780  1.00  0.00     0.255 C 
HETATM   31  N   UNL     1      43.345 -12.519   7.601  1.00  0.00    -0.321 N 
HETATM   32  H   UNL     1      42.484 -12.103   7.286  1.00  0.00     0.169 HD
HETATM   33  O   UNL     1      45.237 -13.587   6.837  1.00  0.00    -0.268 OA
BRANCH  31  34
HETATM   34  C   UNL     1      43.875 -11.976   8.796  1.00  0.00     0.068 A 
HETATM   35  C   UNL     1      43.445 -10.752   9.349  1.00  0.00     0.095 A 
HETATM   36  C   UNL     1      44.004 -10.320  10.557  1.00  0.00     0.039 A 
HETATM   37  C   UNL     1      44.999 -11.070  11.189  1.00  0.00     0.003 A 
HETATM   38  C   UNL     1      45.465 -12.244  10.607  1.00  0.00     0.002 A 
HETATM   39  C   UNL     1      44.917 -12.688   9.404  1.00  0.00     0.032 A 
BRANCH  35  40
HETATM   40  O   UNL     1      42.583 -10.000   8.592  1.00  0.00    -0.354 OA
HETATM   41  C   UNL     1      41.216  -9.970   8.975  1.00  0.00     0.210 C 
ENDBRANCH  35  40
ENDBRANCH  31  34
ENDBRANCH   9  30
TORSDOF 8
ENDMDL
MODEL 5
REMARK VINA RESULT:      -8.9      4.525      6.789
REMARK  8 active torsions:
REMARK  status: ('A' for Active; 'I' for Inactive)
REMARK    1  A    between atoms: C_4  and  S_5 
REMARK    2  A    between atoms: S_5  and  C_6 
REMARK    3  A    between atoms: C_6  and  C_7 
REMARK       I    between atoms: C_7  and  N_8 
REMARK    4  A    between atoms: N_8  and  C_9 
REMARK    5  A    between atoms: C_20  and  C_21 
REMARK    6  A    between atoms: C_27  and  C_28 
REMARK       I    between atoms: C_28  and  N_29 
REMARK    7  A    between atoms: N_29  and  C_30 
REMARK    8  A    between atoms: C_31  and  O_32 
ROOT
HETATM    1  C   UNL     1      43.323 -13.910   4.054  1.00  0.00     0.069 C 
HETATM    2  C   UNL     1      42.125 -14.008   3.140  1.00  0.00     0.019 C 
HETATM    3  N   UNL     1      41.222 -12.961   3.227  1.00  0.00    -0.353 N 
HETATM    4  C   UNL     1      39.972 -12.934   2.638  1.00  0.00     0.087 C 
HETATM    5  C   UNL     1      39.646 -13.920   1.771  1.00  0.00     0.055 C 
HETATM    6  C   UNL     1      38.242 -14.073   1.208  1.00  0.00     0.019 C 
HETATM    7  N   UNL     1      37.078 -14.200   0.742  1.00  0.00    -0.096 N 
HETATM    8  C   UNL     1      40.705 -14.917   1.304  1.00  0.00     0.104 C 
HETATM    9  C   UNL     1      41.914 -15.001   2.238  1.00  0.00     0.046 C 
HETATM   10  H   UNL     1      41.404 -12.224   3.902  1.00  0.00     0.166 HD
ENDROOT
BRANCH   4  11
HETATM   11  S   UNL     1      38.951 -11.538   2.884  1.00  0.00    -0.102 SA
BRANCH  11  12
HETATM   12  C   UNL     1      39.991 -10.140   2.359  1.00  0.00     0.184 C 
BRANCH  12  13
HETATM   13  C   UNL     1      40.435 -10.281   0.896  1.00  0.00     0.231 C 
HETATM   14  N   UNL     1      39.418 -10.618   0.019  1.00  0.00    -0.326 N 
HETATM   15  H   UNL     1      38.519 -10.792   0.456  1.00  0.00     0.169 HD
HETATM   16  O   UNL     1      41.603 -10.058   0.586  1.00  0.00    -0.272 OA
BRANCH  14  17
HETATM   17  C   UNL     1      39.487 -10.848  -1.368  1.00  0.00     0.036 A 
HETATM   18  C   UNL     1      40.253 -10.090  -2.253  1.00  0.00     0.053 A 
HETATM   19  C   UNL     1      40.262 -10.408  -3.614  1.00  0.00     0.036 A 
HETATM   20 CL   UNL     1      41.207  -9.470  -4.706  1.00  0.00    -0.084 Cl
HETATM   21  C   UNL     1      39.516 -11.479  -4.105  1.00  0.00     0.024 A 
HETATM   22  C   UNL     1      38.748 -12.238  -3.228  1.00  0.00     0.004 A 
HETATM   23  C   UNL     1      38.732 -11.921  -1.867  1.00  0.00     0.029 A 
ENDBRANCH  14  17
ENDBRANCH  12  13
ENDBRANCH  11  12
ENDBRANCH   4  11
BRANCH   8  24
HETATM   24  C   UNL     1      41.106 -14.538  -0.133  1.00  0.00    -0.044 A 
HETATM   25  C   UNL     1      40.756 -15.352  -1.229  1.00  0.00     0.008 A 
HETATM   26  C   UNL     1      41.180 -15.038  -2.520  1.00  0.00     0.001 A 
HETATM   27  C   UNL     1      41.970 -13.915  -2.740  1.00  0.00     0.000 A 
HETATM   28  C   UNL     1      42.338 -13.105  -1.666  1.00  0.00     0.001 A 
HETATM   29  C   UNL     1      41.911 -13.411  -0.371  1.00  0.00     0.008 A 
ENDBRANCH   8  24
BRANCH   9  30
HETATM   30  C   UNL     1      42.842 -16.187   2.180  1.00  0.00     0.255 C 
HETATM   31  N   UNL     1      42.586 -17.196   3.085  1.00  0.00    -0.321 N 
HETATM   32  H   UNL     1      42.035 -17.004   3.906  1.00  0.00     0.169 HD
HETATM   33  O   UNL     1      43.825 -16.162   1.442  1.00  0.00    -0.268 OA
BRANCH  31  34
HETATM   34  C   UNL     1      43.222 -18.460   3.068  1.00  0.00     0.068 A 
HETATM   35  C   UNL     1      44.084 -18.908   4.091  1.00  0.00     0.095 A 
HETATM   36  C   UNL     1      44.633 -20.192   4.000  1.00  0.00     0.039 A 
HETATM   37  C   UNL     1      44.362 -21.006   2.896  1.00  0.00     0.003 A 
HETATM   38  C   UNL     1      43.564 -20.535   1.859  1.00  0.00     0.002 A 
HETATM   39  C   UNL     1      43.008 -19.257   1.936  1.00  0.00     0.032 A 
BRANCH  35  40
HETATM   40  O   UNL     1      44.424 -17.997   5.058  1.00  0.00    -0.354 OA
HETATM   41  C   UNL     1      45.204 -18.452   6.153  1.00  0.00     0.210 C 
ENDBRANCH  35  40
ENDBRANCH  31  34
ENDBRANCH   9  30
TORSDOF 8
ENDMDL
MODEL 6
REMARK VINA RESULT:      -8.7      4.815      8.729
REMARK  8 active torsions:
REMARK  status: ('A' for Active; 'I' for Inactive)
REMARK    1  A    between atoms: C_4  and  S_5 
REMARK    2  A    between atoms: S_5  and  C_6 
REMARK    3  A    between atoms: C_6  and  C_7 
REMARK       I    between atoms: C_7  and  N_8 
REMARK    4  A    between atoms: N_8  and  C_9 
REMARK    5  A    between atoms: C_20  and  C_21 
REMARK    6  A    between atoms: C_27  and  C_28 
REMARK       I    between atoms: C_28  and  N_29 
REMARK    7  A    between atoms: N_29  and  C_30 
REMARK    8  A    between atoms: C_31  and  O_32 
ROOT
HETATM    1  C   UNL     1      41.206 -15.470  -1.263  1.00  0.00     0.069 C 
HETATM    2  C   UNL     1      41.124 -14.164  -0.508  1.00  0.00     0.019 C 
HETATM    3  N   UNL     1      41.779 -14.140   0.713  1.00  0.00    -0.353 N 
HETATM    4  C   UNL     1      41.678 -13.134   1.654  1.00  0.00     0.087 C 
HETATM    5  C   UNL     1      41.025 -11.997   1.314  1.00  0.00     0.055 C 
HETATM    6  C   UNL     1      40.712 -10.909   2.329  1.00  0.00     0.019 C 
HETATM    7  N   UNL     1      40.451 -10.007   3.169  1.00  0.00    -0.096 N 
HETATM    8  C   UNL     1      40.596 -11.758  -0.132  1.00  0.00     0.104 C 
HETATM    9  C   UNL     1      40.511 -13.041  -0.962  1.00  0.00     0.046 C 
HETATM   10  H   UNL     1      42.240 -14.990   1.028  1.00  0.00     0.166 HD
ENDROOT
BRANCH   4  11
HETATM   11  S   UNL     1      42.553 -13.289   3.158  1.00  0.00    -0.102 SA
BRANCH  11  12
HETATM   12  C   UNL     1      42.004 -14.894   3.816  1.00  0.00     0.184 C 
BRANCH  12  13
HETATM   13  C   UNL     1      42.951 -16.030   3.403  1.00  0.00     0.231 C 
HETATM   14  N   UNL     1      42.748 -17.219   4.082  1.00  0.00    -0.326 N 
HETATM   15  H   UNL     1      42.044 -17.178   4.812  1.00  0.00     0.169 HD
HETATM   16  O   UNL     1      43.771 -15.849   2.506  1.00  0.00    -0.272 OA
BRANCH  14  17
HETATM   17  C   UNL     1      43.450 -18.434   3.968  1.00  0.00     0.036 A 
HETATM   18  C   UNL     1      43.349 -19.299   2.879  1.00  0.00     0.053 A 
HETATM   19  C   UNL     1      44.099 -20.479   2.856  1.00  0.00     0.036 A 
HETATM   20 CL   UNL     1      43.972 -21.548   1.512  1.00  0.00    -0.084 Cl
HETATM   21  C   UNL     1      44.954 -20.805   3.908  1.00  0.00     0.024 A 
HETATM   22  C   UNL     1      45.058 -19.947   4.998  1.00  0.00     0.004 A 
HETATM   23  C   UNL     1      44.307 -18.769   5.027  1.00  0.00     0.029 A 
ENDBRANCH  14  17
ENDBRANCH  12  13
ENDBRANCH  11  12
ENDBRANCH   4  11
BRANCH   8  24
HETATM   24  C   UNL     1      41.567 -10.733  -0.746  1.00  0.00    -0.044 A 
HETATM   25  C   UNL     1      42.938 -11.022  -0.896  1.00  0.00     0.008 A 
HETATM   26  C   UNL     1      43.823 -10.064  -1.390  1.00  0.00     0.001 A 
HETATM   27  C   UNL     1      43.360  -8.798  -1.732  1.00  0.00     0.000 A 
HETATM   28  C   UNL     1      42.009  -8.490  -1.579  1.00  0.00     0.001 A 
HETATM   29  C   UNL     1      41.116  -9.447  -1.090  1.00  0.00     0.008 A 
ENDBRANCH   8  24
BRANCH   9  30
HETATM   30  C   UNL     1      39.729 -13.066  -2.248  1.00  0.00     0.255 C 
HETATM   31  N   UNL     1      38.406 -13.445  -2.142  1.00  0.00    -0.321 N 
HETATM   32  H   UNL     1      38.096 -13.958  -1.333  1.00  0.00     0.169 HD
HETATM   33  O   UNL     1      40.302 -12.875  -3.319  1.00  0.00    -0.268 OA
BRANCH  31  34
HETATM   34  C   UNL     1      37.466 -13.355  -3.196  1.00  0.00     0.068 A 
HETATM   35  C   UNL     1      36.991 -14.477  -3.908  1.00  0.00     0.095 A 
HETATM   36  C   UNL     1      36.031 -14.287  -4.908  1.00  0.00     0.039 A 
HETATM   37  C   UNL     1      35.574 -13.004  -5.223  1.00  0.00     0.003 A 
HETATM   38  C   UNL     1      36.093 -11.896  -4.562  1.00  0.00     0.002 A 
HETATM   39  C   UNL     1      37.050 -12.069  -3.562  1.00  0.00     0.032 A 
BRANCH  35  40
HETATM   40  O   UNL     1      37.600 -15.678  -3.650  1.00  0.00    -0.354 OA
HETATM   41  C   UNL     1      38.790 -15.985  -4.360  1.00  0.00     0.210 C 
ENDBRANCH  35  40
ENDBRANCH  31  34
ENDBRANCH   9  30
TORSDOF 8
ENDMDL
MODEL 7
REMARK VINA RESULT:      -8.5      4.631      8.695
REMARK  8 active torsions:
REMARK  status: ('A' for Active; 'I' for Inactive)
REMARK    1  A    between atoms: C_4  and  S_5 
REMARK    2  A    between atoms: S_5  and  C_6 
REMARK    3  A    between atoms: C_6  and  C_7 
REMARK       I    between atoms: C_7  and  N_8 
REMARK    4  A    between atoms: N_8  and  C_9 
REMARK    5  A    between atoms: C_20  and  C_21 
REMARK    6  A    between atoms: C_27  and  C_28 
REMARK       I    between atoms: C_28  and  N_29 
REMARK    7  A    between atoms: N_29  and  C_30 
REMARK    8  A    between atoms: C_31  and  O_32 
ROOT
HETATM    1  C   UNL     1      41.426 -17.568   0.903  1.00  0.00     0.069 C 
HETATM    2  C   UNL     1      41.333 -16.150   0.391  1.00  0.00     0.019 C 
HETATM    3  N   UNL     1      41.211 -16.019  -0.983  1.00  0.00    -0.353 N 
HETATM    4  C   UNL     1      41.306 -14.832  -1.683  1.00  0.00     0.087 C 
HETATM    5  C   UNL     1      41.358 -13.674  -0.985  1.00  0.00     0.055 C 
HETATM    6  C   UNL     1      41.636 -12.337  -1.654  1.00  0.00     0.019 C 
HETATM    7  N   UNL     1      41.867 -11.229  -2.207  1.00  0.00    -0.096 N 
HETATM    8  C   UNL     1      41.111 -13.671   0.522  1.00  0.00     0.104 C 
HETATM    9  C   UNL     1      41.313 -15.041   1.174  1.00  0.00     0.046 C 
HETATM   10  H   UNL     1      41.219 -16.864  -1.548  1.00  0.00     0.166 HD
ENDROOT
BRANCH   4  11
HETATM   11  S   UNL     1      41.160 -14.862  -3.424  1.00  0.00    -0.102 SA
BRANCH  11  12
HETATM   12  C   UNL     1      39.558 -15.676  -3.711  1.00  0.00     0.184 C 
BRANCH  12  13
HETATM   13  C   UNL     1      38.382 -14.743  -3.393  1.00  0.00     0.231 C 
HETATM   14  N   UNL     1      38.663 -13.395  -3.543  1.00  0.00    -0.326 N 
HETATM   15  H   UNL     1      39.627 -13.186  -3.783  1.00  0.00     0.169 HD
HETATM   16  O   UNL     1      37.292 -15.216  -3.078  1.00  0.00    -0.272 OA
BRANCH  14  17
HETATM   17  C   UNL     1      37.828 -12.286  -3.310  1.00  0.00     0.036 A 
HETATM   18  C   UNL     1      38.121 -11.258  -2.416  1.00  0.00     0.053 A 
HETATM   19  C   UNL     1      37.228 -10.192  -2.266  1.00  0.00     0.036 A 
HETATM   20 CL   UNL     1      37.589  -8.923  -1.158  1.00  0.00    -0.084 Cl
HETATM   21  C   UNL     1      36.046 -10.137  -3.003  1.00  0.00     0.024 A 
HETATM   22  C   UNL     1      35.748 -11.162  -3.896  1.00  0.00     0.004 A 
HETATM   23  C   UNL     1      36.634 -12.232  -4.045  1.00  0.00     0.029 A 
ENDBRANCH  14  17
ENDBRANCH  12  13
ENDBRANCH  11  12
ENDBRANCH   4  11
BRANCH   8  24
HETATM   24  C   UNL     1      39.697 -13.115   0.765  1.00  0.00    -0.044 A 
HETATM   25  C   UNL     1      38.551 -13.821   0.347  1.00  0.00     0.008 A 
HETATM   26  C   UNL     1      37.276 -13.280   0.508  1.00  0.00     0.001 A 
HETATM   27  C   UNL     1      37.121 -12.022   1.080  1.00  0.00     0.000 A 
HETATM   28  C   UNL     1      38.243 -11.303   1.489  1.00  0.00     0.001 A 
HETATM   29  C   UNL     1      39.523 -11.842   1.333  1.00  0.00     0.008 A 
ENDBRANCH   8  24
BRANCH   9  30
HETATM   30  C   UNL     1      41.520 -15.154   2.662  1.00  0.00     0.255 C 
HETATM   31  N   UNL     1      42.823 -15.344   3.075  1.00  0.00    -0.321 N 
HETATM   32  H   UNL     1      43.509 -15.692   2.425  1.00  0.00     0.169 HD
HETATM   33  O   UNL     1      40.550 -15.193   3.415  1.00  0.00    -0.268 OA
BRANCH  31  34
HETATM   34  C   UNL     1      43.244 -15.291   4.425  1.00  0.00     0.068 A 
HETATM   35  C   UNL     1      43.370 -16.433   5.243  1.00  0.00     0.095 A 
HETATM   36  C   UNL     1      43.834 -16.280   6.555  1.00  0.00     0.039 A 
HETATM   37  C   UNL     1      44.133 -15.012   7.060  1.00  0.00     0.003 A 
HETATM   38  C   UNL     1      43.945 -13.882   6.270  1.00  0.00     0.002 A 
HETATM   39  C   UNL     1      43.485 -14.019   4.960  1.00  0.00     0.032 A 
BRANCH  35  40
HETATM   40  O   UNL     1      42.909 -17.618   4.728  1.00  0.00    -0.354 OA
HETATM   41  C   UNL     1      43.868 -18.582   4.321  1.00  0.00     0.210 C 
ENDBRANCH  35  40
ENDBRANCH  31  34
ENDBRANCH   9  30
TORSDOF 8
ENDMDL
MODEL 8
REMARK VINA RESULT:      -8.5      4.170      8.209
REMARK  8 active torsions:
REMARK  status: ('A' for Active; 'I' for Inactive)
REMARK    1  A    between atoms: C_4  and  S_5 
REMARK    2  A    between atoms: S_5  and  C_6 
REMARK    3  A    between atoms: C_6  and  C_7 
REMARK       I    between atoms: C_7  and  N_8 
REMARK    4  A    between atoms: N_8  and  C_9 
REMARK    5  A    between atoms: C_20  and  C_21 
REMARK    6  A    between atoms: C_27  and  C_28 
REMARK       I    between atoms: C_28  and  N_29 
REMARK    7  A    between atoms: N_29  and  C_30 
REMARK    8  A    between atoms: C_31  and  O_32 
ROOT
HETATM    1  C   UNL     1      40.953 -16.052   0.013  1.00  0.00     0.069 C 
HETATM    2  C   UNL     1      41.052 -14.842   0.911  1.00  0.00     0.019 C 
HETATM    3  N   UNL     1      42.110 -14.849   1.805  1.00  0.00    -0.353 N 
HETATM    4  C   UNL     1      42.284 -13.954   2.843  1.00  0.00     0.087 C 
HETATM    5  C   UNL     1      41.461 -12.882   2.915  1.00  0.00     0.055 C 
HETATM    6  C   UNL     1      41.460 -11.939   4.107  1.00  0.00     0.019 C 
HETATM    7  N   UNL     1      41.458 -11.158   5.096  1.00  0.00    -0.096 N 
HETATM    8  C   UNL     1      40.506 -12.565   1.764  1.00  0.00     0.104 C 
HETATM    9  C   UNL     1      40.224 -13.767   0.861  1.00  0.00     0.046 C 
HETATM   10  H   UNL     1      42.723 -15.660   1.819  1.00  0.00     0.166 HD
ENDROOT
BRANCH   4  11
HETATM   11  S   UNL     1      43.666 -14.137   3.896  1.00  0.00    -0.102 SA
BRANCH  11  12
HETATM   12  C   UNL     1      43.017 -15.095   5.301  1.00  0.00     0.184 C 
BRANCH  12  13
HETATM   13  C   UNL     1      42.795 -16.568   4.929  1.00  0.00     0.231 C 
HETATM   14  N   UNL     1      43.870 -17.167   4.295  1.00  0.00    -0.326 N 
HETATM   15  H   UNL     1      44.648 -16.546   4.098  1.00  0.00     0.169 HD
HETATM   16  O   UNL     1      41.743 -17.125   5.235  1.00  0.00    -0.272 OA
BRANCH  14  17
HETATM   17  C   UNL     1      43.987 -18.481   3.804  1.00  0.00     0.036 A 
HETATM   18  C   UNL     1      44.490 -19.553   4.540  1.00  0.00     0.053 A 
HETATM   19  C   UNL     1      44.555 -20.824   3.962  1.00  0.00     0.036 A 
HETATM   20 CL   UNL     1      45.178 -22.147   4.872  1.00  0.00    -0.084 Cl
HETATM   21  C   UNL     1      44.118 -21.041   2.656  1.00  0.00     0.024 A 
HETATM   22  C   UNL     1      43.617 -19.975   1.915  1.00  0.00     0.004 A 
HETATM   23  C   UNL     1      43.556 -18.701   2.487  1.00  0.00     0.029 A 
ENDBRANCH  14  17
ENDBRANCH  12  13
ENDBRANCH  11  12
ENDBRANCH   4  11
BRANCH   8  24
HETATM   24  C   UNL     1      41.091 -11.375   0.983  1.00  0.00    -0.044 A 
HETATM   25  C   UNL     1      40.501 -10.097   1.049  1.00  0.00     0.008 A 
HETATM   26  C   UNL     1      40.994  -9.039   0.286  1.00  0.00     0.001 A 
HETATM   27  C   UNL     1      42.076  -9.239  -0.566  1.00  0.00     0.000 A 
HETATM   28  C   UNL     1      42.664 -10.500  -0.654  1.00  0.00     0.001 A 
HETATM   29  C   UNL     1      42.177 -11.563   0.113  1.00  0.00     0.008 A 
ENDBRANCH   8  24
BRANCH   9  30
HETATM   30  C   UNL     1      39.024 -13.771  -0.049  1.00  0.00     0.255 C 
HETATM   31  N   UNL     1      39.203 -13.185  -1.285  1.00  0.00    -0.321 N 
HETATM   32  H   UNL     1      39.963 -12.540  -1.428  1.00  0.00     0.169 HD
HETATM   33  O   UNL     1      37.938 -14.171   0.368  1.00  0.00    -0.268 OA
BRANCH  31  34
HETATM   34  C   UNL     1      38.263 -13.251  -2.341  1.00  0.00     0.068 A 
HETATM   35  C   UNL     1      38.169 -14.344  -3.228  1.00  0.00     0.095 A 
HETATM   36  C   UNL     1      37.178 -14.333  -4.216  1.00  0.00     0.039 A 
HETATM   37  C   UNL     1      36.317 -13.239  -4.347  1.00  0.00     0.003 A 
HETATM   38  C   UNL     1      36.456 -12.136  -3.512  1.00  0.00     0.002 A 
HETATM   39  C   UNL     1      37.438 -12.134  -2.521  1.00  0.00     0.032 A 
BRANCH  35  40
HETATM   40  O   UNL     1      39.146 -15.303  -3.136  1.00  0.00    -0.354 OA
HETATM   41  C   UNL     1      39.118 -16.372  -4.069  1.00  0.00     0.210 C 
ENDBRANCH  35  40
ENDBRANCH  31  34
ENDBRANCH   9  30
TORSDOF 8
ENDMDL
MODEL 9
REMARK VINA RESULT:      -8.5      4.714      7.506
REMARK  8 active torsions:
REMARK  status: ('A' for Active; 'I' for Inactive)
REMARK    1  A    between atoms: C_4  and  S_5 
REMARK    2  A    between atoms: S_5  and  C_6 
REMARK    3  A    between atoms: C_6  and  C_7 
REMARK       I    between atoms: C_7  and  N_8 
REMARK    4  A    between atoms: N_8  and  C_9 
REMARK    5  A    between atoms: C_20  and  C_21 
REMARK    6  A    between atoms: C_27  and  C_28 
REMARK       I    between atoms: C_28  and  N_29 
REMARK    7  A    between atoms: N_29  and  C_30 
REMARK    8  A    between atoms: C_31  and  O_32 
ROOT
HETATM    1  C   UNL     1      39.873 -13.716   4.060  1.00  0.00     0.069 C 
HETATM    2  C   UNL     1      39.675 -13.762   2.564  1.00  0.00     0.019 C 
HETATM    3  N   UNL     1      38.601 -13.031   2.082  1.00  0.00    -0.353 N 
HETATM    4  C   UNL     1      38.115 -13.083   0.790  1.00  0.00     0.087 C 
HETATM    5  C   UNL     1      38.824 -13.766  -0.139  1.00  0.00     0.055 C 
HETATM    6  C   UNL     1      38.289 -14.026  -1.538  1.00  0.00     0.019 C 
HETATM    7  N   UNL     1      37.846 -14.241  -2.698  1.00  0.00    -0.096 N 
HETATM    8  C   UNL     1      40.222 -14.289   0.190  1.00  0.00     0.104 C 
HETATM    9  C   UNL     1      40.487 -14.414   1.692  1.00  0.00     0.046 C 
HETATM   10  H   UNL     1      38.012 -12.543   2.752  1.00  0.00     0.166 HD
ENDROOT
BRANCH   4  11
HETATM   11  S   UNL     1      36.725 -12.112   0.368  1.00  0.00    -0.102 SA
BRANCH  11  12
HETATM   12  C   UNL     1      37.338 -10.403   0.484  1.00  0.00     0.184 C 
BRANCH  12  13
HETATM   13  C   UNL     1      37.880  -9.901  -0.862  1.00  0.00     0.231 C 
HETATM   14  N   UNL     1      39.066 -10.494  -1.259  1.00  0.00    -0.326 N 
HETATM   15  H   UNL     1      39.466 -11.139  -0.585  1.00  0.00     0.169 HD
HETATM   16  O   UNL     1      37.243  -9.071  -1.508  1.00  0.00    -0.272 OA
BRANCH  14  17
HETATM   17  C   UNL     1      39.836 -10.248  -2.411  1.00  0.00     0.036 A 
HETATM   18  C   UNL     1      40.696  -9.161  -2.563  1.00  0.00     0.053 A 
HETATM   19  C   UNL     1      41.427  -9.013  -3.747  1.00  0.00     0.036 A 
HETATM   20 CL   UNL     1      42.487  -7.669  -3.935  1.00  0.00    -0.084 Cl
HETATM   21  C   UNL     1      41.312  -9.940  -4.781  1.00  0.00     0.024 A 
HETATM   22  C   UNL     1      40.454 -11.026  -4.636  1.00  0.00     0.004 A 
HETATM   23  C   UNL     1      39.718 -11.175  -3.457  1.00  0.00     0.029 A 
ENDBRANCH  14  17
ENDBRANCH  12  13
ENDBRANCH  11  12
ENDBRANCH   4  11
BRANCH   8  24
HETATM   24  C   UNL     1      41.242 -13.370  -0.505  1.00  0.00    -0.044 A 
HETATM   25  C   UNL     1      41.787 -13.700  -1.762  1.00  0.00     0.008 A 
HETATM   26  C   UNL     1      42.761 -12.898  -2.356  1.00  0.00     0.001 A 
HETATM   27  C   UNL     1      43.218 -11.759  -1.701  1.00  0.00     0.000 A 
HETATM   28  C   UNL     1      42.701 -11.423  -0.451  1.00  0.00     0.001 A 
HETATM   29  C   UNL     1      41.720 -12.220   0.146  1.00  0.00     0.008 A 
ENDBRANCH   8  24
BRANCH   9  30
HETATM   30  C   UNL     1      41.613 -15.276   2.198  1.00  0.00     0.255 C 
HETATM   31  N   UNL     1      41.275 -16.570   2.537  1.00  0.00    -0.321 N 
HETATM   32  H   UNL     1      40.314 -16.803   2.728  1.00  0.00     0.169 HD
HETATM   33  O   UNL     1      42.721 -14.783   2.398  1.00  0.00    -0.268 OA
BRANCH  31  34
HETATM   34  C   UNL     1      42.215 -17.580   2.855  1.00  0.00     0.068 A 
HETATM   35  C   UNL     1      42.647 -17.849   4.170  1.00  0.00     0.095 A 
HETATM   36  C   UNL     1      43.551 -18.897   4.385  1.00  0.00     0.039 A 
HETATM   37  C   UNL     1      44.045 -19.641   3.311  1.00  0.00     0.003 A 
HETATM   38  C   UNL     1      43.665 -19.330   2.010  1.00  0.00     0.002 A 
HETATM   39  C   UNL     1      42.765 -18.289   1.780  1.00  0.00     0.032 A 
BRANCH  35  40
HETATM   40  O   UNL     1      42.240 -16.977   5.148  1.00  0.00    -0.354 OA
HETATM   41  C   UNL     1      43.202 -16.076   5.676  1.00  0.00     0.210 C 
ENDBRANCH  35  40
ENDBRANCH  31  34
ENDBRANCH   9  30
TORSDOF 8
ENDMDL
MODEL 10
REMARK VINA RESULT:      -8.4      4.148      8.228
REMARK  8 active torsions:
REMARK  status: ('A' for Active; 'I' for Inactive)
REMARK    1  A    between atoms: C_4  and  S_5 
REMARK    2  A    between atoms: S_5  and  C_6 
REMARK    3  A    between atoms: C_6  and  C_7 
REMARK       I    between atoms: C_7  and  N_8 
REMARK    4  A    between atoms: N_8  and  C_9 
REMARK    5  A    between atoms: C_20  and  C_21 
REMARK    6  A    between atoms: C_27  and  C_28 
REMARK       I    between atoms: C_28  and  N_29 
REMARK    7  A    between atoms: N_29  and  C_30 
REMARK    8  A    between atoms: C_31  and  O_32 
ROOT
HETATM    1  C   UNL     1      41.082 -16.070   0.148  1.00  0.00     0.069 C 
HETATM    2  C   UNL     1      41.139 -14.846   1.031  1.00  0.00     0.019 C 
HETATM    3  N   UNL     1      42.188 -14.812   1.935  1.00  0.00    -0.353 N 
HETATM    4  C   UNL     1      42.327 -13.899   2.962  1.00  0.00     0.087 C 
HETATM    5  C   UNL     1      41.475 -12.849   3.012  1.00  0.00     0.055 C 
HETATM    6  C   UNL     1      41.436 -11.891   4.192  1.00  0.00     0.019 C 
HETATM    7  N   UNL     1      41.403 -11.097   5.170  1.00  0.00    -0.096 N 
HETATM    8  C   UNL     1      40.523 -12.574   1.849  1.00  0.00     0.104 C 
HETATM    9  C   UNL     1      40.282 -13.795   0.959  1.00  0.00     0.046 C 
HETATM   10  H   UNL     1      42.822 -15.606   1.965  1.00  0.00     0.166 HD
ENDROOT
BRANCH   4  11
HETATM   11  S   UNL     1      43.703 -14.029   4.031  1.00  0.00    -0.102 SA
BRANCH  11  12
HETATM   12  C   UNL     1      43.103 -15.088   5.384  1.00  0.00     0.184 C 
BRANCH  12  13
HETATM   13  C   UNL     1      42.831 -16.521   4.906  1.00  0.00     0.231 C 
HETATM   14  N   UNL     1      43.946 -17.186   4.426  1.00  0.00    -0.326 N 
HETATM   15  H   UNL     1      44.793 -16.626   4.389  1.00  0.00     0.169 HD
HETATM   16  O   UNL     1      41.703 -16.997   5.008  1.00  0.00    -0.272 OA
BRANCH  14  17
HETATM   17  C   UNL     1      44.040 -18.486   3.893  1.00  0.00     0.036 A 
HETATM   18  C   UNL     1      44.508 -19.592   4.601  1.00  0.00     0.053 A 
HETATM   19  C   UNL     1      44.551 -20.845   3.982  1.00  0.00     0.036 A 
HETATM   20 CL   UNL     1      45.132 -22.211   4.857  1.00  0.00    -0.084 Cl
HETATM   21  C   UNL     1      44.128 -21.010   2.665  1.00  0.00     0.024 A 
HETATM   22  C   UNL     1      43.661 -19.909   1.952  1.00  0.00     0.004 A 
HETATM   23  C   UNL     1      43.621 -18.653   2.565  1.00  0.00     0.029 A 
ENDBRANCH  14  17
ENDBRANCH  12  13
ENDBRANCH  11  12
ENDBRANCH   4  11
BRANCH   8  24
HETATM   24  C   UNL     1      41.081 -11.378   1.057  1.00  0.00    -0.044 A 
HETATM   25  C   UNL     1      42.183 -11.526   0.190  1.00  0.00     0.008 A 
HETATM   26  C   UNL     1      42.727 -10.426  -0.472  1.00  0.00     0.001 A 
HETATM   27  C   UNL     1      42.190  -9.158  -0.273  1.00  0.00     0.000 A 
HETATM   28  C   UNL     1      41.108  -8.991   0.590  1.00  0.00     0.001 A 
HETATM   29  C   UNL     1      40.556 -10.090   1.252  1.00  0.00     0.008 A 
ENDBRANCH   8  24
BRANCH   9  30
HETATM   30  C   UNL     1      39.091 -13.844   0.038  1.00  0.00     0.255 C 
HETATM   31  N   UNL     1      39.311 -13.415  -1.255  1.00  0.00    -0.321 N 
HETATM   32  H   UNL     1      40.105 -12.829  -1.460  1.00  0.00     0.169 HD
HETATM   33  O   UNL     1      37.983 -14.138   0.482  1.00  0.00    -0.268 OA
BRANCH  31  34
HETATM   34  C   UNL     1      38.378 -13.555  -2.310  1.00  0.00     0.068 A 
HETATM   35  C   UNL     1      37.496 -12.528  -2.705  1.00  0.00     0.095 A 
HETATM   36  C   UNL     1      36.637 -12.752  -3.788  1.00  0.00     0.039 A 
HETATM   37  C   UNL     1      36.626 -13.986  -4.444  1.00  0.00     0.003 A 
HETATM   38  C   UNL     1      37.452 -15.017  -4.008  1.00  0.00     0.002 A 
HETATM   39  C   UNL     1      38.315 -14.808  -2.932  1.00  0.00     0.032 A 
BRANCH  35  40
HETATM   40  O   UNL     1      37.455 -11.407  -1.916  1.00  0.00    -0.354 OA
HETATM   41  C   UNL     1      36.246 -11.121  -1.231  1.00  0.00     0.210 C 
ENDBRANCH  35  40
ENDBRANCH  31  34
ENDBRANCH   9  30
TORSDOF 8
ENDMDL
