MODEL 1
REMARK VINA RESULT:      -8.8      0.000      0.000
REMARK  2 active torsions:
REMARK  status: ('A' for Active; 'I' for Inactive)
REMARK    1  A    between atoms: C_11  and  N_12 
REMARK    2  A    between atoms: N_12  and  C_13 
ROOT
HETATM    1  C   UNL     1      44.640 -22.211   2.035  1.00  0.00     0.010 C 
HETATM    2  C   UNL     1      43.992 -21.036   2.764  1.00  0.00    -0.014 C 
HETATM    3  C   UNL     1      44.929 -20.496   3.862  1.00  0.00     0.051 C 
HETATM    4  C   UNL     1      44.406 -19.200   4.404  1.00  0.00    -0.008 A 
HETATM    5  C   UNL     1      43.469 -18.384   3.793  1.00  0.00    -0.028 A 
HETATM    6  C   UNL     1      43.153 -17.222   4.612  1.00  0.00     0.053 A 
HETATM    7  C   UNL     1      43.944 -17.219   5.758  1.00  0.00     0.114 A 
HETATM    8  N   UNL     1      43.952 -16.298   6.733  1.00  0.00    -0.234 NA
HETATM    9  C   UNL     1      43.082 -15.318   6.511  1.00  0.00     0.236 A 
HETATM   10  N   UNL     1      42.247 -15.197   5.472  1.00  0.00    -0.223 NA
HETATM   11  C   UNL     1      42.238 -16.138   4.496  1.00  0.00     0.143 A 
HETATM   12  S   UNL     1      44.974 -18.569   5.872  1.00  0.00    -0.073 SA
HETATM   13  C   UNL     1      42.870 -18.764   2.467  1.00  0.00     0.041 C 
HETATM   14  C   UNL     1      43.623 -19.912   1.776  1.00  0.00     0.009 C 
ENDROOT
BRANCH  11  15
HETATM   15  N   UNL     1      41.355 -16.016   3.412  1.00  0.00    -0.340 N 
HETATM   16  H   UNL     1      40.427 -16.350   3.605  1.00  0.00     0.167 HD
BRANCH  15  17
HETATM   17  C   UNL     1      41.462 -15.378   2.160  1.00  0.00     0.036 A 
HETATM   18  C   UNL     1      41.931 -14.052   2.132  1.00  0.00     0.069 A 
HETATM   19  C   UNL     1      42.023 -13.398   0.919  1.00  0.00     0.107 A 
HETATM   20  C   UNL     1      41.660 -14.004  -0.257  1.00  0.00     0.105 A 
HETATM   21  O   UNL     1      42.464 -12.125   0.734  1.00  0.00    -0.323 OA
HETATM   22  O   UNL     1      41.829 -13.193  -1.334  1.00  0.00    -0.323 OA
HETATM   23  C   UNL     1      41.182 -15.293  -0.280  1.00  0.00     0.042 A 
HETATM   24  C   UNL     1      42.338 -12.003  -0.699  1.00  0.00     0.352 A 
HETATM   25  C   UNL     1      41.079 -15.975   0.941  1.00  0.00     0.032 A 
ENDBRANCH  15  17
ENDBRANCH  11  15
TORSDOF 2
ENDMDL
MODEL 2
REMARK VINA RESULT:      -8.8      1.400      1.695
REMARK  2 active torsions:
REMARK  status: ('A' for Active; 'I' for Inactive)
REMARK    1  A    between atoms: C_11  and  N_12 
REMARK    2  A    between atoms: N_12  and  C_13 
ROOT
HETATM    1  C   UNL     1      44.976 -22.192   2.139  1.00  0.00     0.010 C 
HETATM    2  C   UNL     1      44.061 -21.129   2.742  1.00  0.00    -0.014 C 
HETATM    3  C   UNL     1      44.799 -20.338   3.840  1.00  0.00     0.051 C 
HETATM    4  C   UNL     1      43.994 -19.143   4.255  1.00  0.00    -0.008 A 
HETATM    5  C   UNL     1      42.953 -18.579   3.538  1.00  0.00    -0.028 A 
HETATM    6  C   UNL     1      42.360 -17.454   4.249  1.00  0.00     0.053 A 
HETATM    7  C   UNL     1      43.059 -17.215   5.429  1.00  0.00     0.114 A 
HETATM    8  N   UNL     1      42.821 -16.250   6.329  1.00  0.00    -0.234 NA
HETATM    9  C   UNL     1      41.789 -15.485   5.990  1.00  0.00     0.236 A 
HETATM   10  N   UNL     1      41.013 -15.605   4.906  1.00  0.00    -0.223 NA
HETATM   11  C   UNL     1      41.255 -16.590   4.006  1.00  0.00     0.143 A 
HETATM   12  S   UNL     1      44.330 -18.315   5.695  1.00  0.00    -0.073 SA
HETATM   13  C   UNL     1      42.527 -19.159   2.218  1.00  0.00     0.041 C 
HETATM   14  C   UNL     1      43.537 -20.171   1.655  1.00  0.00     0.009 C 
ENDROOT
BRANCH  11  15
HETATM   15  N   UNL     1      40.436 -16.722   2.874  1.00  0.00    -0.340 N 
HETATM   16  H   UNL     1      39.909 -17.578   2.852  1.00  0.00     0.167 HD
BRANCH  15  17
HETATM   17  C   UNL     1      40.084 -15.832   1.840  1.00  0.00     0.036 A 
HETATM   18  C   UNL     1      40.982 -15.676   0.768  1.00  0.00     0.069 A 
HETATM   19  C   UNL     1      40.670 -14.792  -0.246  1.00  0.00     0.107 A 
HETATM   20  C   UNL     1      39.513 -14.056  -0.230  1.00  0.00     0.105 A 
HETATM   21  O   UNL     1      41.431 -14.543  -1.345  1.00  0.00    -0.323 OA
HETATM   22  O   UNL     1      39.394 -13.250  -1.319  1.00  0.00    -0.323 OA
HETATM   23  C   UNL     1      38.611 -14.160   0.802  1.00  0.00     0.042 A 
HETATM   24  C   UNL     1      40.614 -13.563  -2.021  1.00  0.00     0.352 A 
HETATM   25  C   UNL     1      38.909 -15.051   1.843  1.00  0.00     0.032 A 
ENDBRANCH  15  17
ENDBRANCH  11  15
TORSDOF 2
ENDMDL
MODEL 3
REMARK VINA RESULT:      -8.4      1.496      1.937
REMARK  2 active torsions:
REMARK  status: ('A' for Active; 'I' for Inactive)
REMARK    1  A    between atoms: C_11  and  N_12 
REMARK    2  A    between atoms: N_12  and  C_13 
ROOT
HETATM    1  C   UNL     1      44.294 -21.881   1.393  1.00  0.00     0.010 C 
HETATM    2  C   UNL     1      43.857 -20.752   2.325  1.00  0.00    -0.014 C 
HETATM    3  C   UNL     1      44.313 -21.036   3.770  1.00  0.00     0.051 C 
HETATM    4  C   UNL     1      44.106 -19.825   4.630  1.00  0.00    -0.008 A 
HETATM    5  C   UNL     1      43.915 -18.531   4.176  1.00  0.00    -0.028 A 
HETATM    6  C   UNL     1      43.702 -17.602   5.278  1.00  0.00     0.053 A 
HETATM    7  C   UNL     1      43.824 -18.269   6.493  1.00  0.00     0.114 A 
HETATM    8  N   UNL     1      43.717 -17.741   7.721  1.00  0.00    -0.234 NA
HETATM    9  C   UNL     1      43.463 -16.437   7.690  1.00  0.00     0.236 A 
HETATM   10  N   UNL     1      43.300 -15.669   6.606  1.00  0.00    -0.223 NA
HETATM   11  C   UNL     1      43.400 -16.214   5.368  1.00  0.00     0.143 A 
HETATM   12  S   UNL     1      44.126 -19.936   6.321  1.00  0.00    -0.073 SA
HETATM   13  C   UNL     1      43.895 -18.230   2.703  1.00  0.00     0.041 C 
HETATM   14  C   UNL     1      44.411 -19.397   1.846  1.00  0.00     0.009 C 
ENDROOT
BRANCH  11  15
HETATM   15  N   UNL     1      43.220 -15.411   4.232  1.00  0.00    -0.340 N 
HETATM   16  H   UNL     1      44.069 -14.994   3.891  1.00  0.00     0.167 HD
BRANCH  15  17
HETATM   17  C   UNL     1      42.119 -15.193   3.380  1.00  0.00     0.036 A 
HETATM   18  C   UNL     1      42.375 -14.956   2.017  1.00  0.00     0.069 A 
HETATM   19  C   UNL     1      41.313 -14.717   1.167  1.00  0.00     0.107 A 
HETATM   20  C   UNL     1      40.018 -14.696   1.617  1.00  0.00     0.105 A 
HETATM   21  O   UNL     1      41.403 -14.482  -0.170  1.00  0.00    -0.323 OA
HETATM   22  O   UNL     1      39.124 -14.448   0.623  1.00  0.00    -0.323 OA
HETATM   23  C   UNL     1      39.717 -14.906   2.942  1.00  0.00     0.042 A 
HETATM   24  C   UNL     1      40.009 -14.312  -0.507  1.00  0.00     0.352 A 
HETATM   25  C   UNL     1      40.780 -15.149   3.823  1.00  0.00     0.032 A 
ENDBRANCH  15  17
ENDBRANCH  11  15
TORSDOF 2
ENDMDL
MODEL 4
REMARK VINA RESULT:      -8.3      3.745      6.771
REMARK  2 active torsions:
REMARK  status: ('A' for Active; 'I' for Inactive)
REMARK    1  A    between atoms: C_11  and  N_12 
REMARK    2  A    between atoms: N_12  and  C_13 
ROOT
HETATM    1  C   UNL     1      40.277 -14.305  -2.630  1.00  0.00     0.010 C 
HETATM    2  C   UNL     1      40.819 -14.512  -1.218  1.00  0.00    -0.014 C 
HETATM    3  C   UNL     1      39.729 -14.212  -0.170  1.00  0.00     0.051 C 
HETATM    4  C   UNL     1      40.178 -14.651   1.191  1.00  0.00    -0.008 A 
HETATM    5  C   UNL     1      41.211 -15.534   1.459  1.00  0.00    -0.028 A 
HETATM    6  C   UNL     1      41.411 -15.708   2.892  1.00  0.00     0.053 A 
HETATM    7  C   UNL     1      40.451 -14.987   3.597  1.00  0.00     0.114 A 
HETATM    8  N   UNL     1      40.303 -14.923   4.928  1.00  0.00    -0.234 NA
HETATM    9  C   UNL     1      41.210 -15.649   5.573  1.00  0.00     0.236 A 
HETATM   10  N   UNL     1      42.200 -16.373   5.036  1.00  0.00    -0.223 NA
HETATM   11  C   UNL     1      42.348 -16.423   3.689  1.00  0.00     0.143 A 
HETATM   12  S   UNL     1      39.397 -14.105   2.592  1.00  0.00    -0.073 SA
HETATM   13  C   UNL     1      42.005 -16.148   0.340  1.00  0.00     0.041 C 
HETATM   14  C   UNL     1      41.354 -15.946  -1.038  1.00  0.00     0.009 C 
ENDROOT
BRANCH  11  15
HETATM   15  N   UNL     1      43.392 -17.175   3.126  1.00  0.00    -0.340 N 
HETATM   16  H   UNL     1      44.182 -16.622   2.843  1.00  0.00     0.167 HD
BRANCH  15  17
HETATM   17  C   UNL     1      43.621 -18.560   3.019  1.00  0.00     0.036 A 
HETATM   18  C   UNL     1      44.197 -19.221   4.120  1.00  0.00     0.069 A 
HETATM   19  C   UNL     1      44.453 -20.575   4.030  1.00  0.00     0.107 A 
HETATM   20  C   UNL     1      44.169 -21.290   2.895  1.00  0.00     0.105 A 
HETATM   21  O   UNL     1      44.995 -21.348   5.010  1.00  0.00    -0.323 OA
HETATM   22  O   UNL     1      44.492 -22.605   3.012  1.00  0.00    -0.323 OA
HETATM   23  C   UNL     1      43.620 -20.688   1.788  1.00  0.00     0.042 A 
HETATM   24  C   UNL     1      45.017 -22.635   4.355  1.00  0.00     0.352 A 
HETATM   25  C   UNL     1      43.354 -19.313   1.856  1.00  0.00     0.032 A 
ENDBRANCH  15  17
ENDBRANCH  11  15
TORSDOF 2
ENDMDL
MODEL 5
REMARK VINA RESULT:      -8.2      1.911      2.269
REMARK  2 active torsions:
REMARK  status: ('A' for Active; 'I' for Inactive)
REMARK    1  A    between atoms: C_11  and  N_12 
REMARK    2  A    between atoms: N_12  and  C_13 
ROOT
HETATM    1  C   UNL     1      43.793 -21.082   1.868  1.00  0.00     0.010 C 
HETATM    2  C   UNL     1      43.361 -19.718   2.400  1.00  0.00    -0.014 C 
HETATM    3  C   UNL     1      43.982 -19.455   3.786  1.00  0.00     0.051 C 
HETATM    4  C   UNL     1      43.765 -18.028   4.194  1.00  0.00    -0.008 A 
HETATM    5  C   UNL     1      43.422 -16.986   3.349  1.00  0.00    -0.028 A 
HETATM    6  C   UNL     1      43.246 -15.738   4.079  1.00  0.00     0.053 A 
HETATM    7  C   UNL     1      43.545 -15.929   5.425  1.00  0.00     0.114 A 
HETATM    8  N   UNL     1      43.519 -15.006   6.398  1.00  0.00    -0.234 NA
HETATM    9  C   UNL     1      43.157 -13.809   5.951  1.00  0.00     0.236 A 
HETATM   10  N   UNL     1      42.822 -13.480   4.697  1.00  0.00    -0.223 NA
HETATM   11  C   UNL     1      42.841 -14.422   3.722  1.00  0.00     0.143 A 
HETATM   12  S   UNL     1      43.964 -17.535   5.803  1.00  0.00    -0.073 SA
HETATM   13  C   UNL     1      43.229 -17.224   1.876  1.00  0.00     0.041 C 
HETATM   14  C   UNL     1      43.750 -18.596   1.418  1.00  0.00     0.009 C 
ENDROOT
BRANCH  11  15
HETATM   15  N   UNL     1      42.481 -14.078   2.409  1.00  0.00    -0.340 N 
HETATM   16  H   UNL     1      43.266 -13.881   1.812  1.00  0.00     0.167 HD
BRANCH  15  17
HETATM   17  C   UNL     1      41.255 -14.105   1.716  1.00  0.00     0.036 A 
HETATM   18  C   UNL     1      41.250 -13.705   0.367  1.00  0.00     0.069 A 
HETATM   19  C   UNL     1      40.055 -13.701  -0.326  1.00  0.00     0.107 A 
HETATM   20  C   UNL     1      38.874 -14.066   0.267  1.00  0.00     0.105 A 
HETATM   21  O   UNL     1      39.895 -13.350  -1.631  1.00  0.00    -0.323 OA
HETATM   22  O   UNL     1      37.818 -13.996  -0.586  1.00  0.00    -0.323 OA
HETATM   23  C   UNL     1      38.825 -14.449   1.587  1.00  0.00     0.042 A 
HETATM   24  C   UNL     1      38.472 -13.540  -1.787  1.00  0.00     0.352 A 
HETATM   25  C   UNL     1      40.026 -14.459   2.311  1.00  0.00     0.032 A 
ENDBRANCH  15  17
ENDBRANCH  11  15
TORSDOF 2
ENDMDL
MODEL 6
REMARK VINA RESULT:      -8.1      2.771      3.878
REMARK  2 active torsions:
REMARK  status: ('A' for Active; 'I' for Inactive)
REMARK    1  A    between atoms: C_11  and  N_12 
REMARK    2  A    between atoms: N_12  and  C_13 
ROOT
HETATM    1  C   UNL     1      44.335 -20.546   2.489  1.00  0.00     0.010 C 
HETATM    2  C   UNL     1      43.370 -19.375   2.310  1.00  0.00    -0.014 C 
HETATM    3  C   UNL     1      42.999 -18.766   3.677  1.00  0.00     0.051 C 
HETATM    4  C   UNL     1      42.259 -17.476   3.490  1.00  0.00    -0.008 A 
HETATM    5  C   UNL     1      42.231 -16.717   2.332  1.00  0.00    -0.028 A 
HETATM    6  C   UNL     1      41.380 -15.544   2.479  1.00  0.00     0.053 A 
HETATM    7  C   UNL     1      40.885 -15.475   3.778  1.00  0.00     0.114 A 
HETATM    8  N   UNL     1      40.090 -14.526   4.292  1.00  0.00    -0.234 NA
HETATM    9  C   UNL     1      39.781 -13.588   3.402  1.00  0.00     0.236 A 
HETATM   10  N   UNL     1      40.162 -13.532   2.120  1.00  0.00    -0.223 NA
HETATM   11  C   UNL     1      40.958 -14.502   1.606  1.00  0.00     0.143 A 
HETATM   12  S   UNL     1      41.375 -16.779   4.757  1.00  0.00    -0.073 SA
HETATM   13  C   UNL     1      42.981 -17.160   1.106  1.00  0.00     0.041 C 
HETATM   14  C   UNL     1      43.976 -18.298   1.391  1.00  0.00     0.009 C 
ENDROOT
BRANCH  11  15
HETATM   15  N   UNL     1      41.350 -14.447   0.259  1.00  0.00    -0.340 N 
HETATM   16  H   UNL     1      42.333 -14.283   0.130  1.00  0.00     0.167 HD
BRANCH  15  17
HETATM   17  C   UNL     1      40.675 -14.729  -0.944  1.00  0.00     0.036 A 
HETATM   18  C   UNL     1      39.429 -14.111  -1.163  1.00  0.00     0.069 A 
HETATM   19  C   UNL     1      38.738 -14.390  -2.325  1.00  0.00     0.107 A 
HETATM   20  C   UNL     1      39.227 -15.259  -3.266  1.00  0.00     0.105 A 
HETATM   21  O   UNL     1      37.533 -13.865  -2.679  1.00  0.00    -0.323 OA
HETATM   22  O   UNL     1      38.398 -15.393  -4.335  1.00  0.00    -0.323 OA
HETATM   23  C   UNL     1      40.431 -15.899  -3.092  1.00  0.00     0.042 A 
HETATM   24  C   UNL     1      37.325 -14.507  -3.955  1.00  0.00     0.352 A 
HETATM   25  C   UNL     1      41.150 -15.633  -1.917  1.00  0.00     0.032 A 
ENDBRANCH  15  17
ENDBRANCH  11  15
TORSDOF 2
ENDMDL
MODEL 7
REMARK VINA RESULT:      -8.1      1.590      2.338
REMARK  2 active torsions:
REMARK  status: ('A' for Active; 'I' for Inactive)
REMARK    1  A    between atoms: C_11  and  N_12 
REMARK    2  A    between atoms: N_12  and  C_13 
ROOT
HETATM    1  C   UNL     1      44.722 -21.045   2.466  1.00  0.00     0.010 C 
HETATM    2  C   UNL     1      43.639 -20.012   2.770  1.00  0.00    -0.014 C 
HETATM    3  C   UNL     1      43.853 -19.397   4.167  1.00  0.00     0.051 C 
HETATM    4  C   UNL     1      42.949 -18.218   4.363  1.00  0.00    -0.008 A 
HETATM    5  C   UNL     1      42.300 -17.518   3.360  1.00  0.00    -0.028 A 
HETATM    6  C   UNL     1      41.465 -16.454   3.902  1.00  0.00     0.053 A 
HETATM    7  C   UNL     1      41.610 -16.393   5.285  1.00  0.00     0.114 A 
HETATM    8  N   UNL     1      41.019 -15.529   6.123  1.00  0.00    -0.234 NA
HETATM    9  C   UNL     1      40.221 -14.675   5.490  1.00  0.00     0.236 A 
HETATM   10  N   UNL     1      39.967 -14.626   4.177  1.00  0.00    -0.223 NA
HETATM   11  C   UNL     1      40.561 -15.510   3.338  1.00  0.00     0.143 A 
HETATM   12  S   UNL     1      42.655 -17.584   5.907  1.00  0.00    -0.073 SA
HETATM   13  C   UNL     1      42.462 -17.915   1.919  1.00  0.00     0.041 C 
HETATM   14  C   UNL     1      43.615 -18.907   1.697  1.00  0.00     0.009 C 
ENDROOT
BRANCH  11  15
HETATM   15  N   UNL     1      40.287 -15.464   1.962  1.00  0.00    -0.340 N 
HETATM   16  H   UNL     1      39.488 -16.009   1.689  1.00  0.00     0.167 HD
BRANCH  15  17
HETATM   17  C   UNL     1      40.810 -14.687   0.909  1.00  0.00     0.036 A 
HETATM   18  C   UNL     1      40.595 -15.131  -0.409  1.00  0.00     0.069 A 
HETATM   19  C   UNL     1      41.118 -14.398  -1.456  1.00  0.00     0.107 A 
HETATM   20  C   UNL     1      41.847 -13.256  -1.246  1.00  0.00     0.105 A 
HETATM   21  O   UNL     1      40.987 -14.695  -2.777  1.00  0.00    -0.323 OA
HETATM   22  O   UNL     1      42.267 -12.684  -2.405  1.00  0.00    -0.323 OA
HETATM   23  C   UNL     1      42.097 -12.790   0.023  1.00  0.00     0.042 A 
HETATM   24  C   UNL     1      41.719 -13.602  -3.373  1.00  0.00     0.352 A 
HETATM   25  C   UNL     1      41.577 -13.519   1.102  1.00  0.00     0.032 A 
ENDBRANCH  15  17
ENDBRANCH  11  15
TORSDOF 2
ENDMDL
MODEL 8
REMARK VINA RESULT:      -8.0      3.861      6.191
REMARK  2 active torsions:
REMARK  status: ('A' for Active; 'I' for Inactive)
REMARK    1  A    between atoms: C_11  and  N_12 
REMARK    2  A    between atoms: N_12  and  C_13 
ROOT
HETATM    1  C   UNL     1      44.844 -21.862   5.038  1.00  0.00     0.010 C 
HETATM    2  C   UNL     1      44.815 -20.343   4.882  1.00  0.00    -0.014 C 
HETATM    3  C   UNL     1      44.000 -19.941   3.638  1.00  0.00     0.051 C 
HETATM    4  C   UNL     1      43.763 -18.461   3.624  1.00  0.00    -0.008 A 
HETATM    5  C   UNL     1      43.887 -17.610   4.709  1.00  0.00    -0.028 A 
HETATM    6  C   UNL     1      43.626 -16.225   4.338  1.00  0.00     0.053 A 
HETATM    7  C   UNL     1      43.250 -16.155   3.000  1.00  0.00     0.114 A 
HETATM    8  N   UNL     1      42.910 -15.055   2.312  1.00  0.00    -0.234 NA
HETATM    9  C   UNL     1      42.967 -13.955   3.056  1.00  0.00     0.236 A 
HETATM   10  N   UNL     1      43.329 -13.864   4.341  1.00  0.00    -0.223 NA
HETATM   11  C   UNL     1      43.680 -14.981   5.026  1.00  0.00     0.143 A 
HETATM   12  S   UNL     1      43.261 -17.665   2.215  1.00  0.00    -0.073 SA
HETATM   13  C   UNL     1      44.297 -18.138   6.056  1.00  0.00     0.041 C 
HETATM   14  C   UNL     1      44.235 -19.672   6.142  1.00  0.00     0.009 C 
ENDROOT
BRANCH  11  15
HETATM   15  N   UNL     1      44.068 -14.884   6.372  1.00  0.00    -0.340 N 
HETATM   16  H   UNL     1      43.945 -15.736   6.891  1.00  0.00     0.167 HD
BRANCH  15  17
HETATM   17  C   UNL     1      44.738 -13.885   7.104  1.00  0.00     0.036 A 
HETATM   18  C   UNL     1      44.052 -13.276   8.171  1.00  0.00     0.069 A 
HETATM   19  C   UNL     1      44.680 -12.277   8.889  1.00  0.00     0.107 A 
HETATM   20  C   UNL     1      45.950 -11.857   8.584  1.00  0.00     0.105 A 
HETATM   21  O   UNL     1      44.150 -11.605   9.947  1.00  0.00    -0.323 OA
HETATM   22  O   UNL     1      46.385 -10.869   9.410  1.00  0.00    -0.323 OA
HETATM   23  C   UNL     1      46.655 -12.410   7.541  1.00  0.00     0.042 A 
HETATM   24  C   UNL     1      45.239 -10.714  10.272  1.00  0.00     0.352 A 
HETATM   25  C   UNL     1      46.036 -13.424   6.797  1.00  0.00     0.032 A 
ENDBRANCH  15  17
ENDBRANCH  11  15
TORSDOF 2
ENDMDL
MODEL 9
REMARK VINA RESULT:      -7.7      1.916      2.293
REMARK  2 active torsions:
REMARK  status: ('A' for Active; 'I' for Inactive)
REMARK    1  A    between atoms: C_11  and  N_12 
REMARK    2  A    between atoms: N_12  and  C_13 
ROOT
HETATM    1  C   UNL     1      45.104 -20.940   4.674  1.00  0.00     0.010 C 
HETATM    2  C   UNL     1      44.132 -19.763   4.723  1.00  0.00    -0.014 C 
HETATM    3  C   UNL     1      44.729 -18.601   5.541  1.00  0.00     0.051 C 
HETATM    4  C   UNL     1      43.893 -17.367   5.382  1.00  0.00    -0.008 A 
HETATM    5  C   UNL     1      42.964 -17.139   4.381  1.00  0.00    -0.028 A 
HETATM    6  C   UNL     1      42.298 -15.855   4.548  1.00  0.00     0.053 A 
HETATM    7  C   UNL     1      42.838 -15.177   5.637  1.00  0.00     0.114 A 
HETATM    8  N   UNL     1      42.496 -13.960   6.083  1.00  0.00    -0.234 NA
HETATM    9  C   UNL     1      41.529 -13.408   5.358  1.00  0.00     0.236 A 
HETATM   10  N   UNL     1      40.902 -13.943   4.303  1.00  0.00    -0.223 NA
HETATM   11  C   UNL     1      41.248 -15.180   3.865  1.00  0.00     0.143 A 
HETATM   12  S   UNL     1      44.047 -16.059   6.449  1.00  0.00    -0.073 SA
HETATM   13  C   UNL     1      42.709 -18.176   3.322  1.00  0.00     0.041 C 
HETATM   14  C   UNL     1      43.771 -19.288   3.303  1.00  0.00     0.009 C 
ENDROOT
BRANCH  11  15
HETATM   15  N   UNL     1      40.584 -15.744   2.765  1.00  0.00    -0.340 N 
HETATM   16  H   UNL     1      39.894 -16.431   3.016  1.00  0.00     0.167 HD
BRANCH  15  17
HETATM   17  C   UNL     1      40.577 -15.434   1.391  1.00  0.00     0.036 A 
HETATM   18  C   UNL     1      39.707 -14.421   0.947  1.00  0.00     0.069 A 
HETATM   19  C   UNL     1      39.666 -14.115  -0.399  1.00  0.00     0.107 A 
HETATM   20  C   UNL     1      40.444 -14.776  -1.315  1.00  0.00     0.105 A 
HETATM   21  O   UNL     1      38.886 -13.159  -0.974  1.00  0.00    -0.323 OA
HETATM   22  O   UNL     1      40.257 -14.323  -2.582  1.00  0.00    -0.323 OA
HETATM   23  C   UNL     1      41.299 -15.783  -0.933  1.00  0.00     0.042 A 
HETATM   24  C   UNL     1      39.268 -13.298  -2.359  1.00  0.00     0.352 A 
HETATM   25  C   UNL     1      41.355 -16.112   0.429  1.00  0.00     0.032 A 
ENDBRANCH  15  17
ENDBRANCH  11  15
TORSDOF 2
ENDMDL
MODEL 10
REMARK VINA RESULT:      -7.7      2.178      4.391
REMARK  2 active torsions:
REMARK  status: ('A' for Active; 'I' for Inactive)
REMARK    1  A    between atoms: C_11  and  N_12 
REMARK    2  A    between atoms: N_12  and  C_13 
ROOT
HETATM    1  C   UNL     1      44.363 -13.639   7.747  1.00  0.00     0.010 C 
HETATM    2  C   UNL     1      44.355 -14.520   6.499  1.00  0.00    -0.014 C 
HETATM    3  C   UNL     1      44.342 -16.011   6.889  1.00  0.00     0.051 C 
HETATM    4  C   UNL     1      44.084 -16.864   5.683  1.00  0.00    -0.008 A 
HETATM    5  C   UNL     1      43.552 -16.429   4.481  1.00  0.00    -0.028 A 
HETATM    6  C   UNL     1      43.475 -17.509   3.506  1.00  0.00     0.053 A 
HETATM    7  C   UNL     1      43.895 -18.703   4.085  1.00  0.00     0.114 A 
HETATM    8  N   UNL     1      43.940 -19.911   3.505  1.00  0.00    -0.234 NA
HETATM    9  C   UNL     1      43.528 -19.882   2.242  1.00  0.00     0.236 A 
HETATM   10  N   UNL     1      43.118 -18.814   1.548  1.00  0.00    -0.223 NA
HETATM   11  C   UNL     1      43.085 -17.594   2.140  1.00  0.00     0.143 A 
HETATM   12  S   UNL     1      44.405 -18.528   5.699  1.00  0.00    -0.073 SA
HETATM   13  C   UNL     1      43.176 -14.986   4.285  1.00  0.00     0.041 C 
HETATM   14  C   UNL     1      43.147 -14.191   5.601  1.00  0.00     0.009 C 
ENDROOT
BRANCH  11  15
HETATM   15  N   UNL     1      42.664 -16.472   1.409  1.00  0.00    -0.340 N 
HETATM   16  H   UNL     1      43.361 -16.112   0.780  1.00  0.00     0.167 HD
BRANCH  15  17
HETATM   17  C   UNL     1      41.413 -15.841   1.264  1.00  0.00     0.036 A 
HETATM   18  C   UNL     1      41.240 -14.956   0.183  1.00  0.00     0.069 A 
HETATM   19  C   UNL     1      40.030 -14.308   0.034  1.00  0.00     0.107 A 
HETATM   20  C   UNL     1      38.996 -14.497   0.915  1.00  0.00     0.105 A 
HETATM   21  O   UNL     1      39.713 -13.436  -0.961  1.00  0.00    -0.323 OA
HETATM   22  O   UNL     1      37.894 -13.772   0.588  1.00  0.00    -0.323 OA
HETATM   23  C   UNL     1      39.120 -15.340   1.994  1.00  0.00     0.042 A 
HETATM   24  C   UNL     1      38.355 -13.100  -0.601  1.00  0.00     0.352 A 
HETATM   25  C   UNL     1      40.341 -16.006   2.167  1.00  0.00     0.032 A 
ENDBRANCH  15  17
ENDBRANCH  11  15
TORSDOF 2
ENDMDL
