MODEL 1
REMARK VINA RESULT:      -8.3      0.000      0.000
REMARK  10 active torsions:
REMARK  status: ('A' for Active; 'I' for Inactive)
REMARK    1  A    between atoms: C_2  and  N_3 
REMARK    2  A    between atoms: N_3  and  C_4 
REMARK    3  A    between atoms: N_3  and  C_37 
REMARK    4  A    between atoms: C_7  and  C_8 
REMARK    5  A    between atoms: N_9  and  C_11 
REMARK    6  A    between atoms: C_11  and  C_12 
REMARK       I    between atoms: C_12  and  N_13 
REMARK    7  A    between atoms: N_13  and  C_14 
REMARK    8  A    between atoms: C_20  and  C_21 
REMARK    9  A    between atoms: C_21  and  O_22 
REMARK   10  A    between atoms: C_28  and  O_29 
ROOT
HETATM    1  C   UNL     1      40.031 -13.974   3.157  1.00  0.00     0.228 C 
HETATM    2  N   UNL     1      40.673 -15.340   3.365  1.00  0.00    -0.054 N 
HETATM    3  H   UNL     1      40.178 -15.749   4.177  1.00  0.00     0.281 HD
HETATM    4  C   UNL     1      40.368 -16.305   2.246  1.00  0.00     0.239 C 
HETATM    5  C   UNL     1      40.836 -15.742   0.913  1.00  0.00     0.066 C 
HETATM    6  C   UNL     1      40.176 -14.392   0.638  1.00  0.00     0.065 C 
HETATM    7  C   UNL     1      40.467 -13.389   1.784  1.00  0.00     0.055 C 
HETATM    8  C   UNL     1      40.642 -13.820  -0.713  1.00  0.00     0.038 C 
HETATM    9  C   UNL     1      39.992 -12.472  -1.018  1.00  0.00     0.003 C 
HETATM   10  C   UNL     1      40.195 -11.480   0.121  1.00  0.00     0.001 C 
HETATM   11  C   UNL     1      39.753 -12.050   1.468  1.00  0.00     0.010 C 
ENDROOT
BRANCH   2  12
HETATM   12  C   UNL     1      42.132 -15.390   3.845  1.00  0.00     0.338 C 
BRANCH  12  13
HETATM   13  C   UNL     1      42.469 -16.826   4.274  1.00  0.00     0.248 C 
HETATM   14  N   UNL     1      43.579 -17.363   3.666  1.00  0.00    -0.319 N 
HETATM   15  H   UNL     1      44.332 -16.746   3.353  1.00  0.00     0.169 HD
HETATM   16  O   UNL     1      41.703 -17.377   5.067  1.00  0.00    -0.271 OA
BRANCH  14  17
HETATM   17  C   UNL     1      43.888 -18.718   3.597  1.00  0.00     0.094 A 
HETATM   18  S   UNL     1      43.690 -19.569   2.146  1.00  0.00    -0.076 SA
HETATM   19  C   UNL     1      44.337 -21.001   2.798  1.00  0.00    -0.012 A 
HETATM   20  C   UNL     1      44.445 -22.216   1.931  1.00  0.00     0.057 C 
HETATM   21  C   UNL     1      44.703 -20.852   4.130  1.00  0.00    -0.030 A 
HETATM   22  C   UNL     1      45.292 -21.957   4.958  1.00  0.00     0.050 C 
HETATM   23  C   UNL     1      44.456 -19.494   4.601  1.00  0.00     0.080 A 
BRANCH  23  24
HETATM   24  C   UNL     1      44.724 -18.927   5.929  1.00  0.00     0.296 C 
HETATM   25  O   UNL     1      45.663 -18.158   6.128  1.00  0.00    -0.259 OA
BRANCH  24  26
HETATM   26  O   UNL     1      43.844 -19.326   6.884  1.00  0.00    -0.322 OA
HETATM   27  C   UNL     1      43.598 -18.367   7.915  1.00  0.00     0.213 C 
ENDBRANCH  24  26
ENDBRANCH  23  24
ENDBRANCH  14  17
ENDBRANCH  12  13
ENDBRANCH   2  12
BRANCH   1  28
HETATM   28  C   UNL     1      40.200 -13.088   4.382  1.00  0.00    -0.027 A 
HETATM   29  C   UNL     1      41.137 -12.046   4.456  1.00  0.00     0.011 A 
HETATM   30  C   UNL     1      41.190 -11.205   5.576  1.00  0.00     0.030 A 
HETATM   31  C   UNL     1      40.346 -11.397   6.672  1.00  0.00     0.030 A 
HETATM   32  C   UNL     1      39.469 -12.487   6.628  1.00  0.00     0.030 A 
HETATM   33  C   UNL     1      39.386 -13.315   5.503  1.00  0.00     0.011 A 
BRANCH  31  34
HETATM   34  N   UNL     1      40.314 -10.544   7.772  1.00  0.00    -0.382 N 
BRANCH  34  35
HETATM   35  C   UNL     1      41.507  -9.756   8.116  1.00  0.00     0.118 C 
HETATM   36  C   UNL     1      42.386 -10.500   9.114  1.00  0.00     0.026 C 
ENDBRANCH  34  35
BRANCH  34  37
HETATM   37  C   UNL     1      39.463 -10.978   8.891  1.00  0.00     0.118 C 
HETATM   38  C   UNL     1      38.706  -9.818   9.523  1.00  0.00     0.026 C 
ENDBRANCH  34  37
ENDBRANCH  31  34
ENDBRANCH   1  28
BRANCH   6  39
HETATM   39  O   UNL     1      38.764 -14.626   0.593  1.00  0.00    -0.389 OA
HETATM   40  H   UNL     1      38.295 -13.865   0.988  1.00  0.00     0.210 HD
ENDBRANCH   6  39
TORSDOF 10
ENDMDL
MODEL 2
REMARK VINA RESULT:      -8.0      2.301      6.076
REMARK  10 active torsions:
REMARK  status: ('A' for Active; 'I' for Inactive)
REMARK    1  A    between atoms: C_2  and  N_3 
REMARK    2  A    between atoms: N_3  and  C_4 
REMARK    3  A    between atoms: N_3  and  C_37 
REMARK    4  A    between atoms: C_7  and  C_8 
REMARK    5  A    between atoms: N_9  and  C_11 
REMARK    6  A    between atoms: C_11  and  C_12 
REMARK       I    between atoms: C_12  and  N_13 
REMARK    7  A    between atoms: N_13  and  C_14 
REMARK    8  A    between atoms: C_20  and  C_21 
REMARK    9  A    between atoms: C_21  and  O_22 
REMARK   10  A    between atoms: C_28  and  O_29 
ROOT
HETATM    1  C   UNL     1      41.352 -12.592   2.741  1.00  0.00     0.228 C 
HETATM    2  N   UNL     1      42.066 -13.621   3.609  1.00  0.00    -0.054 N 
HETATM    3  H   UNL     1      42.933 -13.853   3.093  1.00  0.00     0.281 HD
HETATM    4  C   UNL     1      42.574 -13.039   4.904  1.00  0.00     0.239 C 
HETATM    5  C   UNL     1      41.431 -12.435   5.703  1.00  0.00     0.066 C 
HETATM    6  C   UNL     1      40.715 -11.359   4.888  1.00  0.00     0.065 C 
HETATM    7  C   UNL     1      40.196 -11.933   3.545  1.00  0.00     0.055 C 
HETATM    8  C   UNL     1      39.560 -10.740   5.695  1.00  0.00     0.038 C 
HETATM    9  C   UNL     1      38.830  -9.653   4.906  1.00  0.00     0.003 C 
HETATM   10  C   UNL     1      38.368 -10.162   3.547  1.00  0.00     0.001 C 
HETATM   11  C   UNL     1      39.507 -10.796   2.750  1.00  0.00     0.010 C 
ENDROOT
BRANCH   2  12
HETATM   12  C   UNL     1      41.427 -15.010   3.762  1.00  0.00     0.338 C 
BRANCH  12  13
HETATM   13  C   UNL     1      42.411 -16.074   3.254  1.00  0.00     0.248 C 
HETATM   14  N   UNL     1      41.964 -17.370   3.361  1.00  0.00    -0.319 N 
HETATM   15  H   UNL     1      40.961 -17.562   3.329  1.00  0.00     0.169 HD
HETATM   16  O   UNL     1      43.510 -15.686   2.852  1.00  0.00    -0.271 OA
BRANCH  14  17
HETATM   17  C   UNL     1      42.765 -18.508   3.316  1.00  0.00     0.094 A 
HETATM   18  S   UNL     1      42.844 -19.442   1.906  1.00  0.00    -0.076 SA
HETATM   19  C   UNL     1      44.018 -20.485   2.562  1.00  0.00    -0.012 A 
HETATM   20  C   UNL     1      44.545 -21.610   1.728  1.00  0.00     0.057 C 
HETATM   21  C   UNL     1      44.356 -20.141   3.865  1.00  0.00    -0.030 A 
HETATM   22  C   UNL     1      45.359 -20.894   4.689  1.00  0.00     0.050 C 
HETATM   23  C   UNL     1      43.629 -18.956   4.307  1.00  0.00     0.080 A 
BRANCH  23  24
HETATM   24  C   UNL     1      43.717 -18.263   5.599  1.00  0.00     0.296 C 
HETATM   25  O   UNL     1      44.791 -17.870   6.051  1.00  0.00    -0.259 OA
BRANCH  24  26
HETATM   26  O   UNL     1      42.519 -18.101   6.219  1.00  0.00    -0.322 OA
HETATM   27  C   UNL     1      42.543 -17.245   7.362  1.00  0.00     0.213 C 
ENDBRANCH  24  26
ENDBRANCH  23  24
ENDBRANCH  14  17
ENDBRANCH  12  13
ENDBRANCH   2  12
BRANCH   1  28
HETATM   28  C   UNL     1      41.017 -13.159   1.369  1.00  0.00    -0.027 A 
HETATM   29  C   UNL     1      39.760 -13.688   1.040  1.00  0.00     0.011 A 
HETATM   30  C   UNL     1      39.479 -14.117  -0.265  1.00  0.00     0.030 A 
HETATM   31  C   UNL     1      40.447 -14.072  -1.271  1.00  0.00     0.030 A 
HETATM   32  C   UNL     1      41.723 -13.618  -0.917  1.00  0.00     0.030 A 
HETATM   33  C   UNL     1      42.007 -13.160   0.374  1.00  0.00     0.011 A 
BRANCH  31  34
HETATM   34  N   UNL     1      40.192 -14.418  -2.595  1.00  0.00    -0.382 N 
BRANCH  34  35
HETATM   35  C   UNL     1      40.366 -15.812  -3.029  1.00  0.00     0.118 C 
HETATM   36  C   UNL     1      39.245 -16.238  -3.968  1.00  0.00     0.026 C 
ENDBRANCH  34  35
BRANCH  34  37
HETATM   37  C   UNL     1      40.476 -13.374  -3.592  1.00  0.00     0.118 C 
HETATM   38  C   UNL     1      39.433 -12.265  -3.579  1.00  0.00     0.026 C 
ENDBRANCH  34  37
ENDBRANCH  31  34
ENDBRANCH   1  28
BRANCH   6  39
HETATM   39  O   UNL     1      41.688 -10.348   4.600  1.00  0.00    -0.389 OA
HETATM   40  H   UNL     1      41.974 -10.428   3.668  1.00  0.00     0.210 HD
ENDBRANCH   6  39
TORSDOF 10
ENDMDL
MODEL 3
REMARK VINA RESULT:      -7.7      2.320      7.319
REMARK  10 active torsions:
REMARK  status: ('A' for Active; 'I' for Inactive)
REMARK    1  A    between atoms: C_2  and  N_3 
REMARK    2  A    between atoms: N_3  and  C_4 
REMARK    3  A    between atoms: N_3  and  C_37 
REMARK    4  A    between atoms: C_7  and  C_8 
REMARK    5  A    between atoms: N_9  and  C_11 
REMARK    6  A    between atoms: C_11  and  C_12 
REMARK       I    between atoms: C_12  and  N_13 
REMARK    7  A    between atoms: N_13  and  C_14 
REMARK    8  A    between atoms: C_20  and  C_21 
REMARK    9  A    between atoms: C_21  and  O_22 
REMARK   10  A    between atoms: C_28  and  O_29 
ROOT
HETATM    1  C   UNL     1      43.042 -16.225   4.486  1.00  0.00     0.228 C 
HETATM    2  N   UNL     1      42.702 -16.844   3.136  1.00  0.00    -0.054 N 
HETATM    3  H   UNL     1      43.013 -16.149   2.435  1.00  0.00     0.281 HD
HETATM    4  C   UNL     1      43.543 -18.057   2.822  1.00  0.00     0.239 C 
HETATM    5  C   UNL     1      43.377 -19.115   3.901  1.00  0.00     0.066 C 
HETATM    6  C   UNL     1      43.756 -18.552   5.270  1.00  0.00     0.065 C 
HETATM    7  C   UNL     1      42.912 -17.296   5.606  1.00  0.00     0.055 C 
HETATM    8  C   UNL     1      43.596 -19.621   6.365  1.00  0.00     0.038 C 
HETATM    9  C   UNL     1      43.976 -19.087   7.745  1.00  0.00     0.003 C 
HETATM   10  C   UNL     1      43.218 -17.810   8.081  1.00  0.00     0.001 C 
HETATM   11  C   UNL     1      43.357 -16.752   6.987  1.00  0.00     0.010 C 
ENDROOT
BRANCH   2  12
HETATM   12  C   UNL     1      41.220 -17.006   2.764  1.00  0.00     0.338 C 
BRANCH  12  13
HETATM   13  C   UNL     1      40.897 -16.081   1.581  1.00  0.00     0.248 C 
HETATM   14  N   UNL     1      40.401 -14.848   1.934  1.00  0.00    -0.319 N 
HETATM   15  H   UNL     1      40.661 -14.436   2.833  1.00  0.00     0.169 HD
HETATM   16  O   UNL     1      41.058 -16.532   0.446  1.00  0.00    -0.271 OA
BRANCH  14  17
HETATM   17  C   UNL     1      39.710 -13.982   1.090  1.00  0.00     0.094 A 
HETATM   18  S   UNL     1      38.023 -13.860   1.186  1.00  0.00    -0.076 SA
HETATM   19  C   UNL     1      37.962 -12.623   0.019  1.00  0.00    -0.012 A 
HETATM   20  C   UNL     1      36.637 -12.038  -0.357  1.00  0.00     0.057 C 
HETATM   21  C   UNL     1      39.223 -12.294  -0.463  1.00  0.00    -0.030 A 
HETATM   22  C   UNL     1      39.464 -11.243  -1.507  1.00  0.00     0.050 C 
HETATM   23  C   UNL     1      40.263 -13.085   0.185  1.00  0.00     0.080 A 
BRANCH  23  24
HETATM   24  C   UNL     1      41.715 -13.027  -0.025  1.00  0.00     0.296 C 
HETATM   25  O   UNL     1      42.471 -12.529   0.807  1.00  0.00    -0.259 OA
BRANCH  24  26
HETATM   26  O   UNL     1      42.122 -13.574  -1.201  1.00  0.00    -0.322 OA
HETATM   27  C   UNL     1      42.841 -12.688  -2.060  1.00  0.00     0.213 C 
ENDBRANCH  24  26
ENDBRANCH  23  24
ENDBRANCH  14  17
ENDBRANCH  12  13
ENDBRANCH   2  12
BRANCH   1  28
HETATM   28  C   UNL     1      42.313 -14.905   4.692  1.00  0.00    -0.027 A 
HETATM   29  C   UNL     1      42.767 -13.685   4.171  1.00  0.00     0.011 A 
HETATM   30  C   UNL     1      42.011 -12.513   4.318  1.00  0.00     0.030 A 
HETATM   31  C   UNL     1      40.804 -12.509   5.020  1.00  0.00     0.030 A 
HETATM   32  C   UNL     1      40.396 -13.712   5.608  1.00  0.00     0.030 A 
HETATM   33  C   UNL     1      41.127 -14.894   5.442  1.00  0.00     0.011 A 
BRANCH  31  34
HETATM   34  N   UNL     1      39.985 -11.388   5.128  1.00  0.00    -0.382 N 
BRANCH  34  35
HETATM   35  C   UNL     1      39.875 -10.691   6.419  1.00  0.00     0.118 C 
HETATM   36  C   UNL     1      41.143  -9.905   6.727  1.00  0.00     0.026 C 
ENDBRANCH  34  35
BRANCH  34  37
HETATM   37  C   UNL     1      38.790 -11.387   4.271  1.00  0.00     0.118 C 
HETATM   38  C   UNL     1      39.004 -10.601   2.984  1.00  0.00     0.026 C 
ENDBRANCH  34  37
ENDBRANCH  31  34
ENDBRANCH   1  28
BRANCH   6  39
HETATM   39  O   UNL     1      45.131 -18.161   5.186  1.00  0.00    -0.389 OA
HETATM   40  H   UNL     1      45.665 -18.715   5.790  1.00  0.00     0.210 HD
ENDBRANCH   6  39
TORSDOF 10
ENDMDL
MODEL 4
REMARK VINA RESULT:      -7.6      2.815      8.478
REMARK  10 active torsions:
REMARK  status: ('A' for Active; 'I' for Inactive)
REMARK    1  A    between atoms: C_2  and  N_3 
REMARK    2  A    between atoms: N_3  and  C_4 
REMARK    3  A    between atoms: N_3  and  C_37 
REMARK    4  A    between atoms: C_7  and  C_8 
REMARK    5  A    between atoms: N_9  and  C_11 
REMARK    6  A    between atoms: C_11  and  C_12 
REMARK       I    between atoms: C_12  and  N_13 
REMARK    7  A    between atoms: N_13  and  C_14 
REMARK    8  A    between atoms: C_20  and  C_21 
REMARK    9  A    between atoms: C_21  and  O_22 
REMARK   10  A    between atoms: C_28  and  O_29 
ROOT
HETATM    1  C   UNL     1      42.273 -16.790   4.034  1.00  0.00     0.228 C 
HETATM    2  N   UNL     1      42.535 -15.727   5.094  1.00  0.00    -0.054 N 
HETATM    3  H   UNL     1      41.615 -15.284   5.263  1.00  0.00     0.281 HD
HETATM    4  C   UNL     1      42.890 -16.318   6.436  1.00  0.00     0.239 C 
HETATM    5  C   UNL     1      44.119 -17.206   6.321  1.00  0.00     0.066 C 
HETATM    6  C   UNL     1      43.883 -18.320   5.302  1.00  0.00     0.065 C 
HETATM    7  C   UNL     1      43.503 -17.735   3.918  1.00  0.00     0.055 C 
HETATM    8  C   UNL     1      45.121 -19.226   5.185  1.00  0.00     0.038 C 
HETATM    9  C   UNL     1      44.910 -20.355   4.177  1.00  0.00     0.003 C 
HETATM   10  C   UNL     1      44.465 -19.822   2.822  1.00  0.00     0.001 C 
HETATM   11  C   UNL     1      43.247 -18.905   2.935  1.00  0.00     0.010 C 
ENDROOT
BRANCH   2  12
HETATM   12  C   UNL     1      43.390 -14.511   4.707  1.00  0.00     0.338 C 
BRANCH  12  13
HETATM   13  C   UNL     1      42.531 -13.242   4.807  1.00  0.00     0.248 C 
HETATM   14  N   UNL     1      41.396 -13.254   4.029  1.00  0.00    -0.319 N 
HETATM   15  H   UNL     1      40.948 -14.144   3.802  1.00  0.00     0.169 HD
HETATM   16  O   UNL     1      42.949 -12.326   5.517  1.00  0.00    -0.271 OA
BRANCH  14  17
HETATM   17  C   UNL     1      40.656 -12.133   3.662  1.00  0.00     0.094 A 
HETATM   18  S   UNL     1      40.900 -11.404   2.153  1.00  0.00    -0.076 SA
HETATM   19  C   UNL     1      39.647 -10.280   2.399  1.00  0.00    -0.012 A 
HETATM   20  C   UNL     1      39.339  -9.282   1.327  1.00  0.00     0.057 C 
HETATM   21  C   UNL     1      39.034 -10.440   3.635  1.00  0.00    -0.030 A 
HETATM   22  C   UNL     1      37.903  -9.579   4.119  1.00  0.00     0.050 C 
HETATM   23  C   UNL     1      39.618 -11.551   4.378  1.00  0.00     0.080 A 
BRANCH  23  24
HETATM   24  C   UNL     1      39.241 -12.057   5.704  1.00  0.00     0.296 C 
HETATM   25  O   UNL     1      39.056 -13.256   5.912  1.00  0.00    -0.259 OA
BRANCH  24  26
HETATM   26  O   UNL     1      39.131 -11.089   6.651  1.00  0.00    -0.322 OA
HETATM   27  C   UNL     1      40.347 -10.770   7.331  1.00  0.00     0.213 C 
ENDBRANCH  24  26
ENDBRANCH  23  24
ENDBRANCH  14  17
ENDBRANCH  12  13
ENDBRANCH   2  12
BRANCH   1  28
HETATM   28  C   UNL     1      41.739 -16.174   2.750  1.00  0.00    -0.027 A 
HETATM   29  C   UNL     1      42.556 -15.824   1.664  1.00  0.00     0.011 A 
HETATM   30  C   UNL     1      42.001 -15.340   0.472  1.00  0.00     0.030 A 
HETATM   31  C   UNL     1      40.624 -15.150   0.334  1.00  0.00     0.030 A 
HETATM   32  C   UNL     1      39.821 -15.424   1.447  1.00  0.00     0.030 A 
HETATM   33  C   UNL     1      40.361 -15.935   2.632  1.00  0.00     0.011 A 
BRANCH  31  34
HETATM   34  N   UNL     1      40.023 -14.743  -0.854  1.00  0.00    -0.382 N 
BRANCH  34  35
HETATM   35  C   UNL     1      40.836 -14.614  -2.073  1.00  0.00     0.118 C 
HETATM   36  C   UNL     1      40.580 -15.774  -3.027  1.00  0.00     0.026 C 
ENDBRANCH  34  35
BRANCH  34  37
HETATM   37  C   UNL     1      38.895 -13.810  -0.710  1.00  0.00     0.118 C 
HETATM   38  C   UNL     1      39.249 -12.402  -1.171  1.00  0.00     0.026 C 
ENDBRANCH  34  37
ENDBRANCH  31  34
ENDBRANCH   1  28
BRANCH   6  39
HETATM   39  O   UNL     1      42.775 -19.089   5.784  1.00  0.00    -0.389 OA
HETATM   40  H   UNL     1      42.136 -19.231   5.058  1.00  0.00     0.210 HD
ENDBRANCH   6  39
TORSDOF 10
ENDMDL
MODEL 5
REMARK VINA RESULT:      -7.6      3.128      8.235
REMARK  10 active torsions:
REMARK  status: ('A' for Active; 'I' for Inactive)
REMARK    1  A    between atoms: C_2  and  N_3 
REMARK    2  A    between atoms: N_3  and  C_4 
REMARK    3  A    between atoms: N_3  and  C_37 
REMARK    4  A    between atoms: C_7  and  C_8 
REMARK    5  A    between atoms: N_9  and  C_11 
REMARK    6  A    between atoms: C_11  and  C_12 
REMARK       I    between atoms: C_12  and  N_13 
REMARK    7  A    between atoms: N_13  and  C_14 
REMARK    8  A    between atoms: C_20  and  C_21 
REMARK    9  A    between atoms: C_21  and  O_22 
REMARK   10  A    between atoms: C_28  and  O_29 
ROOT
HETATM    1  C   UNL     1      41.405 -16.141   3.861  1.00  0.00     0.228 C 
HETATM    2  N   UNL     1      41.524 -15.210   5.060  1.00  0.00    -0.054 N 
HETATM    3  H   UNL     1      40.561 -14.870   5.233  1.00  0.00     0.281 HD
HETATM    4  C   UNL     1      41.872 -15.940   6.334  1.00  0.00     0.239 C 
HETATM    5  C   UNL     1      43.179 -16.700   6.174  1.00  0.00     0.066 C 
HETATM    6  C   UNL     1      43.089 -17.685   5.010  1.00  0.00     0.065 C 
HETATM    7  C   UNL     1      42.719 -16.957   3.693  1.00  0.00     0.055 C 
HETATM    8  C   UNL     1      44.408 -18.461   4.847  1.00  0.00     0.038 C 
HETATM    9  C   UNL     1      44.344 -19.461   3.693  1.00  0.00     0.003 C 
HETATM   10  C   UNL     1      43.912 -18.793   2.394  1.00  0.00     0.001 C 
HETATM   11  C   UNL     1      42.613 -18.004   2.556  1.00  0.00     0.010 C 
ENDROOT
BRANCH   2  12
HETATM   12  C   UNL     1      42.282 -13.885   4.879  1.00  0.00     0.338 C 
BRANCH  12  13
HETATM   13  C   UNL     1      41.747 -12.860   5.889  1.00  0.00     0.248 C 
HETATM   14  N   UNL     1      42.717 -12.151   6.557  1.00  0.00    -0.319 N 
HETATM   15  H   UNL     1      43.621 -11.986   6.110  1.00  0.00     0.169 HD
HETATM   16  O   UNL     1      40.526 -12.800   6.046  1.00  0.00    -0.271 OA
BRANCH  14  17
HETATM   17  C   UNL     1      42.530 -11.445   7.742  1.00  0.00     0.094 A 
HETATM   18  S   UNL     1      41.099 -10.579   8.006  1.00  0.00    -0.076 SA
HETATM   19  C   UNL     1      41.557 -10.137   9.584  1.00  0.00    -0.012 A 
HETATM   20  C   UNL     1      40.627  -9.303  10.409  1.00  0.00     0.057 C 
HETATM   21  C   UNL     1      42.808 -10.635   9.926  1.00  0.00    -0.030 A 
HETATM   22  C   UNL     1      43.464 -10.392  11.254  1.00  0.00     0.050 C 
HETATM   23  C   UNL     1      43.378 -11.428   8.843  1.00  0.00     0.080 A 
BRANCH  23  24
HETATM   24  C   UNL     1      44.663 -12.138   8.814  1.00  0.00     0.296 C 
HETATM   25  O   UNL     1      44.724 -13.366   8.748  1.00  0.00    -0.259 OA
BRANCH  24  26
HETATM   26  O   UNL     1      45.746 -11.319   8.859  1.00  0.00    -0.322 OA
HETATM   27  C   UNL     1      46.877 -11.775   8.114  1.00  0.00     0.213 C 
ENDBRANCH  24  26
ENDBRANCH  23  24
ENDBRANCH  14  17
ENDBRANCH  12  13
ENDBRANCH   2  12
BRANCH   1  28
HETATM   28  C   UNL     1      40.875 -15.408   2.637  1.00  0.00    -0.027 A 
HETATM   29  C   UNL     1      39.512 -15.160   2.418  1.00  0.00     0.011 A 
HETATM   30  C   UNL     1      39.085 -14.404   1.317  1.00  0.00     0.030 A 
HETATM   31  C   UNL     1      39.993 -13.908   0.379  1.00  0.00     0.030 A 
HETATM   32  C   UNL     1      41.345 -14.227   0.558  1.00  0.00     0.030 A 
HETATM   33  C   UNL     1      41.785 -14.955   1.669  1.00  0.00     0.011 A 
BRANCH  31  34
HETATM   34  N   UNL     1      39.624 -13.093  -0.687  1.00  0.00    -0.382 N 
BRANCH  34  35
HETATM   35  C   UNL     1      38.595 -13.553  -1.632  1.00  0.00     0.118 C 
HETATM   36  C   UNL     1      39.208 -14.403  -2.738  1.00  0.00     0.026 C 
ENDBRANCH  34  35
BRANCH  34  37
HETATM   37  C   UNL     1      40.688 -12.236  -1.234  1.00  0.00     0.118 C 
HETATM   38  C   UNL     1      40.576 -10.797  -0.748  1.00  0.00     0.026 C 
ENDBRANCH  34  37
ENDBRANCH  31  34
ENDBRANCH   1  28
BRANCH   6  39
HETATM   39  O   UNL     1      42.036 -18.601   5.328  1.00  0.00    -0.389 OA
HETATM   40  H   UNL     1      42.060 -18.805   6.285  1.00  0.00     0.210 HD
ENDBRANCH   6  39
TORSDOF 10
ENDMDL
MODEL 6
REMARK VINA RESULT:      -7.6      1.862      3.172
REMARK  10 active torsions:
REMARK  status: ('A' for Active; 'I' for Inactive)
REMARK    1  A    between atoms: C_2  and  N_3 
REMARK    2  A    between atoms: N_3  and  C_4 
REMARK    3  A    between atoms: N_3  and  C_37 
REMARK    4  A    between atoms: C_7  and  C_8 
REMARK    5  A    between atoms: N_9  and  C_11 
REMARK    6  A    between atoms: C_11  and  C_12 
REMARK       I    between atoms: C_12  and  N_13 
REMARK    7  A    between atoms: N_13  and  C_14 
REMARK    8  A    between atoms: C_20  and  C_21 
REMARK    9  A    between atoms: C_21  and  O_22 
REMARK   10  A    between atoms: C_28  and  O_29 
ROOT
HETATM    1  C   UNL     1      39.554 -13.544   2.447  1.00  0.00     0.228 C 
HETATM    2  N   UNL     1      40.695 -14.432   1.967  1.00  0.00    -0.054 N 
HETATM    3  H   UNL     1      40.796 -15.158   2.697  1.00  0.00     0.281 HD
HETATM    4  C   UNL     1      40.338 -15.225   0.733  1.00  0.00     0.239 C 
HETATM    5  C   UNL     1      39.931 -14.295  -0.399  1.00  0.00     0.066 C 
HETATM    6  C   UNL     1      38.754 -13.417   0.021  1.00  0.00     0.065 C 
HETATM    7  C   UNL     1      39.095 -12.604   1.296  1.00  0.00     0.055 C 
HETATM    8  C   UNL     1      38.335 -12.478  -1.124  1.00  0.00     0.038 C 
HETATM    9  C   UNL     1      37.153 -11.593  -0.733  1.00  0.00     0.003 C 
HETATM   10  C   UNL     1      37.424 -10.831   0.557  1.00  0.00     0.001 C 
HETATM   11  C   UNL     1      37.861 -11.757   1.693  1.00  0.00     0.010 C 
ENDROOT
BRANCH   2  12
HETATM   12  C   UNL     1      42.112 -13.839   1.933  1.00  0.00     0.338 C 
BRANCH  12  13
HETATM   13  C   UNL     1      42.993 -14.589   2.943  1.00  0.00     0.248 C 
HETATM   14  N   UNL     1      42.489 -15.798   3.359  1.00  0.00    -0.319 N 
HETATM   15  H   UNL     1      41.877 -16.332   2.738  1.00  0.00     0.169 HD
HETATM   16  O   UNL     1      44.024 -14.031   3.322  1.00  0.00    -0.271 OA
BRANCH  14  17
HETATM   17  C   UNL     1      42.886 -16.490   4.500  1.00  0.00     0.094 A 
HETATM   18  S   UNL     1      42.816 -15.746   6.020  1.00  0.00    -0.076 SA
HETATM   19  C   UNL     1      43.309 -17.159   6.829  1.00  0.00    -0.012 A 
HETATM   20  C   UNL     1      43.440 -17.141   8.319  1.00  0.00     0.057 C 
HETATM   21  C   UNL     1      43.542 -18.212   5.952  1.00  0.00    -0.030 A 
HETATM   22  C   UNL     1      43.996 -19.573   6.391  1.00  0.00     0.050 C 
HETATM   23  C   UNL     1      43.272 -17.823   4.572  1.00  0.00     0.080 A 
BRANCH  23  24
HETATM   24  C   UNL     1      43.374 -18.643   3.359  1.00  0.00     0.296 C 
HETATM   25  O   UNL     1      42.517 -18.606   2.477  1.00  0.00    -0.259 OA
BRANCH  24  26
HETATM   26  O   UNL     1      44.488 -19.421   3.312  1.00  0.00    -0.322 OA
HETATM   27  C   UNL     1      44.373 -20.589   2.497  1.00  0.00     0.213 C 
ENDBRANCH  24  26
ENDBRANCH  23  24
ENDBRANCH  14  17
ENDBRANCH  12  13
ENDBRANCH   2  12
BRANCH   1  28
HETATM   28  C   UNL     1      39.875 -12.903   3.789  1.00  0.00    -0.027 A 
HETATM   29  C   UNL     1      40.267 -11.563   3.929  1.00  0.00     0.011 A 
HETATM   30  C   UNL     1      40.467 -11.001   5.197  1.00  0.00     0.030 A 
HETATM   31  C   UNL     1      40.325 -11.760   6.361  1.00  0.00     0.030 A 
HETATM   32  C   UNL     1      40.014 -13.116   6.212  1.00  0.00     0.030 A 
HETATM   33  C   UNL     1      39.782 -13.681   4.953  1.00  0.00     0.011 A 
BRANCH  31  34
HETATM   34  N   UNL     1      40.441 -11.226   7.642  1.00  0.00    -0.382 N 
BRANCH  34  35
HETATM   35  C   UNL     1      39.242 -11.082   8.481  1.00  0.00     0.118 C 
HETATM   36  C   UNL     1      38.914  -9.613   8.722  1.00  0.00     0.026 C 
ENDBRANCH  34  35
BRANCH  34  37
HETATM   37  C   UNL     1      41.497 -10.217   7.819  1.00  0.00     0.118 C 
HETATM   38  C   UNL     1      42.541 -10.649   8.841  1.00  0.00     0.026 C 
ENDBRANCH  34  37
ENDBRANCH  31  34
ENDBRANCH   1  28
BRANCH   6  39
HETATM   39  O   UNL     1      37.672 -14.303   0.329  1.00  0.00    -0.389 OA
HETATM   40  H   UNL     1      37.186 -14.521  -0.491  1.00  0.00     0.210 HD
ENDBRANCH   6  39
TORSDOF 10
ENDMDL
MODEL 7
REMARK VINA RESULT:      -7.5      2.768      7.568
REMARK  10 active torsions:
REMARK  status: ('A' for Active; 'I' for Inactive)
REMARK    1  A    between atoms: C_2  and  N_3 
REMARK    2  A    between atoms: N_3  and  C_4 
REMARK    3  A    between atoms: N_3  and  C_37 
REMARK    4  A    between atoms: C_7  and  C_8 
REMARK    5  A    between atoms: N_9  and  C_11 
REMARK    6  A    between atoms: C_11  and  C_12 
REMARK       I    between atoms: C_12  and  N_13 
REMARK    7  A    between atoms: N_13  and  C_14 
REMARK    8  A    between atoms: C_20  and  C_21 
REMARK    9  A    between atoms: C_21  and  O_22 
REMARK   10  A    between atoms: C_28  and  O_29 
ROOT
HETATM    1  C   UNL     1      42.240 -15.319   2.835  1.00  0.00     0.228 C 
HETATM    2  N   UNL     1      41.471 -15.280   1.521  1.00  0.00    -0.054 N 
HETATM    3  H   UNL     1      41.597 -14.317   1.164  1.00  0.00     0.281 HD
HETATM    4  C   UNL     1      42.103 -16.135   0.450  1.00  0.00     0.239 C 
HETATM    5  C   UNL     1      42.208 -17.580   0.913  1.00  0.00     0.066 C 
HETATM    6  C   UNL     1      43.016 -17.673   2.206  1.00  0.00     0.065 C 
HETATM    7  C   UNL     1      42.391 -16.790   3.316  1.00  0.00     0.055 C 
HETATM    8  C   UNL     1      43.130 -19.134   2.676  1.00  0.00     0.038 C 
HETATM    9  C   UNL     1      43.942 -19.258   3.965  1.00  0.00     0.003 C 
HETATM   10  C   UNL     1      43.399 -18.348   5.059  1.00  0.00     0.001 C 
HETATM   11  C   UNL     1      43.264 -16.900   4.591  1.00  0.00     0.010 C 
ENDROOT
BRANCH   2  12
HETATM   12  C   UNL     1      39.939 -15.385   1.572  1.00  0.00     0.338 C 
BRANCH  12  13
HETATM   13  C   UNL     1      39.329 -14.162   0.871  1.00  0.00     0.248 C 
HETATM   14  N   UNL     1      39.044 -14.345  -0.462  1.00  0.00    -0.319 N 
HETATM   15  H   UNL     1      38.821 -15.281  -0.806  1.00  0.00     0.169 HD
HETATM   16  O   UNL     1      39.201 -13.132   1.535  1.00  0.00    -0.271 OA
BRANCH  14  17
HETATM   17  C   UNL     1      38.834 -13.330  -1.391  1.00  0.00     0.094 A 
HETATM   18  S   UNL     1      37.527 -12.268  -1.215  1.00  0.00    -0.076 SA
HETATM   19  C   UNL     1      37.995 -11.336  -2.560  1.00  0.00    -0.012 A 
HETATM   20  C   UNL     1      37.174 -10.146  -2.946  1.00  0.00     0.057 C 
HETATM   21  C   UNL     1      39.145 -11.827  -3.164  1.00  0.00    -0.030 A 
HETATM   22  C   UNL     1      39.777 -11.206  -4.376  1.00  0.00     0.050 C 
HETATM   23  C   UNL     1      39.656 -12.998  -2.460  1.00  0.00     0.080 A 
BRANCH  23  24
HETATM   24  C   UNL     1      40.854 -13.792  -2.764  1.00  0.00     0.296 C 
HETATM   25  O   UNL     1      40.906 -14.540  -3.739  1.00  0.00    -0.259 OA
BRANCH  24  26
HETATM   26  O   UNL     1      41.871 -13.611  -1.881  1.00  0.00    -0.322 OA
HETATM   27  C   UNL     1      42.885 -12.699  -2.310  1.00  0.00     0.213 C 
ENDBRANCH  24  26
ENDBRANCH  23  24
ENDBRANCH  14  17
ENDBRANCH  12  13
ENDBRANCH   2  12
BRANCH   1  28
HETATM   28  C   UNL     1      41.689 -14.310   3.832  1.00  0.00    -0.027 A 
HETATM   29  C   UNL     1      40.699 -14.621   4.777  1.00  0.00     0.011 A 
HETATM   30  C   UNL     1      40.290 -13.676   5.728  1.00  0.00     0.030 A 
HETATM   31  C   UNL     1      40.819 -12.383   5.744  1.00  0.00     0.030 A 
HETATM   32  C   UNL     1      41.746 -12.053   4.749  1.00  0.00     0.030 A 
HETATM   33  C   UNL     1      42.184 -12.997   3.813  1.00  0.00     0.011 A 
BRANCH  31  34
HETATM   34  N   UNL     1      40.497 -11.436   6.714  1.00  0.00    -0.382 N 
BRANCH  34  35
HETATM   35  C   UNL     1      41.557 -10.587   7.280  1.00  0.00     0.118 C 
HETATM   36  C   UNL     1      41.445  -9.157   6.767  1.00  0.00     0.026 C 
ENDBRANCH  34  35
BRANCH  34  37
HETATM   37  C   UNL     1      39.386 -11.794   7.609  1.00  0.00     0.118 C 
HETATM   38  C   UNL     1      39.539 -11.173   8.992  1.00  0.00     0.026 C 
ENDBRANCH  34  37
ENDBRANCH  31  34
ENDBRANCH   1  28
BRANCH   6  39
HETATM   39  O   UNL     1      44.323 -17.166   1.911  1.00  0.00    -0.389 OA
HETATM   40  H   UNL     1      44.970 -17.552   2.533  1.00  0.00     0.210 HD
ENDBRANCH   6  39
TORSDOF 10
ENDMDL
MODEL 8
REMARK VINA RESULT:      -7.5      2.471      6.000
REMARK  10 active torsions:
REMARK  status: ('A' for Active; 'I' for Inactive)
REMARK    1  A    between atoms: C_2  and  N_3 
REMARK    2  A    between atoms: N_3  and  C_4 
REMARK    3  A    between atoms: N_3  and  C_37 
REMARK    4  A    between atoms: C_7  and  C_8 
REMARK    5  A    between atoms: N_9  and  C_11 
REMARK    6  A    between atoms: C_11  and  C_12 
REMARK       I    between atoms: C_12  and  N_13 
REMARK    7  A    between atoms: N_13  and  C_14 
REMARK    8  A    between atoms: C_20  and  C_21 
REMARK    9  A    between atoms: C_21  and  O_22 
REMARK   10  A    between atoms: C_28  and  O_29 
ROOT
HETATM    1  C   UNL     1      40.823 -12.000   3.803  1.00  0.00     0.228 C 
HETATM    2  N   UNL     1      41.082 -12.992   4.930  1.00  0.00    -0.054 N 
HETATM    3  H   UNL     1      41.896 -13.549   4.616  1.00  0.00     0.281 HD
HETATM    4  C   UNL     1      41.579 -12.327   6.189  1.00  0.00     0.239 C 
HETATM    5  C   UNL     1      40.581 -11.287   6.674  1.00  0.00     0.066 C 
HETATM    6  C   UNL     1      40.328 -10.240   5.591  1.00  0.00     0.065 C 
HETATM    7  C   UNL     1      39.829 -10.904   4.282  1.00  0.00     0.055 C 
HETATM    8  C   UNL     1      39.322  -9.181   6.077  1.00  0.00     0.038 C 
HETATM    9  C   UNL     1      39.056  -8.115   5.016  1.00  0.00     0.003 C 
HETATM   10  C   UNL     1      38.632  -8.736   3.691  1.00  0.00     0.001 C 
HETATM   11  C   UNL     1      39.616  -9.803   3.213  1.00  0.00     0.010 C 
ENDROOT
BRANCH   2  12
HETATM   12  C   UNL     1      40.041 -14.094   5.181  1.00  0.00     0.338 C 
BRANCH  12  13
HETATM   13  C   UNL     1      40.767 -15.433   5.381  1.00  0.00     0.248 C 
HETATM   14  N   UNL     1      41.877 -15.609   4.589  1.00  0.00    -0.319 N 
HETATM   15  H   UNL     1      42.409 -14.794   4.276  1.00  0.00     0.169 HD
HETATM   16  O   UNL     1      40.273 -16.234   6.176  1.00  0.00    -0.271 OA
BRANCH  14  17
HETATM   17  C   UNL     1      42.488 -16.829   4.312  1.00  0.00     0.094 A 
HETATM   18  S   UNL     1      42.293 -17.559   2.797  1.00  0.00    -0.076 SA
HETATM   19  C   UNL     1      43.350 -18.836   3.181  1.00  0.00    -0.012 A 
HETATM   20  C   UNL     1      43.620 -19.894   2.159  1.00  0.00     0.057 C 
HETATM   21  C   UNL     1      43.857 -18.727   4.470  1.00  0.00    -0.030 A 
HETATM   22  C   UNL     1      44.806 -19.719   5.076  1.00  0.00     0.050 C 
HETATM   23  C   UNL     1      43.362 -17.526   5.136  1.00  0.00     0.080 A 
BRANCH  23  24
HETATM   24  C   UNL     1      43.674 -17.040   6.486  1.00  0.00     0.296 C 
HETATM   25  O   UNL     1      43.103 -17.482   7.482  1.00  0.00    -0.259 OA
BRANCH  24  26
HETATM   26  O   UNL     1      44.639 -16.083   6.516  1.00  0.00    -0.322 OA
HETATM   27  C   UNL     1      44.238 -14.842   7.099  1.00  0.00     0.213 C 
ENDBRANCH  24  26
ENDBRANCH  23  24
ENDBRANCH  14  17
ENDBRANCH  12  13
ENDBRANCH   2  12
BRANCH   1  28
HETATM   28  C   UNL     1      40.503 -12.713   2.497  1.00  0.00    -0.027 A 
HETATM   29  C   UNL     1      39.197 -12.894   2.017  1.00  0.00     0.011 A 
HETATM   30  C   UNL     1      38.966 -13.482   0.766  1.00  0.00     0.030 A 
HETATM   31  C   UNL     1      40.018 -13.943  -0.028  1.00  0.00     0.030 A 
HETATM   32  C   UNL     1      41.313 -13.833   0.491  1.00  0.00     0.030 A 
HETATM   33  C   UNL     1      41.559 -13.222   1.725  1.00  0.00     0.011 A 
BRANCH  31  34
HETATM   34  N   UNL     1      39.840 -14.465  -1.307  1.00  0.00    -0.382 N 
BRANCH  34  35
HETATM   35  C   UNL     1      40.920 -15.247  -1.929  1.00  0.00     0.118 C 
HETATM   36  C   UNL     1      41.466 -14.542  -3.164  1.00  0.00     0.026 C 
ENDBRANCH  34  35
BRANCH  34  37
HETATM   37  C   UNL     1      38.998 -13.666  -2.210  1.00  0.00     0.118 C 
HETATM   38  C   UNL     1      37.828 -14.467  -2.767  1.00  0.00     0.026 C 
ENDBRANCH  34  37
ENDBRANCH  31  34
ENDBRANCH   1  28
BRANCH   6  39
HETATM   39  O   UNL     1      41.587  -9.612   5.325  1.00  0.00    -0.389 OA
HETATM   40  H   UNL     1      42.290 -10.064   5.833  1.00  0.00     0.210 HD
ENDBRANCH   6  39
TORSDOF 10
ENDMDL
MODEL 9
REMARK VINA RESULT:      -7.5      2.540      6.444
REMARK  10 active torsions:
REMARK  status: ('A' for Active; 'I' for Inactive)
REMARK    1  A    between atoms: C_2  and  N_3 
REMARK    2  A    between atoms: N_3  and  C_4 
REMARK    3  A    between atoms: N_3  and  C_37 
REMARK    4  A    between atoms: C_7  and  C_8 
REMARK    5  A    between atoms: N_9  and  C_11 
REMARK    6  A    between atoms: C_11  and  C_12 
REMARK       I    between atoms: C_12  and  N_13 
REMARK    7  A    between atoms: N_13  and  C_14 
REMARK    8  A    between atoms: C_20  and  C_21 
REMARK    9  A    between atoms: C_21  and  O_22 
REMARK   10  A    between atoms: C_28  and  O_29 
ROOT
HETATM    1  C   UNL     1      40.939 -11.817   3.737  1.00  0.00     0.228 C 
HETATM    2  N   UNL     1      41.265 -12.951   4.701  1.00  0.00    -0.054 N 
HETATM    3  H   UNL     1      42.094 -13.419   4.295  1.00  0.00     0.281 HD
HETATM    4  C   UNL     1      41.764 -12.455   6.036  1.00  0.00     0.239 C 
HETATM    5  C   UNL     1      40.735 -11.542   6.685  1.00  0.00     0.066 C 
HETATM    6  C   UNL     1      40.413 -10.361   5.772  1.00  0.00     0.065 C 
HETATM    7  C   UNL     1      39.912 -10.848   4.389  1.00  0.00     0.055 C 
HETATM    8  C   UNL     1      39.377  -9.430   6.427  1.00  0.00     0.038 C 
HETATM    9  C   UNL     1      39.041  -8.234   5.538  1.00  0.00     0.003 C 
HETATM   10  C   UNL     1      38.612  -8.673   4.144  1.00  0.00     0.001 C 
HETATM   11  C   UNL     1      39.628  -9.613   3.497  1.00  0.00     0.010 C 
ENDROOT
BRANCH   2  12
HETATM   12  C   UNL     1      40.277 -14.123   4.805  1.00  0.00     0.338 C 
BRANCH  12  13
HETATM   13  C   UNL     1      41.063 -15.420   5.048  1.00  0.00     0.248 C 
HETATM   14  N   UNL     1      42.137 -15.607   4.210  1.00  0.00    -0.319 N 
HETATM   15  H   UNL     1      42.621 -14.795   3.821  1.00  0.00     0.169 HD
HETATM   16  O   UNL     1      40.641 -16.186   5.916  1.00  0.00    -0.271 OA
BRANCH  14  17
HETATM   17  C   UNL     1      42.779 -16.820   3.977  1.00  0.00     0.094 A 
HETATM   18  S   UNL     1      43.761 -17.512   5.171  1.00  0.00    -0.076 SA
HETATM   19  C   UNL     1      44.052 -18.908   4.242  1.00  0.00    -0.012 A 
HETATM   20  C   UNL     1      44.917 -19.992   4.804  1.00  0.00     0.057 C 
HETATM   21  C   UNL     1      43.413 -18.860   3.010  1.00  0.00    -0.030 A 
HETATM   22  C   UNL     1      43.504 -19.953   1.985  1.00  0.00     0.050 C 
HETATM   23  C   UNL     1      42.641 -17.632   2.858  1.00  0.00     0.080 A 
BRANCH  23  24
HETATM   24  C   UNL     1      41.812 -17.212   1.721  1.00  0.00     0.296 C 
HETATM   25  O   UNL     1      42.308 -16.777   0.683  1.00  0.00    -0.259 OA
BRANCH  24  26
HETATM   26  O   UNL     1      40.477 -17.359   1.930  1.00  0.00    -0.322 OA
HETATM   27  C   UNL     1      39.712 -16.158   1.805  1.00  0.00     0.213 C 
ENDBRANCH  24  26
ENDBRANCH  23  24
ENDBRANCH  14  17
ENDBRANCH  12  13
ENDBRANCH   2  12
BRANCH   1  28
HETATM   28  C   UNL     1      40.618 -12.345   2.346  1.00  0.00    -0.027 A 
HETATM   29  C   UNL     1      39.318 -12.398   1.823  1.00  0.00     0.011 A 
HETATM   30  C   UNL     1      39.090 -12.813   0.503  1.00  0.00     0.030 A 
HETATM   31  C   UNL     1      40.138 -13.226  -0.322  1.00  0.00     0.030 A 
HETATM   32  C   UNL     1      41.424 -13.248   0.232  1.00  0.00     0.030 A 
HETATM   33  C   UNL     1      41.667 -12.808   1.537  1.00  0.00     0.011 A 
BRANCH  31  34
HETATM   34  N   UNL     1      39.969 -13.575  -1.659  1.00  0.00    -0.382 N 
BRANCH  34  35
HETATM   35  C   UNL     1      38.642 -13.992  -2.138  1.00  0.00     0.118 C 
HETATM   36  C   UNL     1      38.096 -13.009  -3.166  1.00  0.00     0.026 C 
ENDBRANCH  34  35
BRANCH  34  37
HETATM   37  C   UNL     1      41.132 -14.199  -2.308  1.00  0.00     0.118 C 
HETATM   38  C   UNL     1      40.895 -15.669  -2.627  1.00  0.00     0.026 C 
ENDBRANCH  34  37
ENDBRANCH  31  34
ENDBRANCH   1  28
BRANCH   6  39
HETATM   39  O   UNL     1      41.639  -9.645   5.580  1.00  0.00    -0.389 OA
HETATM   40  H   UNL     1      42.099  -9.551   6.438  1.00  0.00     0.210 HD
ENDBRANCH   6  39
TORSDOF 10
ENDMDL
MODEL 10
REMARK VINA RESULT:      -7.4      2.694      8.747
REMARK  10 active torsions:
REMARK  status: ('A' for Active; 'I' for Inactive)
REMARK    1  A    between atoms: C_2  and  N_3 
REMARK    2  A    between atoms: N_3  and  C_4 
REMARK    3  A    between atoms: N_3  and  C_37 
REMARK    4  A    between atoms: C_7  and  C_8 
REMARK    5  A    between atoms: N_9  and  C_11 
REMARK    6  A    between atoms: C_11  and  C_12 
REMARK       I    between atoms: C_12  and  N_13 
REMARK    7  A    between atoms: N_13  and  C_14 
REMARK    8  A    between atoms: C_20  and  C_21 
REMARK    9  A    between atoms: C_21  and  O_22 
REMARK   10  A    between atoms: C_28  and  O_29 
ROOT
HETATM    1  C   UNL     1      42.286 -16.954   4.090  1.00  0.00     0.228 C 
HETATM    2  N   UNL     1      42.504 -15.960   5.223  1.00  0.00    -0.054 N 
HETATM    3  H   UNL     1      41.574 -15.539   5.394  1.00  0.00     0.281 HD
HETATM    4  C   UNL     1      42.829 -16.632   6.534  1.00  0.00     0.239 C 
HETATM    5  C   UNL     1      44.072 -17.497   6.397  1.00  0.00     0.066 C 
HETATM    6  C   UNL     1      43.880 -18.545   5.302  1.00  0.00     0.065 C 
HETATM    7  C   UNL     1      43.531 -17.875   3.948  1.00  0.00     0.055 C 
HETATM    8  C   UNL     1      45.133 -19.427   5.163  1.00  0.00     0.038 C 
HETATM    9  C   UNL     1      44.966 -20.490   4.078  1.00  0.00     0.003 C 
HETATM   10  C   UNL     1      44.552 -19.875   2.748  1.00  0.00     0.001 C 
HETATM   11  C   UNL     1      43.320 -18.981   2.884  1.00  0.00     0.010 C 
ENDROOT
BRANCH   2  12
HETATM   12  C   UNL     1      43.353 -14.711   4.941  1.00  0.00     0.338 C 
BRANCH  12  13
HETATM   13  C   UNL     1      42.769 -13.522   5.717  1.00  0.00     0.248 C 
HETATM   14  N   UNL     1      41.544 -13.087   5.266  1.00  0.00    -0.319 N 
HETATM   15  H   UNL     1      40.910 -13.747   4.811  1.00  0.00     0.169 HD
HETATM   16  O   UNL     1      43.454 -13.039   6.620  1.00  0.00    -0.271 OA
BRANCH  14  17
HETATM   17  C   UNL     1      40.976 -11.846   5.540  1.00  0.00     0.094 A 
HETATM   18  S   UNL     1      41.319 -11.051   6.995  1.00  0.00    -0.076 SA
HETATM   19  C   UNL     1      40.419  -9.675   6.554  1.00  0.00    -0.012 A 
HETATM   20  C   UNL     1      40.339  -8.520   7.501  1.00  0.00     0.057 C 
HETATM   21  C   UNL     1      39.840  -9.808   5.299  1.00  0.00    -0.030 A 
HETATM   22  C   UNL     1      38.985  -8.751   4.662  1.00  0.00     0.050 C 
HETATM   23  C   UNL     1      40.185 -11.087   4.687  1.00  0.00     0.080 A 
BRANCH  23  24
HETATM   24  C   UNL     1      39.795 -11.599   3.367  1.00  0.00     0.296 C 
HETATM   25  O   UNL     1      40.620 -11.783   2.473  1.00  0.00    -0.259 OA
BRANCH  24  26
HETATM   26  O   UNL     1      38.464 -11.848   3.245  1.00  0.00    -0.322 OA
HETATM   27  C   UNL     1      37.833 -11.217   2.129  1.00  0.00     0.213 C 
ENDBRANCH  24  26
ENDBRANCH  23  24
ENDBRANCH  14  17
ENDBRANCH  12  13
ENDBRANCH   2  12
BRANCH   1  28
HETATM   28  C   UNL     1      41.781 -16.262   2.832  1.00  0.00    -0.027 A 
HETATM   29  C   UNL     1      42.573 -16.060   1.692  1.00  0.00     0.011 A 
HETATM   30  C   UNL     1      42.030 -15.494   0.530  1.00  0.00     0.030 A 
HETATM   31  C   UNL     1      40.699 -15.074   0.477  1.00  0.00     0.030 A 
HETATM   32  C   UNL     1      39.936 -15.203   1.644  1.00  0.00     0.030 A 
HETATM   33  C   UNL     1      40.458 -15.794   2.800  1.00  0.00     0.011 A 
BRANCH  31  34
HETATM   34  N   UNL     1      40.099 -14.575  -0.676  1.00  0.00    -0.382 N 
BRANCH  34  35
HETATM   35  C   UNL     1      40.869 -14.514  -1.928  1.00  0.00     0.118 C 
HETATM   36  C   UNL     1      40.505 -15.670  -2.851  1.00  0.00     0.026 C 
ENDBRANCH  34  35
BRANCH  34  37
HETATM   37  C   UNL     1      39.092 -13.524  -0.466  1.00  0.00     0.118 C 
HETATM   38  C   UNL     1      39.578 -12.159  -0.937  1.00  0.00     0.026 C 
ENDBRANCH  34  37
ENDBRANCH  31  34
ENDBRANCH   1  28
BRANCH   6  39
HETATM   39  O   UNL     1      42.769 -19.357   5.701  1.00  0.00    -0.389 OA
HETATM   40  H   UNL     1      42.690 -19.343   6.676  1.00  0.00     0.210 HD
ENDBRANCH   6  39
TORSDOF 10
ENDMDL
