MODEL 1
REMARK VINA RESULT:      -9.0      0.000      0.000
REMARK  5 active torsions:
REMARK  status: ('A' for Active; 'I' for Inactive)
REMARK    1  A    between atoms: C_3  and  O_4 
REMARK    2  A    between atoms: C_6  and  N_7 
REMARK       I    between atoms: N_7  and  C_8 
REMARK    3  A    between atoms: C_8  and  C_9 
REMARK    4  A    between atoms: C_14  and  C_15 
REMARK    5  A    between atoms: C_23  and  C_24 
ROOT
HETATM    1  C   UNL     1      40.432 -15.141   0.407  1.00  0.00     0.148 A 
HETATM    2  N   UNL     1      41.296 -16.175   0.534  1.00  0.00    -0.165 NA
HETATM    3  N   UNL     1      41.370 -16.359   1.866  1.00  0.00    -0.240 N 
HETATM    4  C   UNL     1      40.561 -15.528   2.588  1.00  0.00     0.123 A 
HETATM    5  N   UNL     1      40.472 -15.609   3.932  1.00  0.00    -0.366 N 
HETATM    6  C   UNL     1      41.249 -16.559   4.718  1.00  0.00     0.118 C 
HETATM    7  C   UNL     1      41.688 -17.759   3.858  1.00  0.00     0.066 C 
HETATM    8  C   UNL     1      42.195 -17.397   2.450  1.00  0.00     0.221 C 
HETATM    9  C   UNL     1      39.950 -14.712   1.674  1.00  0.00     0.089 A 
HETATM   10  H   UNL     1      39.936 -14.928   4.467  1.00  0.00     0.161 HD
ENDROOT
BRANCH   1  11
HETATM   11  C   UNL     1      40.074 -14.575  -0.907  1.00  0.00     0.276 C 
HETATM   12  N   UNL     1      38.713 -14.370  -1.022  1.00  0.00    -0.322 N 
HETATM   13  H   UNL     1      38.193 -14.649  -0.195  1.00  0.00     0.169 HD
HETATM   14  O   UNL     1      40.928 -14.349  -1.756  1.00  0.00    -0.266 OA
BRANCH  12  15
HETATM   15  C   UNL     1      37.995 -13.861  -2.118  1.00  0.00     0.037 A 
HETATM   16  C   UNL     1      37.657 -14.610  -3.245  1.00  0.00     0.066 A 
HETATM   17  C   UNL     1      36.939 -14.017  -4.285  1.00  0.00     0.067 A 
HETATM   18  C   UNL     1      36.547 -12.684  -4.221  1.00  0.00     0.036 A 
HETATM   19  C   UNL     1      36.883 -11.931  -3.097  1.00  0.00     0.005 A 
HETATM   20  C   UNL     1      37.604 -12.517  -2.053  1.00  0.00     0.029 A 
BRANCH  17  21
HETATM   21  O   UNL     1      36.635 -14.789  -5.368  1.00  0.00    -0.361 OA
HETATM   22  H   UNL     1      37.459 -15.114  -5.762  1.00  0.00     0.217 HD
ENDBRANCH  17  21
ENDBRANCH  12  15
ENDBRANCH   1  11
BRANCH   8  23
HETATM   23  C   UNL     1      43.652 -16.996   2.401  1.00  0.00     0.409 C 
HETATM   24  F   UNL     1      43.861 -15.676   2.548  1.00  0.00    -0.169 F 
HETATM   25  F   UNL     1      44.342 -17.624   3.389  1.00  0.00    -0.169 F 
HETATM   26  F   UNL     1      44.236 -17.371   1.238  1.00  0.00    -0.169 F 
ENDBRANCH   8  23
BRANCH   6  27
HETATM   27  C   UNL     1      42.365 -15.895   5.508  1.00  0.00    -0.035 A 
HETATM   28  C   UNL     1      42.542 -14.501   5.399  1.00  0.00     0.012 A 
HETATM   29  C   UNL     1      43.567 -13.849   6.089  1.00  0.00     0.043 A 
HETATM   30  C   UNL     1      44.424 -14.585   6.895  1.00  0.00     0.116 A 
HETATM   31  F   UNL     1      45.406 -13.960   7.558  1.00  0.00    -0.206 F 
HETATM   32  C   UNL     1      44.278 -15.959   7.021  1.00  0.00     0.043 A 
HETATM   33  C   UNL     1      43.257 -16.612   6.325  1.00  0.00     0.012 A 
ENDBRANCH   6  27
TORSDOF 5
ENDMDL
MODEL 2
REMARK VINA RESULT:      -8.6      2.324      3.941
REMARK  5 active torsions:
REMARK  status: ('A' for Active; 'I' for Inactive)
REMARK    1  A    between atoms: C_3  and  O_4 
REMARK    2  A    between atoms: C_6  and  N_7 
REMARK       I    between atoms: N_7  and  C_8 
REMARK    3  A    between atoms: C_8  and  C_9 
REMARK    4  A    between atoms: C_14  and  C_15 
REMARK    5  A    between atoms: C_23  and  C_24 
ROOT
HETATM    1  C   UNL     1      40.216 -15.002   0.693  1.00  0.00     0.148 A 
HETATM    2  N   UNL     1      40.422 -14.997   2.031  1.00  0.00    -0.165 NA
HETATM    3  N   UNL     1      41.578 -15.672   2.172  1.00  0.00    -0.240 N 
HETATM    4  C   UNL     1      42.142 -16.062   0.990  1.00  0.00     0.123 A 
HETATM    5  N   UNL     1      43.328 -16.704   0.944  1.00  0.00    -0.366 N 
HETATM    6  C   UNL     1      44.080 -17.060   2.140  1.00  0.00     0.118 C 
HETATM    7  C   UNL     1      43.690 -16.158   3.327  1.00  0.00     0.066 C 
HETATM    8  C   UNL     1      42.180 -15.894   3.471  1.00  0.00     0.221 C 
HETATM    9  C   UNL     1      41.276 -15.658   0.009  1.00  0.00     0.089 A 
HETATM   10  H   UNL     1      43.696 -17.069   0.067  1.00  0.00     0.161 HD
ENDROOT
BRANCH   1  11
HETATM   11  C   UNL     1      39.024 -14.386   0.080  1.00  0.00     0.276 C 
HETATM   12  N   UNL     1      39.128 -14.327  -1.296  1.00  0.00    -0.322 N 
HETATM   13  H   UNL     1      40.003 -14.706  -1.649  1.00  0.00     0.169 HD
HETATM   14  O   UNL     1      38.093 -13.982   0.767  1.00  0.00    -0.266 OA
BRANCH  12  15
HETATM   15  C   UNL     1      38.209 -13.804  -2.221  1.00  0.00     0.037 A 
HETATM   16  C   UNL     1      37.738 -14.502  -3.333  1.00  0.00     0.066 A 
HETATM   17  C   UNL     1      36.824 -13.900  -4.198  1.00  0.00     0.067 A 
HETATM   18  C   UNL     1      36.364 -12.607  -3.972  1.00  0.00     0.036 A 
HETATM   19  C   UNL     1      36.831 -11.904  -2.863  1.00  0.00     0.005 A 
HETATM   20  C   UNL     1      37.750 -12.500  -1.994  1.00  0.00     0.029 A 
BRANCH  17  21
HETATM   21  O   UNL     1      36.396 -14.622  -5.274  1.00  0.00    -0.361 OA
HETATM   22  H   UNL     1      37.105 -15.221  -5.551  1.00  0.00     0.217 HD
ENDBRANCH  17  21
ENDBRANCH  12  15
ENDBRANCH   1  11
BRANCH   8  23
HETATM   23  C   UNL     1      41.431 -16.976   4.216  1.00  0.00     0.409 C 
HETATM   24  F   UNL     1      42.198 -17.693   5.057  1.00  0.00    -0.169 F 
HETATM   25  F   UNL     1      40.432 -16.427   4.954  1.00  0.00    -0.169 F 
HETATM   26  F   UNL     1      40.837 -17.848   3.368  1.00  0.00    -0.169 F 
ENDBRANCH   8  23
BRANCH   6  27
HETATM   27  C   UNL     1      44.050 -18.551   2.432  1.00  0.00    -0.035 A 
HETATM   28  C   UNL     1      44.630 -19.024   3.626  1.00  0.00     0.012 A 
HETATM   29  C   UNL     1      44.645 -20.389   3.928  1.00  0.00     0.043 A 
HETATM   30  C   UNL     1      44.080 -21.292   3.038  1.00  0.00     0.116 A 
HETATM   31  F   UNL     1      44.094 -22.600   3.328  1.00  0.00    -0.206 F 
HETATM   32  C   UNL     1      43.504 -20.858   1.853  1.00  0.00     0.043 A 
HETATM   33  C   UNL     1      43.495 -19.494   1.549  1.00  0.00     0.012 A 
ENDBRANCH   6  27
TORSDOF 5
ENDMDL
MODEL 3
REMARK VINA RESULT:      -8.5      2.027      2.248
REMARK  5 active torsions:
REMARK  status: ('A' for Active; 'I' for Inactive)
REMARK    1  A    between atoms: C_3  and  O_4 
REMARK    2  A    between atoms: C_6  and  N_7 
REMARK       I    between atoms: N_7  and  C_8 
REMARK    3  A    between atoms: C_8  and  C_9 
REMARK    4  A    between atoms: C_14  and  C_15 
REMARK    5  A    between atoms: C_23  and  C_24 
ROOT
HETATM    1  C   UNL     1      41.058 -15.324   0.027  1.00  0.00     0.148 A 
HETATM    2  N   UNL     1      41.811 -16.408   0.328  1.00  0.00    -0.165 NA
HETATM    3  N   UNL     1      41.696 -16.507   1.666  1.00  0.00    -0.240 N 
HETATM    4  C   UNL     1      40.870 -15.573   2.224  1.00  0.00     0.123 A 
HETATM    5  N   UNL     1      40.600 -15.558   3.546  1.00  0.00    -0.366 N 
HETATM    6  C   UNL     1      41.190 -16.506   4.482  1.00  0.00     0.118 C 
HETATM    7  C   UNL     1      41.639 -17.790   3.759  1.00  0.00     0.066 C 
HETATM    8  C   UNL     1      42.352 -17.561   2.414  1.00  0.00     0.221 C 
HETATM    9  C   UNL     1      40.450 -14.778   1.191  1.00  0.00     0.089 A 
HETATM   10  H   UNL     1      40.056 -14.805   3.964  1.00  0.00     0.161 HD
ENDROOT
BRANCH   1  11
HETATM   11  C   UNL     1      40.921 -14.824  -1.353  1.00  0.00     0.276 C 
HETATM   12  N   UNL     1      41.170 -13.468  -1.433  1.00  0.00    -0.322 N 
HETATM   13  H   UNL     1      41.395 -13.047  -0.535  1.00  0.00     0.169 HD
HETATM   14  O   UNL     1      40.607 -15.571  -2.273  1.00  0.00    -0.266 OA
BRANCH  12  15
HETATM   15  C   UNL     1      41.129 -12.636  -2.565  1.00  0.00     0.037 A 
HETATM   16  C   UNL     1      39.952 -12.250  -3.208  1.00  0.00     0.066 A 
HETATM   17  C   UNL     1      40.010 -11.419  -4.326  1.00  0.00     0.067 A 
HETATM   18  C   UNL     1      41.227 -10.958  -4.819  1.00  0.00     0.036 A 
HETATM   19  C   UNL     1      42.406 -11.340  -4.182  1.00  0.00     0.005 A 
HETATM   20  C   UNL     1      42.356 -12.176  -3.061  1.00  0.00     0.029 A 
BRANCH  17  21
HETATM   21  O   UNL     1      38.833 -11.073  -4.923  1.00  0.00    -0.361 OA
HETATM   22  H   UNL     1      38.979 -10.986  -5.877  1.00  0.00     0.217 HD
ENDBRANCH  17  21
ENDBRANCH  12  15
ENDBRANCH   1  11
BRANCH   8  23
HETATM   23  C   UNL     1      43.830 -17.270   2.539  1.00  0.00     0.409 C 
HETATM   24  F   UNL     1      44.127 -15.960   2.602  1.00  0.00    -0.169 F 
HETATM   25  F   UNL     1      44.325 -17.848   3.665  1.00  0.00    -0.169 F 
HETATM   26  F   UNL     1      44.533 -17.795   1.508  1.00  0.00    -0.169 F 
ENDBRANCH   8  23
BRANCH   6  27
HETATM   27  C   UNL     1      42.243 -15.873   5.377  1.00  0.00    -0.035 A 
HETATM   28  C   UNL     1      42.588 -14.522   5.173  1.00  0.00     0.012 A 
HETATM   29  C   UNL     1      43.566 -13.903   5.956  1.00  0.00     0.043 A 
HETATM   30  C   UNL     1      44.207 -14.629   6.950  1.00  0.00     0.116 A 
HETATM   31  F   UNL     1      45.143 -14.036   7.702  1.00  0.00    -0.206 F 
HETATM   32  C   UNL     1      43.891 -15.962   7.173  1.00  0.00     0.043 A 
HETATM   33  C   UNL     1      42.918 -16.583   6.385  1.00  0.00     0.012 A 
ENDBRANCH   6  27
TORSDOF 5
ENDMDL
MODEL 4
REMARK VINA RESULT:      -8.4      4.949      8.160
REMARK  5 active torsions:
REMARK  status: ('A' for Active; 'I' for Inactive)
REMARK    1  A    between atoms: C_3  and  O_4 
REMARK    2  A    between atoms: C_6  and  N_7 
REMARK       I    between atoms: N_7  and  C_8 
REMARK    3  A    between atoms: C_8  and  C_9 
REMARK    4  A    between atoms: C_14  and  C_15 
REMARK    5  A    between atoms: C_23  and  C_24 
ROOT
HETATM    1  C   UNL     1      40.303 -13.028   5.625  1.00  0.00     0.148 A 
HETATM    2  N   UNL     1      41.166 -12.951   4.585  1.00  0.00    -0.165 NA
HETATM    3  N   UNL     1      41.238 -14.220   4.142  1.00  0.00    -0.240 N 
HETATM    4  C   UNL     1      40.428 -15.091   4.816  1.00  0.00     0.123 A 
HETATM    5  N   UNL     1      40.337 -16.392   4.471  1.00  0.00    -0.366 N 
HETATM    6  C   UNL     1      41.113 -16.977   3.385  1.00  0.00     0.118 C 
HETATM    7  C   UNL     1      41.553 -15.898   2.377  1.00  0.00     0.066 C 
HETATM    8  C   UNL     1      42.063 -14.589   3.009  1.00  0.00     0.221 C 
HETATM    9  C   UNL     1      39.819 -14.355   5.796  1.00  0.00     0.089 A 
HETATM   10  H   UNL     1      39.801 -17.050   5.033  1.00  0.00     0.161 HD
ENDROOT
BRANCH   1  11
HETATM   11  C   UNL     1      39.947 -11.851   6.439  1.00  0.00     0.276 C 
HETATM   12  N   UNL     1      40.631 -11.833   7.639  1.00  0.00    -0.322 N 
HETATM   13  H   UNL     1      41.250 -12.630   7.761  1.00  0.00     0.169 HD
HETATM   14  O   UNL     1      39.126 -11.031   6.045  1.00  0.00    -0.266 OA
BRANCH  12  15
HETATM   15  C   UNL     1      40.553 -10.887   8.675  1.00  0.00     0.037 A 
HETATM   16  C   UNL     1      39.812 -11.069   9.843  1.00  0.00     0.066 A 
HETATM   17  C   UNL     1      39.795 -10.072  10.819  1.00  0.00     0.067 A 
HETATM   18  C   UNL     1      40.511  -8.891  10.654  1.00  0.00     0.036 A 
HETATM   19  C   UNL     1      41.253  -8.703   9.489  1.00  0.00     0.005 A 
HETATM   20  C   UNL     1      41.271  -9.696   8.505  1.00  0.00     0.029 A 
BRANCH  17  21
HETATM   21  O   UNL     1      39.053 -10.294  11.942  1.00  0.00    -0.361 OA
HETATM   22  H   UNL     1      38.945 -11.250  12.062  1.00  0.00     0.217 HD
ENDBRANCH  17  21
ENDBRANCH  12  15
ENDBRANCH   1  11
BRANCH   8  23
HETATM   23  C   UNL     1      43.519 -14.622   3.411  1.00  0.00     0.409 C 
HETATM   24  F   UNL     1      43.730 -15.045   4.670  1.00  0.00    -0.169 F 
HETATM   25  F   UNL     1      44.211 -15.453   2.588  1.00  0.00    -0.169 F 
HETATM   26  F   UNL     1      44.100 -13.405   3.290  1.00  0.00    -0.169 F 
ENDBRANCH   8  23
BRANCH   6  27
HETATM   27  C   UNL     1      42.228 -17.883   3.879  1.00  0.00    -0.035 A 
HETATM   28  C   UNL     1      43.065 -18.512   2.936  1.00  0.00     0.012 A 
HETATM   29  C   UNL     1      44.090 -19.371   3.342  1.00  0.00     0.043 A 
HETATM   30  C   UNL     1      44.287 -19.609   4.695  1.00  0.00     0.116 A 
HETATM   31  F   UNL     1      45.269 -20.431   5.084  1.00  0.00    -0.206 F 
HETATM   32  C   UNL     1      43.477 -19.007   5.648  1.00  0.00     0.043 A 
HETATM   33  C   UNL     1      42.448 -18.154   5.241  1.00  0.00     0.012 A 
ENDBRANCH   6  27
TORSDOF 5
ENDMDL
MODEL 5
REMARK VINA RESULT:      -8.3      4.199      8.626
REMARK  5 active torsions:
REMARK  status: ('A' for Active; 'I' for Inactive)
REMARK    1  A    between atoms: C_3  and  O_4 
REMARK    2  A    between atoms: C_6  and  N_7 
REMARK       I    between atoms: N_7  and  C_8 
REMARK    3  A    between atoms: C_8  and  C_9 
REMARK    4  A    between atoms: C_14  and  C_15 
REMARK    5  A    between atoms: C_23  and  C_24 
ROOT
HETATM    1  C   UNL     1      41.451 -16.534   1.506  1.00  0.00     0.148 A 
HETATM    2  N   UNL     1      40.406 -15.691   1.674  1.00  0.00    -0.165 NA
HETATM    3  N   UNL     1      40.379 -14.993   0.522  1.00  0.00    -0.240 N 
HETATM    4  C   UNL     1      41.321 -15.384  -0.387  1.00  0.00     0.123 A 
HETATM    5  N   UNL     1      41.402 -14.827  -1.613  1.00  0.00    -0.366 N 
HETATM    6  C   UNL     1      40.523 -13.750  -2.051  1.00  0.00     0.118 C 
HETATM    7  C   UNL     1      39.212 -13.743  -1.240  1.00  0.00     0.066 C 
HETATM    8  C   UNL     1      39.385 -13.968   0.273  1.00  0.00     0.221 C 
HETATM    9  C   UNL     1      42.046 -16.371   0.224  1.00  0.00     0.089 A 
HETATM   10  H   UNL     1      42.162 -15.061  -2.249  1.00  0.00     0.161 HD
ENDROOT
BRANCH   1  11
HETATM   11  C   UNL     1      41.871 -17.482   2.555  1.00  0.00     0.276 C 
HETATM   12  N   UNL     1      42.934 -18.262   2.145  1.00  0.00    -0.322 N 
HETATM   13  H   UNL     1      43.238 -18.060   1.196  1.00  0.00     0.169 HD
HETATM   14  O   UNL     1      41.296 -17.530   3.636  1.00  0.00    -0.266 OA
BRANCH  12  15
HETATM   15  C   UNL     1      43.600 -19.276   2.853  1.00  0.00     0.037 A 
HETATM   16  C   UNL     1      43.803 -20.567   2.364  1.00  0.00     0.066 A 
HETATM   17  C   UNL     1      44.477 -21.509   3.142  1.00  0.00     0.067 A 
HETATM   18  C   UNL     1      44.960 -21.186   4.406  1.00  0.00     0.036 A 
HETATM   19  C   UNL     1      44.760 -19.899   4.901  1.00  0.00     0.005 A 
HETATM   20  C   UNL     1      44.082 -18.950   4.129  1.00  0.00     0.029 A 
BRANCH  17  21
HETATM   21  O   UNL     1      44.648 -22.758   2.621  1.00  0.00    -0.361 OA
HETATM   22  H   UNL     1      43.840 -23.273   2.770  1.00  0.00     0.217 HD
ENDBRANCH  17  21
ENDBRANCH  12  15
ENDBRANCH   1  11
BRANCH   8  23
HETATM   23  C   UNL     1      39.720 -12.716   1.050  1.00  0.00     0.409 C 
HETATM   24  F   UNL     1      41.038 -12.530   1.248  1.00  0.00    -0.169 F 
HETATM   25  F   UNL     1      39.256 -11.621   0.394  1.00  0.00    -0.169 F 
HETATM   26  F   UNL     1      39.124 -12.706   2.266  1.00  0.00    -0.169 F 
ENDBRANCH   8  23
BRANCH   6  27
HETATM   27  C   UNL     1      41.231 -12.409  -2.135  1.00  0.00    -0.035 A 
HETATM   28  C   UNL     1      42.546 -12.300  -1.640  1.00  0.00     0.012 A 
HETATM   29  C   UNL     1      43.230 -11.082  -1.676  1.00  0.00     0.043 A 
HETATM   30  C   UNL     1      42.605  -9.962  -2.208  1.00  0.00     0.116 A 
HETATM   31  F   UNL     1      43.262  -8.795  -2.243  1.00  0.00    -0.206 F 
HETATM   32  C   UNL     1      41.310 -10.036  -2.700  1.00  0.00     0.043 A 
HETATM   33  C   UNL     1      40.624 -11.253  -2.657  1.00  0.00     0.012 A 
ENDBRANCH   6  27
TORSDOF 5
ENDMDL
MODEL 6
REMARK VINA RESULT:      -8.2      4.073      8.847
REMARK  5 active torsions:
REMARK  status: ('A' for Active; 'I' for Inactive)
REMARK    1  A    between atoms: C_3  and  O_4 
REMARK    2  A    between atoms: C_6  and  N_7 
REMARK       I    between atoms: N_7  and  C_8 
REMARK    3  A    between atoms: C_8  and  C_9 
REMARK    4  A    between atoms: C_14  and  C_15 
REMARK    5  A    between atoms: C_23  and  C_24 
ROOT
HETATM    1  C   UNL     1      42.166 -16.077   1.345  1.00  0.00     0.148 A 
HETATM    2  N   UNL     1      42.452 -14.775   1.107  1.00  0.00    -0.165 NA
HETATM    3  N   UNL     1      41.246 -14.229   0.863  1.00  0.00    -0.240 N 
HETATM    4  C   UNL     1      40.204 -15.105   0.983  1.00  0.00     0.123 A 
HETATM    5  N   UNL     1      38.923 -14.715   0.823  1.00  0.00    -0.366 N 
HETATM    6  C   UNL     1      38.550 -13.348   0.481  1.00  0.00     0.118 C 
HETATM    7  C   UNL     1      39.657 -12.356   0.885  1.00  0.00     0.066 C 
HETATM    8  C   UNL     1      41.091 -12.819   0.565  1.00  0.00     0.221 C 
HETATM    9  C   UNL     1      40.766 -16.318   1.279  1.00  0.00     0.089 A 
HETATM   10  H   UNL     1      38.162 -15.391   0.826  1.00  0.00     0.161 HD
ENDROOT
BRANCH   1  11
HETATM   11  C   UNL     1      43.216 -17.071   1.634  1.00  0.00     0.276 C 
HETATM   12  N   UNL     1      42.738 -18.111   2.406  1.00  0.00    -0.322 N 
HETATM   13  H   UNL     1      41.756 -18.012   2.650  1.00  0.00     0.169 HD
HETATM   14  O   UNL     1      44.361 -16.925   1.220  1.00  0.00    -0.266 OA
BRANCH  12  15
HETATM   15  C   UNL     1      43.433 -19.232   2.890  1.00  0.00     0.037 A 
HETATM   16  C   UNL     1      43.694 -20.376   2.135  1.00  0.00     0.066 A 
HETATM   17  C   UNL     1      44.393 -21.441   2.702  1.00  0.00     0.067 A 
HETATM   18  C   UNL     1      44.844 -21.387   4.017  1.00  0.00     0.036 A 
HETATM   19  C   UNL     1      44.586 -20.248   4.778  1.00  0.00     0.005 A 
HETATM   20  C   UNL     1      43.883 -19.177   4.217  1.00  0.00     0.029 A 
BRANCH  17  21
HETATM   21  O   UNL     1      44.621 -22.539   1.925  1.00  0.00    -0.361 OA
HETATM   22  H   UNL     1      44.584 -22.275   0.992  1.00  0.00     0.217 HD
ENDBRANCH  17  21
ENDBRANCH  12  15
ENDBRANCH   1  11
BRANCH   8  23
HETATM   23  C   UNL     1      41.532 -12.533  -0.851  1.00  0.00     0.409 C 
HETATM   24  F   UNL     1      40.861 -11.528  -1.441  1.00  0.00    -0.169 F 
HETATM   25  F   UNL     1      42.849 -12.200  -0.872  1.00  0.00    -0.169 F 
HETATM   26  F   UNL     1      41.408 -13.623  -1.645  1.00  0.00    -0.169 F 
ENDBRANCH   8  23
BRANCH   6  27
HETATM   27  C   UNL     1      38.061 -13.213  -0.952  1.00  0.00    -0.035 A 
HETATM   28  C   UNL     1      37.439 -12.013  -1.350  1.00  0.00     0.012 A 
HETATM   29  C   UNL     1      36.954 -11.851  -2.650  1.00  0.00     0.043 A 
HETATM   30  C   UNL     1      37.088 -12.886  -3.565  1.00  0.00     0.116 A 
HETATM   31  F   UNL     1      36.624 -12.730  -4.811  1.00  0.00    -0.206 F 
HETATM   32  C   UNL     1      37.693 -14.081  -3.202  1.00  0.00     0.043 A 
HETATM   33  C   UNL     1      38.172 -14.246  -1.900  1.00  0.00     0.012 A 
ENDBRANCH   6  27
TORSDOF 5
ENDMDL
MODEL 7
REMARK VINA RESULT:      -8.0      4.144      9.016
REMARK  5 active torsions:
REMARK  status: ('A' for Active; 'I' for Inactive)
REMARK    1  A    between atoms: C_3  and  O_4 
REMARK    2  A    between atoms: C_6  and  N_7 
REMARK       I    between atoms: N_7  and  C_8 
REMARK    3  A    between atoms: C_8  and  C_9 
REMARK    4  A    between atoms: C_14  and  C_15 
REMARK    5  A    between atoms: C_23  and  C_24 
ROOT
HETATM    1  C   UNL     1      41.150 -16.172   1.438  1.00  0.00     0.148 A 
HETATM    2  N   UNL     1      40.260 -15.158   1.548  1.00  0.00    -0.165 NA
HETATM    3  N   UNL     1      40.059 -14.778   0.272  1.00  0.00    -0.240 N 
HETATM    4  C   UNL     1      40.737 -15.529  -0.645  1.00  0.00     0.123 A 
HETATM    5  N   UNL     1      40.611 -15.319  -1.972  1.00  0.00    -0.366 N 
HETATM    6  C   UNL     1      39.776 -14.262  -2.528  1.00  0.00     0.118 C 
HETATM    7  C   UNL     1      38.679 -13.843  -1.531  1.00  0.00     0.066 C 
HETATM    8  C   UNL     1      39.148 -13.704  -0.071  1.00  0.00     0.221 C 
HETATM    9  C   UNL     1      41.470 -16.433   0.077  1.00  0.00     0.089 A 
HETATM   10  H   UNL     1      41.188 -15.823  -2.643  1.00  0.00     0.161 HD
ENDROOT
BRANCH   1  11
HETATM   11  C   UNL     1      41.684 -16.879   2.617  1.00  0.00     0.276 C 
HETATM   12  N   UNL     1      42.773 -17.663   2.294  1.00  0.00    -0.322 N 
HETATM   13  H   UNL     1      43.015 -17.628   1.307  1.00  0.00     0.169 HD
HETATM   14  O   UNL     1      41.168 -16.752   3.722  1.00  0.00    -0.266 OA
BRANCH  12  15
HETATM   15  C   UNL     1      43.539 -18.487   3.136  1.00  0.00     0.037 A 
HETATM   16  C   UNL     1      43.966 -18.117   4.412  1.00  0.00     0.066 A 
HETATM   17  C   UNL     1      44.724 -19.004   5.177  1.00  0.00     0.067 A 
HETATM   18  C   UNL     1      45.064 -20.263   4.694  1.00  0.00     0.036 A 
HETATM   19  C   UNL     1      44.641 -20.638   3.420  1.00  0.00     0.005 A 
HETATM   20  C   UNL     1      43.884 -19.753   2.646  1.00  0.00     0.029 A 
BRANCH  17  21
HETATM   21  O   UNL     1      45.121 -18.595   6.417  1.00  0.00    -0.361 OA
HETATM   22  H   UNL     1      45.432 -17.679   6.360  1.00  0.00     0.217 HD
ENDBRANCH  17  21
ENDBRANCH  12  15
ENDBRANCH   1  11
BRANCH   8  23
HETATM   23  C   UNL     1      39.772 -12.366   0.254  1.00  0.00     0.409 C 
HETATM   24  F   UNL     1      39.340 -11.357  -0.525  1.00  0.00    -0.169 F 
HETATM   25  F   UNL     1      39.500 -12.024   1.540  1.00  0.00    -0.169 F 
HETATM   26  F   UNL     1      41.122 -12.404   0.153  1.00  0.00    -0.169 F 
ENDBRANCH   8  23
BRANCH   6  27
HETATM   27  C   UNL     1      40.587 -13.114  -3.107  1.00  0.00    -0.035 A 
HETATM   28  C   UNL     1      39.915 -12.081  -3.790  1.00  0.00     0.012 A 
HETATM   29  C   UNL     1      40.620 -11.017  -4.358  1.00  0.00     0.043 A 
HETATM   30  C   UNL     1      42.003 -10.975  -4.248  1.00  0.00     0.116 A 
HETATM   31  F   UNL     1      42.679  -9.954  -4.791  1.00  0.00    -0.206 F 
HETATM   32  C   UNL     1      42.694 -11.979  -3.584  1.00  0.00     0.043 A 
HETATM   33  C   UNL     1      41.989 -13.047  -3.022  1.00  0.00     0.012 A 
ENDBRANCH   6  27
TORSDOF 5
ENDMDL
MODEL 8
REMARK VINA RESULT:      -8.0      2.603      3.107
REMARK  5 active torsions:
REMARK  status: ('A' for Active; 'I' for Inactive)
REMARK    1  A    between atoms: C_3  and  O_4 
REMARK    2  A    between atoms: C_6  and  N_7 
REMARK       I    between atoms: N_7  and  C_8 
REMARK    3  A    between atoms: C_8  and  C_9 
REMARK    4  A    between atoms: C_14  and  C_15 
REMARK    5  A    between atoms: C_23  and  C_24 
ROOT
HETATM    1  C   UNL     1      41.793 -13.799   0.575  1.00  0.00     0.148 A 
HETATM    2  N   UNL     1      41.971 -15.103   0.256  1.00  0.00    -0.165 NA
HETATM    3  N   UNL     1      41.797 -15.739   1.430  1.00  0.00    -0.240 N 
HETATM    4  C   UNL     1      41.470 -14.912   2.467  1.00  0.00     0.123 A 
HETATM    5  N   UNL     1      41.210 -15.387   3.703  1.00  0.00    -0.366 N 
HETATM    6  C   UNL     1      41.289 -16.803   4.037  1.00  0.00     0.118 C 
HETATM    7  C   UNL     1      41.125 -17.677   2.780  1.00  0.00     0.066 C 
HETATM    8  C   UNL     1      41.892 -17.181   1.540  1.00  0.00     0.221 C 
HETATM    9  C   UNL     1      41.475 -13.643   1.952  1.00  0.00     0.089 A 
HETATM   10  H   UNL     1      41.055 -14.757   4.488  1.00  0.00     0.161 HD
ENDROOT
BRANCH   1  11
HETATM   11  C   UNL     1      41.924 -12.723  -0.424  1.00  0.00     0.276 C 
HETATM   12  N   UNL     1      41.162 -12.972  -1.548  1.00  0.00    -0.322 N 
HETATM   13  H   UNL     1      40.652 -13.850  -1.501  1.00  0.00     0.169 HD
HETATM   14  O   UNL     1      42.650 -11.755  -0.225  1.00  0.00    -0.266 OA
BRANCH  12  15
HETATM   15  C   UNL     1      41.034 -12.192  -2.710  1.00  0.00     0.037 A 
HETATM   16  C   UNL     1      42.100 -11.852  -3.543  1.00  0.00     0.066 A 
HETATM   17  C   UNL     1      41.876 -11.071  -4.677  1.00  0.00     0.067 A 
HETATM   18  C   UNL     1      40.600 -10.622  -5.002  1.00  0.00     0.036 A 
HETATM   19  C   UNL     1      39.531 -10.957  -4.173  1.00  0.00     0.005 A 
HETATM   20  C   UNL     1      39.749 -11.736  -3.032  1.00  0.00     0.029 A 
BRANCH  17  21
HETATM   21  O   UNL     1      42.951 -10.763  -5.459  1.00  0.00    -0.361 OA
HETATM   22  H   UNL     1      42.951  -9.808  -5.629  1.00  0.00     0.217 HD
ENDBRANCH  17  21
ENDBRANCH  12  15
ENDBRANCH   1  11
BRANCH   8  23
HETATM   23  C   UNL     1      43.339 -17.614   1.494  1.00  0.00     0.409 C 
HETATM   24  F   UNL     1      44.182 -16.777   2.125  1.00  0.00    -0.169 F 
HETATM   25  F   UNL     1      43.480 -18.835   2.072  1.00  0.00    -0.169 F 
HETATM   26  F   UNL     1      43.781 -17.749   0.221  1.00  0.00    -0.169 F 
ENDBRANCH   8  23
BRANCH   6  27
HETATM   27  C   UNL     1      42.497 -17.138   4.897  1.00  0.00    -0.035 A 
HETATM   28  C   UNL     1      42.814 -18.492   5.130  1.00  0.00     0.012 A 
HETATM   29  C   UNL     1      43.902 -18.848   5.931  1.00  0.00     0.043 A 
HETATM   30  C   UNL     1      44.682 -17.855   6.507  1.00  0.00     0.116 A 
HETATM   31  F   UNL     1      45.726 -18.197   7.274  1.00  0.00    -0.206 F 
HETATM   32  C   UNL     1      44.393 -16.514   6.299  1.00  0.00     0.043 A 
HETATM   33  C   UNL     1      43.301 -16.158   5.504  1.00  0.00     0.012 A 
ENDBRANCH   6  27
TORSDOF 5
ENDMDL
MODEL 9
REMARK VINA RESULT:      -7.9      4.100      8.439
REMARK  5 active torsions:
REMARK  status: ('A' for Active; 'I' for Inactive)
REMARK    1  A    between atoms: C_3  and  O_4 
REMARK    2  A    between atoms: C_6  and  N_7 
REMARK       I    between atoms: N_7  and  C_8 
REMARK    3  A    between atoms: C_8  and  C_9 
REMARK    4  A    between atoms: C_14  and  C_15 
REMARK    5  A    between atoms: C_23  and  C_24 
ROOT
HETATM    1  C   UNL     1      41.370 -16.509   2.371  1.00  0.00     0.148 A 
HETATM    2  N   UNL     1      41.158 -15.318   2.979  1.00  0.00    -0.165 NA
HETATM    3  N   UNL     1      40.666 -14.546   1.992  1.00  0.00    -0.240 N 
HETATM    4  C   UNL     1      40.508 -15.198   0.802  1.00  0.00     0.123 A 
HETATM    5  N   UNL     1      39.978 -14.588  -0.279  1.00  0.00    -0.366 N 
HETATM    6  C   UNL     1      39.568 -13.190  -0.276  1.00  0.00     0.118 C 
HETATM    7  C   UNL     1      39.272 -12.705   1.156  1.00  0.00     0.066 C 
HETATM    8  C   UNL     1      40.287 -13.165   2.219  1.00  0.00     0.221 C 
HETATM    9  C   UNL     1      40.970 -16.470   1.006  1.00  0.00     0.089 A 
HETATM   10  H   UNL     1      39.947 -15.055  -1.184  1.00  0.00     0.161 HD
ENDROOT
BRANCH   1  11
HETATM   11  C   UNL     1      41.942 -17.664   3.086  1.00  0.00     0.276 C 
HETATM   12  N   UNL     1      42.671 -18.479   2.241  1.00  0.00    -0.322 N 
HETATM   13  H   UNL     1      42.681 -18.153   1.278  1.00  0.00     0.169 HD
HETATM   14  O   UNL     1      41.748 -17.831   4.284  1.00  0.00    -0.266 OA
BRANCH  12  15
HETATM   15  C   UNL     1      43.351 -19.670   2.547  1.00  0.00     0.037 A 
HETATM   16  C   UNL     1      44.122 -19.856   3.695  1.00  0.00     0.066 A 
HETATM   17  C   UNL     1      44.762 -21.076   3.914  1.00  0.00     0.067 A 
HETATM   18  C   UNL     1      44.646 -22.123   3.005  1.00  0.00     0.036 A 
HETATM   19  C   UNL     1      43.879 -21.943   1.855  1.00  0.00     0.005 A 
HETATM   20  C   UNL     1      43.237 -20.722   1.628  1.00  0.00     0.029 A 
BRANCH  17  21
HETATM   21  O   UNL     1      45.506 -21.209   5.049  1.00  0.00    -0.361 OA
HETATM   22  H   UNL     1      45.029 -20.798   5.786  1.00  0.00     0.217 HD
ENDBRANCH  17  21
ENDBRANCH  12  15
ENDBRANCH   1  11
BRANCH   8  23
HETATM   23  C   UNL     1      41.518 -12.294   2.318  1.00  0.00     0.409 C 
HETATM   24  F   UNL     1      41.318 -11.018   1.942  1.00  0.00    -0.169 F 
HETATM   25  F   UNL     1      41.970 -12.269   3.599  1.00  0.00    -0.169 F 
HETATM   26  F   UNL     1      42.537 -12.780   1.570  1.00  0.00    -0.169 F 
ENDBRANCH   8  23
BRANCH   6  27
HETATM   27  C   UNL     1      40.507 -12.299  -1.073  1.00  0.00    -0.035 A 
HETATM   28  C   UNL     1      41.660 -12.867  -1.650  1.00  0.00     0.012 A 
HETATM   29  C   UNL     1      42.563 -12.084  -2.373  1.00  0.00     0.043 A 
HETATM   30  C   UNL     1      42.321 -10.726  -2.527  1.00  0.00     0.116 A 
HETATM   31  F   UNL     1      43.186  -9.975  -3.221  1.00  0.00    -0.206 F 
HETATM   32  C   UNL     1      41.195 -10.137  -1.969  1.00  0.00     0.043 A 
HETATM   33  C   UNL     1      40.296 -10.919  -1.239  1.00  0.00     0.012 A 
ENDBRANCH   6  27
TORSDOF 5
ENDMDL
MODEL 10
REMARK VINA RESULT:      -7.9      4.729      8.083
REMARK  5 active torsions:
REMARK  status: ('A' for Active; 'I' for Inactive)
REMARK    1  A    between atoms: C_3  and  O_4 
REMARK    2  A    between atoms: C_6  and  N_7 
REMARK       I    between atoms: N_7  and  C_8 
REMARK    3  A    between atoms: C_8  and  C_9 
REMARK    4  A    between atoms: C_14  and  C_15 
REMARK    5  A    between atoms: C_23  and  C_24 
ROOT
HETATM    1  C   UNL     1      42.862 -16.088   3.165  1.00  0.00     0.148 A 
HETATM    2  N   UNL     1      41.777 -16.078   2.355  1.00  0.00    -0.165 NA
HETATM    3  N   UNL     1      41.558 -14.767   2.142  1.00  0.00    -0.240 N 
HETATM    4  C   UNL     1      42.476 -13.946   2.735  1.00  0.00     0.123 A 
HETATM    5  N   UNL     1      42.437 -12.606   2.583  1.00  0.00    -0.366 N 
HETATM    6  C   UNL     1      41.403 -11.929   1.810  1.00  0.00     0.118 C 
HETATM    7  C   UNL     1      40.771 -12.882   0.778  1.00  0.00     0.066 C 
HETATM    8  C   UNL     1      40.473 -14.299   1.303  1.00  0.00     0.221 C 
HETATM    9  C   UNL     1      43.328 -14.769   3.421  1.00  0.00     0.089 A 
HETATM   10  H   UNL     1      43.070 -11.998   3.100  1.00  0.00     0.161 HD
ENDROOT
BRANCH   1  11
HETATM   11  C   UNL     1      43.443 -17.341   3.682  1.00  0.00     0.276 C 
HETATM   12  N   UNL     1      43.349 -18.367   2.762  1.00  0.00    -0.322 N 
HETATM   13  H   UNL     1      42.893 -18.090   1.897  1.00  0.00     0.169 HD
HETATM   14  O   UNL     1      43.924 -17.402   4.808  1.00  0.00    -0.266 OA
BRANCH  12  15
HETATM   15  C   UNL     1      43.777 -19.699   2.891  1.00  0.00     0.037 A 
HETATM   16  C   UNL     1      44.381 -20.218   4.036  1.00  0.00     0.066 A 
HETATM   17  C   UNL     1      44.772 -21.557   4.072  1.00  0.00     0.067 A 
HETATM   18  C   UNL     1      44.568 -22.396   2.981  1.00  0.00     0.036 A 
HETATM   19  C   UNL     1      43.966 -21.883   1.833  1.00  0.00     0.005 A 
HETATM   20  C   UNL     1      43.574 -20.541   1.789  1.00  0.00     0.029 A 
BRANCH  17  21
HETATM   21  O   UNL     1      45.361 -22.017   5.213  1.00  0.00    -0.361 OA
HETATM   22  H   UNL     1      46.304 -22.165   5.040  1.00  0.00     0.217 HD
ENDBRANCH  17  21
ENDBRANCH  12  15
ENDBRANCH   1  11
BRANCH   8  23
HETATM   23  C   UNL     1      39.156 -14.425   2.032  1.00  0.00     0.409 C 
HETATM   24  F   UNL     1      38.555 -15.618   1.876  1.00  0.00    -0.169 F 
HETATM   25  F   UNL     1      39.341 -14.241   3.365  1.00  0.00    -0.169 F 
HETATM   26  F   UNL     1      38.274 -13.474   1.642  1.00  0.00    -0.169 F 
ENDBRANCH   8  23
BRANCH   6  27
HETATM   27  C   UNL     1      40.410 -11.181   2.684  1.00  0.00    -0.035 A 
HETATM   28  C   UNL     1      39.419 -10.390   2.068  1.00  0.00     0.012 A 
HETATM   29  C   UNL     1      38.498  -9.668   2.830  1.00  0.00     0.043 A 
HETATM   30  C   UNL     1      38.558  -9.730   4.216  1.00  0.00     0.116 A 
HETATM   31  F   UNL     1      37.674  -9.038   4.946  1.00  0.00    -0.206 F 
HETATM   32  C   UNL     1      39.524 -10.497   4.852  1.00  0.00     0.043 A 
HETATM   33  C   UNL     1      40.450 -11.213   4.089  1.00  0.00     0.012 A 
ENDBRANCH   6  27
TORSDOF 5
ENDMDL
