MODEL 1
REMARK VINA RESULT:      -9.1      0.000      0.000
REMARK  4 active torsions:
REMARK  status: ('A' for Active; 'I' for Inactive)
REMARK    1  A    between atoms: C_3  and  C_4 
REMARK    2  A    between atoms: C_5  and  C_6 
REMARK       I    between atoms: C_6  and  N_7 
REMARK    3  A    between atoms: N_7  and  C_8 
REMARK    4  A    between atoms: C_15  and  C_16 
REMARK       I    between atoms: C_16  and  N_17 
ROOT
HETATM    1  C   UNL     1      40.633 -15.918   1.591  1.00  0.00     0.035 A 
HETATM    2  C   UNL     1      41.096 -15.634   0.298  1.00  0.00     0.046 A 
HETATM    3  C   UNL     1      40.420 -14.680  -0.493  1.00  0.00     0.030 A 
HETATM    4  C   UNL     1      39.304 -14.042   0.034  1.00  0.00     0.063 A 
HETATM    5  N   UNL     1      38.883 -13.184  -0.943  1.00  0.00    -0.277 N 
HETATM    6  H   UNL     1      38.094 -12.550  -0.904  1.00  0.00     0.189 HD
HETATM    7  N   UNL     1      39.620 -13.213  -2.065  1.00  0.00    -0.168 NA
HETATM    8  C   UNL     1      40.575 -14.135  -1.803  1.00  0.00     0.156 A 
HETATM    9  C   UNL     1      38.811 -14.304   1.313  1.00  0.00     0.034 A 
HETATM   10  C   UNL     1      39.496 -15.258   2.077  1.00  0.00     0.032 A 
ENDROOT
BRANCH   1  11
HETATM   11  N   UNL     1      41.264 -16.831   2.464  1.00  0.00    -0.327 N 
HETATM   12  C   UNL     1      42.072 -16.530   3.537  1.00  0.00     0.227 C 
HETATM   13  O   UNL     1      42.470 -15.429   3.885  1.00  0.00    -0.273 OA
HETATM   14  H   UNL     1      41.064 -17.808   2.310  1.00  0.00     0.169 HD
BRANCH  12  15
HETATM   15  C   UNL     1      42.482 -17.696   4.367  1.00  0.00     0.087 A 
HETATM   16  C   UNL     1      43.929 -18.154   4.190  1.00  0.00     0.034 A 
HETATM   17  C   UNL     1      43.426 -17.699   5.535  1.00  0.00     0.025 A 
BRANCH  16  18
HETATM   18  C   UNL     1      44.205 -19.604   3.859  1.00  0.00    -0.031 A 
HETATM   19  C   UNL     1      44.600 -20.483   4.887  1.00  0.00     0.009 A 
HETATM   20  C   UNL     1      44.817 -21.843   4.654  1.00  0.00     0.001 A 
HETATM   21  C   UNL     1      44.635 -22.366   3.379  1.00  0.00     0.002 A 
HETATM   22  C   UNL     1      44.233 -21.528   2.342  1.00  0.00     0.024 A 
HETATM   23  C   UNL     1      44.014 -20.165   2.581  1.00  0.00     0.040 A 
HETATM   24 CL   UNL     1      43.465 -19.202   1.253  1.00  0.00    -0.084 Cl
ENDBRANCH  16  18
ENDBRANCH  12  15
ENDBRANCH   1  11
BRANCH   8  25
HETATM   25  C   UNL     1      41.603 -14.471  -2.798  1.00  0.00     0.270 C 
HETATM   26  N   UNL     1      42.664 -13.608  -2.821  1.00  0.00    -0.365 N 
HETATM   27  H   UNL     1      42.667 -12.825  -2.178  1.00  0.00     0.159 HD
HETATM   28  H   UNL     1      43.415 -13.759  -3.476  1.00  0.00     0.159 HD
HETATM   29  O   UNL     1      41.552 -15.431  -3.560  1.00  0.00    -0.266 OA
ENDBRANCH   8  25
TORSDOF 4
ENDMDL
MODEL 2
REMARK VINA RESULT:      -8.4      3.747      5.227
REMARK  4 active torsions:
REMARK  status: ('A' for Active; 'I' for Inactive)
REMARK    1  A    between atoms: C_3  and  C_4 
REMARK    2  A    between atoms: C_5  and  C_6 
REMARK       I    between atoms: C_6  and  N_7 
REMARK    3  A    between atoms: N_7  and  C_8 
REMARK    4  A    between atoms: C_15  and  C_16 
REMARK       I    between atoms: C_16  and  N_17 
ROOT
HETATM    1  C   UNL     1      40.825 -15.138   4.543  1.00  0.00     0.035 A 
HETATM    2  C   UNL     1      40.607 -14.217   5.576  1.00  0.00     0.046 A 
HETATM    3  C   UNL     1      39.893 -13.027   5.314  1.00  0.00     0.030 A 
HETATM    4  C   UNL     1      39.420 -12.799   4.028  1.00  0.00     0.063 A 
HETATM    5  N   UNL     1      38.774 -11.596   4.088  1.00  0.00    -0.277 N 
HETATM    6  H   UNL     1      38.299 -11.117   3.332  1.00  0.00     0.189 HD
HETATM    7  N   UNL     1      38.789 -11.015   5.298  1.00  0.00    -0.168 NA
HETATM    8  C   UNL     1      39.480 -11.888   6.069  1.00  0.00     0.156 A 
HETATM    9  C   UNL     1      39.626 -13.689   2.973  1.00  0.00     0.034 A 
HETATM   10  C   UNL     1      40.340 -14.860   3.257  1.00  0.00     0.032 A 
ENDROOT
BRANCH   1  11
HETATM   11  N   UNL     1      41.498 -16.367   4.720  1.00  0.00    -0.327 N 
HETATM   12  C   UNL     1      42.703 -16.570   5.351  1.00  0.00     0.227 C 
HETATM   13  O   UNL     1      43.464 -15.724   5.796  1.00  0.00    -0.273 OA
HETATM   14  H   UNL     1      41.019 -17.190   4.386  1.00  0.00     0.169 HD
BRANCH  12  15
HETATM   15  C   UNL     1      43.101 -17.995   5.515  1.00  0.00     0.087 A 
HETATM   16  C   UNL     1      44.348 -18.424   4.744  1.00  0.00     0.034 A 
HETATM   17  C   UNL     1      44.297 -18.532   6.246  1.00  0.00     0.025 A 
BRANCH  16  18
HETATM   18  C   UNL     1      44.268 -19.624   3.827  1.00  0.00    -0.031 A 
HETATM   19  C   UNL     1      44.762 -20.867   4.272  1.00  0.00     0.009 A 
HETATM   20  C   UNL     1      44.668 -22.022   3.492  1.00  0.00     0.001 A 
HETATM   21  C   UNL     1      44.066 -21.967   2.241  1.00  0.00     0.002 A 
HETATM   22  C   UNL     1      43.556 -20.758   1.775  1.00  0.00     0.024 A 
HETATM   23  C   UNL     1      43.650 -19.603   2.561  1.00  0.00     0.040 A 
HETATM   24 CL   UNL     1      42.945 -18.152   1.934  1.00  0.00    -0.084 Cl
ENDBRANCH  16  18
ENDBRANCH  12  15
ENDBRANCH   1  11
BRANCH   8  25
HETATM   25  C   UNL     1      39.726 -11.618   7.492  1.00  0.00     0.270 C 
HETATM   26  N   UNL     1      41.039 -11.388   7.799  1.00  0.00    -0.365 N 
HETATM   27  H   UNL     1      41.725 -11.423   7.055  1.00  0.00     0.159 HD
HETATM   28  H   UNL     1      41.302 -11.198   8.754  1.00  0.00     0.159 HD
HETATM   29  O   UNL     1      38.860 -11.592   8.360  1.00  0.00    -0.266 OA
ENDBRANCH   8  25
TORSDOF 4
ENDMDL
MODEL 3
REMARK VINA RESULT:      -8.3      1.268      1.680
REMARK  4 active torsions:
REMARK  status: ('A' for Active; 'I' for Inactive)
REMARK    1  A    between atoms: C_3  and  C_4 
REMARK    2  A    between atoms: C_5  and  C_6 
REMARK       I    between atoms: C_6  and  N_7 
REMARK    3  A    between atoms: N_7  and  C_8 
REMARK    4  A    between atoms: C_15  and  C_16 
REMARK       I    between atoms: C_16  and  N_17 
ROOT
HETATM    1  C   UNL     1      39.637 -14.920   1.228  1.00  0.00     0.035 A 
HETATM    2  C   UNL     1      40.366 -14.854   0.033  1.00  0.00     0.046 A 
HETATM    3  C   UNL     1      39.895 -14.053  -1.030  1.00  0.00     0.030 A 
HETATM    4  C   UNL     1      38.712 -13.344  -0.862  1.00  0.00     0.063 A 
HETATM    5  N   UNL     1      38.526 -12.667  -2.035  1.00  0.00    -0.277 N 
HETATM    6  H   UNL     1      37.763 -12.043  -2.268  1.00  0.00     0.189 HD
HETATM    7  N   UNL     1      39.479 -12.878  -2.957  1.00  0.00    -0.168 NA
HETATM    8  C   UNL     1      40.334 -13.735  -2.350  1.00  0.00     0.156 A 
HETATM    9  C   UNL     1      37.957 -13.392   0.310  1.00  0.00     0.034 A 
HETATM   10  C   UNL     1      38.443 -14.197   1.348  1.00  0.00     0.032 A 
ENDROOT
BRANCH   1  11
HETATM   11  N   UNL     1      40.049 -15.667   2.354  1.00  0.00    -0.327 N 
HETATM   12  C   UNL     1      40.584 -16.934   2.359  1.00  0.00     0.227 C 
HETATM   13  O   UNL     1      40.723 -17.689   1.409  1.00  0.00    -0.273 OA
HETATM   14  H   UNL     1      39.983 -15.201   3.247  1.00  0.00     0.169 HD
BRANCH  12  15
HETATM   15  C   UNL     1      41.060 -17.416   3.685  1.00  0.00     0.087 A 
HETATM   16  C   UNL     1      42.562 -17.287   3.934  1.00  0.00     0.034 A 
HETATM   17  C   UNL     1      41.572 -16.587   4.828  1.00  0.00     0.025 A 
BRANCH  16  18
HETATM   18  C   UNL     1      43.342 -18.510   4.363  1.00  0.00    -0.031 A 
HETATM   19  C   UNL     1      43.397 -18.848   5.730  1.00  0.00     0.009 A 
HETATM   20  C   UNL     1      44.057 -19.994   6.182  1.00  0.00     0.001 A 
HETATM   21  C   UNL     1      44.676 -20.842   5.272  1.00  0.00     0.002 A 
HETATM   22  C   UNL     1      44.631 -20.544   3.912  1.00  0.00     0.024 A 
HETATM   23  C   UNL     1      43.966 -19.396   3.463  1.00  0.00     0.040 A 
HETATM   24 CL   UNL     1      43.909 -19.125   1.755  1.00  0.00    -0.084 Cl
ENDBRANCH  16  18
ENDBRANCH  12  15
ENDBRANCH   1  11
BRANCH   8  25
HETATM   25  C   UNL     1      41.537 -14.225  -3.039  1.00  0.00     0.270 C 
HETATM   26  N   UNL     1      42.629 -13.413  -2.903  1.00  0.00    -0.365 N 
HETATM   27  H   UNL     1      42.537 -12.561  -2.362  1.00  0.00     0.159 HD
HETATM   28  H   UNL     1      43.498 -13.668  -3.346  1.00  0.00     0.159 HD
HETATM   29  O   UNL     1      41.598 -15.263  -3.688  1.00  0.00    -0.266 OA
ENDBRANCH   8  25
TORSDOF 4
ENDMDL
MODEL 4
REMARK VINA RESULT:      -8.3      1.415      1.713
REMARK  4 active torsions:
REMARK  status: ('A' for Active; 'I' for Inactive)
REMARK    1  A    between atoms: C_3  and  C_4 
REMARK    2  A    between atoms: C_5  and  C_6 
REMARK       I    between atoms: C_6  and  N_7 
REMARK    3  A    between atoms: N_7  and  C_8 
REMARK    4  A    between atoms: C_15  and  C_16 
REMARK       I    between atoms: C_16  and  N_17 
ROOT
HETATM    1  C   UNL     1      40.321 -15.576   1.267  1.00  0.00     0.035 A 
HETATM    2  C   UNL     1      41.006 -15.026   0.174  1.00  0.00     0.046 A 
HETATM    3  C   UNL     1      40.399 -14.006  -0.590  1.00  0.00     0.030 A 
HETATM    4  C   UNL     1      39.129 -13.568  -0.236  1.00  0.00     0.063 A 
HETATM    5  N   UNL     1      38.821 -12.587  -1.136  1.00  0.00    -0.277 N 
HETATM    6  H   UNL     1      37.970 -12.039  -1.178  1.00  0.00     0.189 HD
HETATM    7  N   UNL     1      39.773 -12.352  -2.053  1.00  0.00    -0.168 NA
HETATM    8  C   UNL     1      40.758 -13.223  -1.728  1.00  0.00     0.156 A 
HETATM    9  C   UNL     1      38.415 -14.097   0.840  1.00  0.00     0.034 A 
HETATM   10  C   UNL     1      39.036 -15.111   1.580  1.00  0.00     0.032 A 
ENDROOT
BRANCH   1  11
HETATM   11  N   UNL     1      40.861 -16.574   2.107  1.00  0.00    -0.327 N 
HETATM   12  C   UNL     1      41.498 -16.390   3.312  1.00  0.00     0.227 C 
HETATM   13  O   UNL     1      41.798 -15.331   3.843  1.00  0.00    -0.273 OA
HETATM   14  H   UNL     1      40.725 -17.529   1.809  1.00  0.00     0.169 HD
BRANCH  12  15
HETATM   15  C   UNL     1      41.837 -17.639   4.047  1.00  0.00     0.087 A 
HETATM   16  C   UNL     1      43.308 -18.050   4.006  1.00  0.00     0.034 A 
HETATM   17  C   UNL     1      42.626 -17.766   5.319  1.00  0.00     0.025 A 
BRANCH  16  18
HETATM   18  C   UNL     1      43.668 -19.446   3.547  1.00  0.00    -0.031 A 
HETATM   19  C   UNL     1      43.444 -19.809   2.203  1.00  0.00     0.009 A 
HETATM   20  C   UNL     1      43.805 -21.064   1.707  1.00  0.00     0.001 A 
HETATM   21  C   UNL     1      44.410 -21.994   2.545  1.00  0.00     0.002 A 
HETATM   22  C   UNL     1      44.658 -21.663   3.875  1.00  0.00     0.024 A 
HETATM   23  C   UNL     1      44.297 -20.402   4.367  1.00  0.00     0.040 A 
HETATM   24 CL   UNL     1      44.687 -20.050   6.016  1.00  0.00    -0.084 Cl
ENDBRANCH  16  18
ENDBRANCH  12  15
ENDBRANCH   1  11
BRANCH   8  25
HETATM   25  C   UNL     1      42.004 -13.288  -2.505  1.00  0.00     0.270 C 
HETATM   26  N   UNL     1      42.074 -14.350  -3.364  1.00  0.00    -0.365 N 
HETATM   27  H   UNL     1      41.295 -14.996  -3.401  1.00  0.00     0.159 HD
HETATM   28  H   UNL     1      42.895 -14.476  -3.934  1.00  0.00     0.159 HD
HETATM   29  O   UNL     1      42.924 -12.481  -2.420  1.00  0.00    -0.266 OA
ENDBRANCH   8  25
TORSDOF 4
ENDMDL
MODEL 5
REMARK VINA RESULT:      -8.2      2.670      3.867
REMARK  4 active torsions:
REMARK  status: ('A' for Active; 'I' for Inactive)
REMARK    1  A    between atoms: C_3  and  C_4 
REMARK    2  A    between atoms: C_5  and  C_6 
REMARK       I    between atoms: C_6  and  N_7 
REMARK    3  A    between atoms: N_7  and  C_8 
REMARK    4  A    between atoms: C_15  and  C_16 
REMARK       I    between atoms: C_16  and  N_17 
ROOT
HETATM    1  C   UNL     1      40.691 -15.717   3.200  1.00  0.00     0.035 A 
HETATM    2  C   UNL     1      40.304 -14.561   3.891  1.00  0.00     0.046 A 
HETATM    3  C   UNL     1      39.573 -13.557   3.220  1.00  0.00     0.030 A 
HETATM    4  C   UNL     1      39.251 -13.744   1.881  1.00  0.00     0.063 A 
HETATM    5  N   UNL     1      38.546 -12.630   1.520  1.00  0.00    -0.277 N 
HETATM    6  H   UNL     1      38.146 -12.425   0.612  1.00  0.00     0.189 HD
HETATM    7  N   UNL     1      38.386 -11.728   2.502  1.00  0.00    -0.168 NA
HETATM    8  C   UNL     1      39.017 -12.287   3.561  1.00  0.00     0.156 A 
HETATM    9  C   UNL     1      39.626 -14.878   1.160  1.00  0.00     0.034 A 
HETATM   10  C   UNL     1      40.354 -15.857   1.847  1.00  0.00     0.032 A 
ENDROOT
BRANCH   1  11
HETATM   11  N   UNL     1      41.394 -16.786   3.798  1.00  0.00    -0.327 N 
HETATM   12  C   UNL     1      42.539 -16.706   4.557  1.00  0.00     0.227 C 
HETATM   13  O   UNL     1      43.215 -15.715   4.784  1.00  0.00    -0.273 OA
HETATM   14  H   UNL     1      40.985 -17.703   3.693  1.00  0.00     0.169 HD
BRANCH  12  15
HETATM   15  C   UNL     1      42.977 -17.985   5.179  1.00  0.00     0.087 A 
HETATM   16  C   UNL     1      44.342 -18.504   4.728  1.00  0.00     0.034 A 
HETATM   17  C   UNL     1      44.081 -18.185   6.178  1.00  0.00     0.025 A 
BRANCH  16  18
HETATM   18  C   UNL     1      44.453 -19.917   4.201  1.00  0.00    -0.031 A 
HETATM   19  C   UNL     1      44.792 -20.959   5.087  1.00  0.00     0.009 A 
HETATM   20  C   UNL     1      44.858 -22.291   4.671  1.00  0.00     0.001 A 
HETATM   21  C   UNL     1      44.576 -22.620   3.350  1.00  0.00     0.002 A 
HETATM   22  C   UNL     1      44.225 -21.616   2.451  1.00  0.00     0.024 A 
HETATM   23  C   UNL     1      44.158 -20.283   2.873  1.00  0.00     0.040 A 
HETATM   24 CL   UNL     1      43.663 -19.103   1.709  1.00  0.00    -0.084 Cl
ENDBRANCH  16  18
ENDBRANCH  12  15
ENDBRANCH   1  11
BRANCH   8  25
HETATM   25  C   UNL     1      39.075 -11.603   4.861  1.00  0.00     0.270 C 
HETATM   26  N   UNL     1      39.558 -10.325   4.800  1.00  0.00    -0.365 N 
HETATM   27  H   UNL     1      39.836  -9.953   3.899  1.00  0.00     0.159 HD
HETATM   28  H   UNL     1      39.637  -9.781   5.645  1.00  0.00     0.159 HD
HETATM   29  O   UNL     1      38.730 -12.099   5.929  1.00  0.00    -0.266 OA
ENDBRANCH   8  25
TORSDOF 4
ENDMDL
MODEL 6
REMARK VINA RESULT:      -8.0      1.813      2.289
REMARK  4 active torsions:
REMARK  status: ('A' for Active; 'I' for Inactive)
REMARK    1  A    between atoms: C_3  and  C_4 
REMARK    2  A    between atoms: C_5  and  C_6 
REMARK       I    between atoms: C_6  and  N_7 
REMARK    3  A    between atoms: N_7  and  C_8 
REMARK    4  A    between atoms: C_15  and  C_16 
REMARK       I    between atoms: C_16  and  N_17 
ROOT
HETATM    1  C   UNL     1      42.588 -15.355   3.291  1.00  0.00     0.035 A 
HETATM    2  C   UNL     1      41.978 -15.425   2.032  1.00  0.00     0.046 A 
HETATM    3  C   UNL     1      41.624 -14.235   1.358  1.00  0.00     0.030 A 
HETATM    4  C   UNL     1      41.894 -13.016   1.967  1.00  0.00     0.063 A 
HETATM    5  N   UNL     1      41.457 -12.067   1.085  1.00  0.00    -0.277 N 
HETATM    6  H   UNL     1      41.499 -11.061   1.196  1.00  0.00     0.189 HD
HETATM    7  N   UNL     1      40.918 -12.560  -0.042  1.00  0.00    -0.168 NA
HETATM    8  C   UNL     1      41.014 -13.902   0.113  1.00  0.00     0.156 A 
HETATM    9  C   UNL     1      42.493 -12.908   3.223  1.00  0.00     0.034 A 
HETATM   10  C   UNL     1      42.830 -14.102   3.872  1.00  0.00     0.032 A 
ENDROOT
BRANCH   1  11
HETATM   11  N   UNL     1      43.005 -16.489   4.022  1.00  0.00    -0.327 N 
HETATM   12  C   UNL     1      42.401 -17.029   5.134  1.00  0.00     0.227 C 
HETATM   13  O   UNL     1      41.449 -16.584   5.755  1.00  0.00    -0.273 OA
HETATM   14  H   UNL     1      43.808 -16.982   3.660  1.00  0.00     0.169 HD
BRANCH  12  15
HETATM   15  C   UNL     1      42.983 -18.314   5.610  1.00  0.00     0.087 A 
HETATM   16  C   UNL     1      44.322 -18.703   4.986  1.00  0.00     0.034 A 
HETATM   17  C   UNL     1      44.196 -18.504   6.474  1.00  0.00     0.025 A 
BRANCH  16  18
HETATM   18  C   UNL     1      44.466 -20.065   4.344  1.00  0.00    -0.031 A 
HETATM   19  C   UNL     1      44.745 -21.184   5.155  1.00  0.00     0.009 A 
HETATM   20  C   UNL     1      44.836 -22.474   4.627  1.00  0.00     0.001 A 
HETATM   21  C   UNL     1      44.641 -22.683   3.267  1.00  0.00     0.002 A 
HETATM   22  C   UNL     1      44.351 -21.601   2.439  1.00  0.00     0.024 A 
HETATM   23  C   UNL     1      44.258 -20.310   2.972  1.00  0.00     0.040 A 
HETATM   24 CL   UNL     1      43.842 -19.028   1.887  1.00  0.00    -0.084 Cl
ENDBRANCH  16  18
ENDBRANCH  12  15
ENDBRANCH   1  11
BRANCH   8  25
HETATM   25  C   UNL     1      40.524 -14.824  -0.922  1.00  0.00     0.270 C 
HETATM   26  N   UNL     1      39.254 -14.558  -1.354  1.00  0.00    -0.365 N 
HETATM   27  H   UNL     1      38.756 -13.776  -0.944  1.00  0.00     0.159 HD
HETATM   28  H   UNL     1      38.835 -15.142  -2.060  1.00  0.00     0.159 HD
HETATM   29  O   UNL     1      41.165 -15.762  -1.384  1.00  0.00    -0.266 OA
ENDBRANCH   8  25
TORSDOF 4
ENDMDL
MODEL 7
REMARK VINA RESULT:      -7.9      2.377      3.143
REMARK  4 active torsions:
REMARK  status: ('A' for Active; 'I' for Inactive)
REMARK    1  A    between atoms: C_3  and  C_4 
REMARK    2  A    between atoms: C_5  and  C_6 
REMARK       I    between atoms: C_6  and  N_7 
REMARK    3  A    between atoms: N_7  and  C_8 
REMARK    4  A    between atoms: C_15  and  C_16 
REMARK       I    between atoms: C_16  and  N_17 
ROOT
HETATM    1  C   UNL     1      41.542 -15.295  -0.370  1.00  0.00     0.035 A 
HETATM    2  C   UNL     1      41.944 -13.953  -0.330  1.00  0.00     0.046 A 
HETATM    3  C   UNL     1      41.780 -13.139  -1.472  1.00  0.00     0.030 A 
HETATM    4  C   UNL     1      41.218 -13.694  -2.615  1.00  0.00     0.063 A 
HETATM    5  N   UNL     1      41.180 -12.678  -3.529  1.00  0.00    -0.277 N 
HETATM    6  H   UNL     1      40.826 -12.720  -4.478  1.00  0.00     0.189 HD
HETATM    7  N   UNL     1      41.676 -11.511  -3.087  1.00  0.00    -0.168 NA
HETATM    8  C   UNL     1      42.052 -11.781  -1.814  1.00  0.00     0.156 A 
HETATM    9  C   UNL     1      40.813 -15.027  -2.694  1.00  0.00     0.034 A 
HETATM   10  C   UNL     1      40.990 -15.815  -1.549  1.00  0.00     0.032 A 
ENDROOT
BRANCH   1  11
HETATM   11  N   UNL     1      41.636 -16.172   0.732  1.00  0.00    -0.327 N 
HETATM   12  C   UNL     1      40.937 -16.098   1.915  1.00  0.00     0.227 C 
HETATM   13  O   UNL     1      40.172 -15.216   2.275  1.00  0.00    -0.273 OA
HETATM   14  H   UNL     1      42.252 -16.964   0.621  1.00  0.00     0.169 HD
BRANCH  12  15
HETATM   15  C   UNL     1      41.137 -17.246   2.842  1.00  0.00     0.087 A 
HETATM   16  C   UNL     1      42.555 -17.415   3.386  1.00  0.00     0.034 A 
HETATM   17  C   UNL     1      41.394 -17.192   4.321  1.00  0.00     0.025 A 
BRANCH  16  18
HETATM   18  C   UNL     1      43.246 -18.751   3.231  1.00  0.00    -0.031 A 
HETATM   19  C   UNL     1      43.000 -19.526   2.080  1.00  0.00     0.009 A 
HETATM   20  C   UNL     1      43.648 -20.743   1.855  1.00  0.00     0.001 A 
HETATM   21  C   UNL     1      44.573 -21.217   2.778  1.00  0.00     0.002 A 
HETATM   22  C   UNL     1      44.849 -20.470   3.921  1.00  0.00     0.024 A 
HETATM   23  C   UNL     1      44.199 -19.250   4.141  1.00  0.00     0.040 A 
HETATM   24 CL   UNL     1      44.637 -18.357   5.557  1.00  0.00    -0.084 Cl
ENDBRANCH  16  18
ENDBRANCH  12  15
ENDBRANCH   1  11
BRANCH   8  25
HETATM   25  C   UNL     1      42.657 -10.745  -0.964  1.00  0.00     0.270 C 
HETATM   26  N   UNL     1      41.753 -10.003  -0.256  1.00  0.00    -0.365 N 
HETATM   27  H   UNL     1      40.766 -10.208  -0.364  1.00  0.00     0.159 HD
HETATM   28  H   UNL     1      42.078  -9.267   0.350  1.00  0.00     0.159 HD
HETATM   29  O   UNL     1      43.861 -10.532  -0.870  1.00  0.00    -0.266 OA
ENDBRANCH   8  25
TORSDOF 4
ENDMDL
MODEL 8
REMARK VINA RESULT:      -7.8      2.415      3.735
REMARK  4 active torsions:
REMARK  status: ('A' for Active; 'I' for Inactive)
REMARK    1  A    between atoms: C_3  and  C_4 
REMARK    2  A    between atoms: C_5  and  C_6 
REMARK       I    between atoms: C_6  and  N_7 
REMARK    3  A    between atoms: N_7  and  C_8 
REMARK    4  A    between atoms: C_15  and  C_16 
REMARK       I    between atoms: C_16  and  N_17 
ROOT
HETATM    1  C   UNL     1      40.931 -15.214  -1.295  1.00  0.00     0.035 A 
HETATM    2  C   UNL     1      40.004 -14.196  -1.033  1.00  0.00     0.046 A 
HETATM    3  C   UNL     1      39.039 -13.860  -2.007  1.00  0.00     0.030 A 
HETATM    4  C   UNL     1      39.032 -14.555  -3.210  1.00  0.00     0.063 A 
HETATM    5  N   UNL     1      37.998 -14.023  -3.929  1.00  0.00    -0.277 N 
HETATM    6  H   UNL     1      37.695 -14.292  -4.857  1.00  0.00     0.189 HD
HETATM    7  N   UNL     1      37.335 -13.036  -3.305  1.00  0.00    -0.168 NA
HETATM    8  C   UNL     1      37.968 -12.923  -2.114  1.00  0.00     0.156 A 
HETATM    9  C   UNL     1      39.944 -15.569  -3.509  1.00  0.00     0.034 A 
HETATM   10  C   UNL     1      40.893 -15.880  -2.527  1.00  0.00     0.032 A 
ENDROOT
BRANCH   1  11
HETATM   11  N   UNL     1      41.908 -15.639  -0.368  1.00  0.00    -0.327 N 
HETATM   12  C   UNL     1      41.692 -16.267   0.837  1.00  0.00     0.227 C 
HETATM   13  O   UNL     1      40.620 -16.495   1.378  1.00  0.00    -0.273 OA
HETATM   14  H   UNL     1      42.870 -15.507  -0.642  1.00  0.00     0.169 HD
BRANCH  12  15
HETATM   15  C   UNL     1      42.920 -16.729   1.540  1.00  0.00     0.087 A 
HETATM   16  C   UNL     1      42.923 -18.196   1.967  1.00  0.00     0.034 A 
HETATM   17  C   UNL     1      43.971 -17.668   1.022  1.00  0.00     0.025 A 
BRANCH  16  18
HETATM   18  C   UNL     1      43.212 -18.540   3.411  1.00  0.00    -0.031 A 
HETATM   19  C   UNL     1      42.513 -17.865   4.433  1.00  0.00     0.009 A 
HETATM   20  C   UNL     1      42.697 -18.176   5.783  1.00  0.00     0.001 A 
HETATM   21  C   UNL     1      43.584 -19.182   6.149  1.00  0.00     0.002 A 
HETATM   22  C   UNL     1      44.281 -19.877   5.164  1.00  0.00     0.024 A 
HETATM   23  C   UNL     1      44.092 -19.564   3.812  1.00  0.00     0.040 A 
HETATM   24 CL   UNL     1      44.954 -20.509   2.647  1.00  0.00    -0.084 Cl
ENDBRANCH  16  18
ENDBRANCH  12  15
ENDBRANCH   1  11
BRANCH   8  25
HETATM   25  C   UNL     1      37.540 -11.932  -1.116  1.00  0.00     0.270 C 
HETATM   26  N   UNL     1      37.118 -12.475   0.067  1.00  0.00    -0.365 N 
HETATM   27  H   UNL     1      37.125 -13.483   0.168  1.00  0.00     0.159 HD
HETATM   28  H   UNL     1      36.802 -11.870   0.808  1.00  0.00     0.159 HD
HETATM   29  O   UNL     1      37.545 -10.718  -1.288  1.00  0.00    -0.266 OA
ENDBRANCH   8  25
TORSDOF 4
ENDMDL
MODEL 9
REMARK VINA RESULT:      -7.7      3.061      8.491
REMARK  4 active torsions:
REMARK  status: ('A' for Active; 'I' for Inactive)
REMARK    1  A    between atoms: C_3  and  C_4 
REMARK    2  A    between atoms: C_5  and  C_6 
REMARK       I    between atoms: C_6  and  N_7 
REMARK    3  A    between atoms: N_7  and  C_8 
REMARK    4  A    between atoms: C_15  and  C_16 
REMARK       I    between atoms: C_16  and  N_17 
ROOT
HETATM    1  C   UNL     1      42.926 -17.661   2.490  1.00  0.00     0.035 A 
HETATM    2  C   UNL     1      43.305 -17.819   3.830  1.00  0.00     0.046 A 
HETATM    3  C   UNL     1      43.892 -19.032   4.253  1.00  0.00     0.030 A 
HETATM    4  C   UNL     1      44.081 -20.045   3.321  1.00  0.00     0.063 A 
HETATM    5  N   UNL     1      44.668 -21.068   4.014  1.00  0.00    -0.277 N 
HETATM    6  H   UNL     1      44.954 -21.969   3.650  1.00  0.00     0.189 HD
HETATM    7  N   UNL     1      44.870 -20.815   5.317  1.00  0.00    -0.168 NA
HETATM    8  C   UNL     1      44.395 -19.558   5.481  1.00  0.00     0.156 A 
HETATM    9  C   UNL     1      43.709 -19.926   1.982  1.00  0.00     0.034 A 
HETATM   10  C   UNL     1      43.125 -18.715   1.588  1.00  0.00     0.032 A 
ENDROOT
BRANCH   1  11
HETATM   11  N   UNL     1      42.364 -16.474   1.972  1.00  0.00    -0.327 N 
HETATM   12  C   UNL     1      41.029 -16.203   1.779  1.00  0.00     0.227 C 
HETATM   13  O   UNL     1      40.084 -16.962   1.930  1.00  0.00    -0.273 OA
HETATM   14  H   UNL     1      43.011 -15.728   1.763  1.00  0.00     0.169 HD
BRANCH  12  15
HETATM   15  C   UNL     1      40.721 -14.810   1.350  1.00  0.00     0.087 A 
HETATM   16  C   UNL     1      40.419 -14.629  -0.137  1.00  0.00     0.034 A 
HETATM   17  C   UNL     1      39.395 -14.263   0.906  1.00  0.00     0.025 A 
BRANCH  16  18
HETATM   18  C   UNL     1      41.200 -13.601  -0.924  1.00  0.00    -0.031 A 
HETATM   19  C   UNL     1      41.581 -12.397  -0.298  1.00  0.00     0.009 A 
HETATM   20  C   UNL     1      42.348 -11.432  -0.957  1.00  0.00     0.001 A 
HETATM   21  C   UNL     1      42.764 -11.651  -2.265  1.00  0.00     0.002 A 
HETATM   22  C   UNL     1      42.416 -12.836  -2.908  1.00  0.00     0.024 A 
HETATM   23  C   UNL     1      41.650 -13.801  -2.244  1.00  0.00     0.040 A 
HETATM   24 CL   UNL     1      41.305 -15.269  -3.094  1.00  0.00    -0.084 Cl
ENDBRANCH  16  18
ENDBRANCH  12  15
ENDBRANCH   1  11
BRANCH   8  25
HETATM   25  C   UNL     1      44.430 -18.896   6.793  1.00  0.00     0.270 C 
HETATM   26  N   UNL     1      43.639 -19.486   7.739  1.00  0.00    -0.365 N 
HETATM   27  H   UNL     1      43.101 -20.305   7.481  1.00  0.00     0.159 HD
HETATM   28  H   UNL     1      43.597 -19.096   8.668  1.00  0.00     0.159 HD
HETATM   29  O   UNL     1      45.096 -17.900   7.056  1.00  0.00    -0.266 OA
ENDBRANCH   8  25
TORSDOF 4
ENDMDL
MODEL 10
REMARK VINA RESULT:      -7.7      2.257      3.029
REMARK  4 active torsions:
REMARK  status: ('A' for Active; 'I' for Inactive)
REMARK    1  A    between atoms: C_3  and  C_4 
REMARK    2  A    between atoms: C_5  and  C_6 
REMARK       I    between atoms: C_6  and  N_7 
REMARK    3  A    between atoms: N_7  and  C_8 
REMARK    4  A    between atoms: C_15  and  C_16 
REMARK       I    between atoms: C_16  and  N_17 
ROOT
HETATM    1  C   UNL     1      40.666 -15.056   1.103  1.00  0.00     0.035 A 
HETATM    2  C   UNL     1      40.623 -15.091  -0.297  1.00  0.00     0.046 A 
HETATM    3  C   UNL     1      39.624 -14.367  -0.984  1.00  0.00     0.030 A 
HETATM    4  C   UNL     1      38.703 -13.633  -0.248  1.00  0.00     0.063 A 
HETATM    5  N   UNL     1      37.886 -13.045  -1.174  1.00  0.00    -0.277 N 
HETATM    6  H   UNL     1      37.101 -12.430  -0.996  1.00  0.00     0.189 HD
HETATM    7  N   UNL     1      38.188 -13.338  -2.449  1.00  0.00    -0.168 NA
HETATM    8  C   UNL     1      39.262 -14.156  -2.349  1.00  0.00     0.156 A 
HETATM    9  C   UNL     1      38.711 -13.581   1.146  1.00  0.00     0.034 A 
HETATM   10  C   UNL     1      39.709 -14.311   1.805  1.00  0.00     0.032 A 
ENDROOT
BRANCH   1  11
HETATM   11  N   UNL     1      41.648 -15.720   1.871  1.00  0.00    -0.327 N 
HETATM   12  C   UNL     1      41.978 -17.055   1.822  1.00  0.00     0.227 C 
HETATM   13  O   UNL     1      41.430 -17.935   1.177  1.00  0.00    -0.273 OA
HETATM   14  H   UNL     1      42.196 -15.142   2.491  1.00  0.00     0.169 HD
BRANCH  12  15
HETATM   15  C   UNL     1      43.154 -17.447   2.647  1.00  0.00     0.087 A 
HETATM   16  C   UNL     1      42.899 -18.545   3.678  1.00  0.00     0.034 A 
HETATM   17  C   UNL     1      43.922 -18.736   2.588  1.00  0.00     0.025 A 
BRANCH  16  18
HETATM   18  C   UNL     1      43.269 -18.295   5.123  1.00  0.00    -0.031 A 
HETATM   19  C   UNL     1      44.578 -18.584   5.560  1.00  0.00     0.009 A 
HETATM   20  C   UNL     1      44.995 -18.325   6.868  1.00  0.00     0.001 A 
HETATM   21  C   UNL     1      44.110 -17.759   7.779  1.00  0.00     0.002 A 
HETATM   22  C   UNL     1      42.813 -17.451   7.377  1.00  0.00     0.024 A 
HETATM   23  C   UNL     1      42.400 -17.709   6.064  1.00  0.00     0.040 A 
HETATM   24 CL   UNL     1      40.790 -17.248   5.629  1.00  0.00    -0.084 Cl
ENDBRANCH  16  18
ENDBRANCH  12  15
ENDBRANCH   1  11
BRANCH   8  25
HETATM   25  C   UNL     1      39.910 -14.713  -3.545  1.00  0.00     0.270 C 
HETATM   26  N   UNL     1      39.098 -15.513  -4.300  1.00  0.00    -0.365 N 
HETATM   27  H   UNL     1      38.144 -15.665  -3.993  1.00  0.00     0.159 HD
HETATM   28  H   UNL     1      39.460 -15.942  -5.137  1.00  0.00     0.159 HD
HETATM   29  O   UNL     1      41.073 -14.503  -3.873  1.00  0.00    -0.266 OA
ENDBRANCH   8  25
TORSDOF 4
ENDMDL
