MODEL 1
REMARK VINA RESULT:      -8.3      0.000      0.000
REMARK  3 active torsions:
REMARK  status: ('A' for Active; 'I' for Inactive)
REMARK    1  A    between atoms: C_4  and  N_5 
REMARK       I    between atoms: N_5  and  C_6 
REMARK    2  A    between atoms: C_6  and  C_7 
REMARK    3  A    between atoms: C_7  and  C_8 
ROOT
HETATM    1  C   UNL     1      41.623 -15.114   3.691  1.00  0.00     0.286 C 
HETATM    2  N   UNL     1      40.622 -16.098   3.087  1.00  0.00    -0.056 N 
HETATM    3  H   UNL     1      41.170 -16.965   2.892  1.00  0.00     0.278 HD
HETATM    4  H   UNL     1      39.910 -16.371   3.774  1.00  0.00     0.278 HD
HETATM    5  C   UNL     1      40.004 -15.679   1.785  1.00  0.00     0.209 C 
HETATM    6  C   UNL     1      41.118 -15.265   0.795  1.00  0.00     0.115 C 
HETATM    7  N   UNL     1      42.055 -14.304   1.374  1.00  0.00    -0.353 N 
HETATM    8  C   UNL     1      42.529 -14.415   2.657  1.00  0.00     0.249 C 
HETATM    9  O   UNL     1      43.589 -13.883   2.970  1.00  0.00    -0.271 OA
HETATM   10  C   UNL     1      38.971 -14.577   2.024  1.00  0.00     0.035 C 
HETATM   11  C   UNL     1      38.384 -14.093   0.700  1.00  0.00     0.002 C 
HETATM   12  C   UNL     1      39.476 -13.632  -0.263  1.00  0.00     0.002 C 
HETATM   13  C   UNL     1      40.517 -14.725  -0.506  1.00  0.00     0.027 C 
HETATM   14  H   UNL     1      42.735 -13.872   0.751  1.00  0.00     0.163 HD
ENDROOT
BRANCH   1  15
HETATM   15  C   UNL     1      42.485 -15.795   4.768  1.00  0.00     0.146 C 
BRANCH  15  16
HETATM   16  C   UNL     1      42.482 -17.296   4.561  1.00  0.00     0.224 C 
HETATM   17  N   UNL     1      43.542 -17.767   3.828  1.00  0.00    -0.327 N 
HETATM   18  H   UNL     1      44.180 -17.092   3.419  1.00  0.00     0.169 HD
HETATM   19  O   UNL     1      41.593 -17.954   5.104  1.00  0.00    -0.273 OA
BRANCH  17  20
HETATM   20  C   UNL     1      43.834 -19.117   3.520  1.00  0.00     0.035 A 
HETATM   21  C   UNL     1      44.374 -20.029   4.429  1.00  0.00     0.036 A 
HETATM   22  C   UNL     1      44.645 -21.354   4.050  1.00  0.00    -0.060 A 
HETATM   23  C   UNL     1      45.204 -22.322   5.053  1.00  0.00     0.048 C 
HETATM   24  C   UNL     1      44.353 -21.767   2.748  1.00  0.00     0.007 A 
HETATM   25  C   UNL     1      43.815 -20.864   1.833  1.00  0.00     0.003 A 
HETATM   26  C   UNL     1      43.559 -19.546   2.216  1.00  0.00     0.029 A 
ENDBRANCH  17  20
ENDBRANCH  15  16
ENDBRANCH   1  15
TORSDOF 3
ENDMDL
MODEL 2
REMARK VINA RESULT:      -8.2      3.155      3.867
REMARK  3 active torsions:
REMARK  status: ('A' for Active; 'I' for Inactive)
REMARK    1  A    between atoms: C_4  and  N_5 
REMARK       I    between atoms: N_5  and  C_6 
REMARK    2  A    between atoms: C_6  and  C_7 
REMARK    3  A    between atoms: C_7  and  C_8 
ROOT
HETATM    1  C   UNL     1      43.391 -15.856   6.535  1.00  0.00     0.286 C 
HETATM    2  N   UNL     1      42.659 -15.870   5.194  1.00  0.00    -0.056 N 
HETATM    3  H   UNL     1      43.410 -15.851   4.469  1.00  0.00     0.278 HD
HETATM    4  H   UNL     1      42.162 -16.756   5.052  1.00  0.00     0.278 HD
HETATM    5  C   UNL     1      41.774 -14.688   4.926  1.00  0.00     0.209 C 
HETATM    6  C   UNL     1      42.568 -13.383   5.169  1.00  0.00     0.115 C 
HETATM    7  N   UNL     1      43.243 -13.370   6.465  1.00  0.00    -0.353 N 
HETATM    8  C   UNL     1      43.897 -14.466   6.969  1.00  0.00     0.249 C 
HETATM    9  O   UNL     1      44.782 -14.324   7.807  1.00  0.00    -0.271 OA
HETATM   10  C   UNL     1      40.500 -14.783   5.767  1.00  0.00     0.035 C 
HETATM   11  C   UNL     1      39.622 -13.552   5.556  1.00  0.00     0.002 C 
HETATM   12  C   UNL     1      40.385 -12.261   5.846  1.00  0.00     0.002 C 
HETATM   13  C   UNL     1      41.662 -12.157   5.013  1.00  0.00     0.027 C 
HETATM   14  H   UNL     1      43.672 -12.496   6.767  1.00  0.00     0.163 HD
ENDROOT
BRANCH   1  15
HETATM   15  C   UNL     1      44.555 -16.862   6.538  1.00  0.00     0.146 C 
BRANCH  15  16
HETATM   16  C   UNL     1      44.076 -18.211   6.039  1.00  0.00     0.224 C 
HETATM   17  N   UNL     1      44.947 -18.839   5.185  1.00  0.00    -0.327 N 
HETATM   18  H   UNL     1      45.778 -18.335   4.892  1.00  0.00     0.169 HD
HETATM   19  O   UNL     1      43.009 -18.645   6.476  1.00  0.00    -0.273 OA
BRANCH  17  20
HETATM   20  C   UNL     1      44.798 -20.120   4.604  1.00  0.00     0.035 A 
HETATM   21  C   UNL     1      44.514 -20.340   3.254  1.00  0.00     0.036 A 
HETATM   22  C   UNL     1      44.372 -21.642   2.747  1.00  0.00    -0.060 A 
HETATM   23  C   UNL     1      44.090 -21.853   1.287  1.00  0.00     0.048 C 
HETATM   24  C   UNL     1      44.533 -22.733   3.606  1.00  0.00     0.007 A 
HETATM   25  C   UNL     1      44.815 -22.524   4.954  1.00  0.00     0.003 A 
HETATM   26  C   UNL     1      44.943 -21.225   5.451  1.00  0.00     0.029 A 
ENDBRANCH  17  20
ENDBRANCH  15  16
ENDBRANCH   1  15
TORSDOF 3
ENDMDL
MODEL 3
REMARK VINA RESULT:      -8.1      2.191      3.327
REMARK  3 active torsions:
REMARK  status: ('A' for Active; 'I' for Inactive)
REMARK    1  A    between atoms: C_4  and  N_5 
REMARK       I    between atoms: N_5  and  C_6 
REMARK    2  A    between atoms: C_6  and  C_7 
REMARK    3  A    between atoms: C_7  and  C_8 
ROOT
HETATM    1  C   UNL     1      40.921 -15.350   0.486  1.00  0.00     0.286 C 
HETATM    2  N   UNL     1      41.702 -14.798  -0.705  1.00  0.00    -0.056 N 
HETATM    3  H   UNL     1      42.062 -13.869  -0.395  1.00  0.00     0.278 HD
HETATM    4  H   UNL     1      42.536 -15.365  -0.897  1.00  0.00     0.278 HD
HETATM    5  C   UNL     1      40.901 -14.554  -1.951  1.00  0.00     0.209 C 
HETATM    6  C   UNL     1      39.652 -13.710  -1.603  1.00  0.00     0.115 C 
HETATM    7  N   UNL     1      38.898 -14.261  -0.478  1.00  0.00    -0.353 N 
HETATM    8  C   UNL     1      39.506 -14.759   0.647  1.00  0.00     0.249 C 
HETATM    9  O   UNL     1      38.891 -14.813   1.706  1.00  0.00    -0.271 OA
HETATM   10  C   UNL     1      40.560 -15.882  -2.626  1.00  0.00     0.035 C 
HETATM   11  C   UNL     1      39.685 -15.652  -3.857  1.00  0.00     0.002 C 
HETATM   12  C   UNL     1      38.424 -14.865  -3.510  1.00  0.00     0.002 C 
HETATM   13  C   UNL     1      38.752 -13.536  -2.830  1.00  0.00     0.027 C 
HETATM   14  H   UNL     1      37.989 -13.851  -0.271  1.00  0.00     0.163 HD
ENDROOT
BRANCH   1  15
HETATM   15  C   UNL     1      41.713 -15.177   1.793  1.00  0.00     0.146 C 
BRANCH  15  16
HETATM   16  C   UNL     1      41.919 -16.523   2.458  1.00  0.00     0.224 C 
HETATM   17  N   UNL     1      43.133 -17.106   2.192  1.00  0.00    -0.327 N 
HETATM   18  H   UNL     1      43.747 -16.650   1.524  1.00  0.00     0.169 HD
HETATM   19  O   UNL     1      41.035 -16.940   3.208  1.00  0.00    -0.273 OA
BRANCH  17  20
HETATM   20  C   UNL     1      43.625 -18.326   2.709  1.00  0.00     0.035 A 
HETATM   21  C   UNL     1      43.689 -19.517   1.981  1.00  0.00     0.036 A 
HETATM   22  C   UNL     1      44.184 -20.695   2.564  1.00  0.00    -0.060 A 
HETATM   23  C   UNL     1      44.264 -21.957   1.752  1.00  0.00     0.048 C 
HETATM   24  C   UNL     1      44.634 -20.669   3.886  1.00  0.00     0.007 A 
HETATM   25  C   UNL     1      44.573 -19.487   4.621  1.00  0.00     0.003 A 
HETATM   26  C   UNL     1      44.069 -18.323   4.036  1.00  0.00     0.029 A 
ENDBRANCH  17  20
ENDBRANCH  15  16
ENDBRANCH   1  15
TORSDOF 3
ENDMDL
MODEL 4
REMARK VINA RESULT:      -7.5      3.618      7.398
REMARK  3 active torsions:
REMARK  status: ('A' for Active; 'I' for Inactive)
REMARK    1  A    between atoms: C_4  and  N_5 
REMARK       I    between atoms: N_5  and  C_6 
REMARK    2  A    between atoms: C_6  and  C_7 
REMARK    3  A    between atoms: C_7  and  C_8 
ROOT
HETATM    1  C   UNL     1      42.519 -17.630   5.774  1.00  0.00     0.286 C 
HETATM    2  N   UNL     1      44.037 -17.766   5.886  1.00  0.00    -0.056 N 
HETATM    3  H   UNL     1      44.423 -16.861   5.536  1.00  0.00     0.278 HD
HETATM    4  H   UNL     1      44.334 -17.830   6.866  1.00  0.00     0.278 HD
HETATM    5  C   UNL     1      44.655 -18.848   5.049  1.00  0.00     0.209 C 
HETATM    6  C   UNL     1      44.165 -18.714   3.588  1.00  0.00     0.115 C 
HETATM    7  N   UNL     1      42.710 -18.609   3.492  1.00  0.00    -0.353 N 
HETATM    8  C   UNL     1      41.965 -17.843   4.352  1.00  0.00     0.249 C 
HETATM    9  O   UNL     1      40.858 -17.437   4.013  1.00  0.00    -0.271 OA
HETATM   10  C   UNL     1      44.359 -20.218   5.659  1.00  0.00     0.035 C 
HETATM   11  C   UNL     1      44.923 -21.333   4.780  1.00  0.00     0.002 C 
HETATM   12  C   UNL     1      44.401 -21.237   3.349  1.00  0.00     0.002 C 
HETATM   13  C   UNL     1      44.687 -19.870   2.729  1.00  0.00     0.027 C 
HETATM   14  H   UNL     1      42.292 -18.659   2.564  1.00  0.00     0.163 HD
ENDROOT
BRANCH   1  15
HETATM   15  C   UNL     1      42.046 -16.273   6.324  1.00  0.00     0.146 C 
BRANCH  15  16
HETATM   16  C   UNL     1      43.159 -15.250   6.208  1.00  0.00     0.224 C 
HETATM   17  N   UNL     1      43.584 -14.740   7.409  1.00  0.00    -0.327 N 
HETATM   18  H   UNL     1      43.083 -15.010   8.249  1.00  0.00     0.169 HD
HETATM   19  O   UNL     1      43.616 -15.015   5.089  1.00  0.00    -0.273 OA
BRANCH  17  20
HETATM   20  C   UNL     1      44.634 -13.815   7.619  1.00  0.00     0.035 A 
HETATM   21  C   UNL     1      44.655 -12.876   8.654  1.00  0.00     0.036 A 
HETATM   22  C   UNL     1      45.729 -11.982   8.797  1.00  0.00    -0.060 A 
HETATM   23  C   UNL     1      45.739 -10.998   9.931  1.00  0.00     0.048 C 
HETATM   24  C   UNL     1      46.798 -12.047   7.900  1.00  0.00     0.007 A 
HETATM   25  C   UNL     1      46.786 -12.979   6.865  1.00  0.00     0.003 A 
HETATM   26  C   UNL     1      45.708 -13.856   6.724  1.00  0.00     0.029 A 
ENDBRANCH  17  20
ENDBRANCH  15  16
ENDBRANCH   1  15
TORSDOF 3
ENDMDL
MODEL 5
REMARK VINA RESULT:      -7.5      2.289      6.865
REMARK  3 active torsions:
REMARK  status: ('A' for Active; 'I' for Inactive)
REMARK    1  A    between atoms: C_4  and  N_5 
REMARK       I    between atoms: N_5  and  C_6 
REMARK    2  A    between atoms: C_6  and  C_7 
REMARK    3  A    between atoms: C_7  and  C_8 
ROOT
HETATM    1  C   UNL     1      43.673 -17.400   2.799  1.00  0.00     0.286 C 
HETATM    2  N   UNL     1      42.858 -18.574   3.340  1.00  0.00    -0.056 N 
HETATM    3  H   UNL     1      41.943 -18.531   2.839  1.00  0.00     0.278 HD
HETATM    4  H   UNL     1      43.277 -19.472   3.071  1.00  0.00     0.278 HD
HETATM    5  C   UNL     1      42.547 -18.527   4.808  1.00  0.00     0.209 C 
HETATM    6  C   UNL     1      41.934 -17.151   5.160  1.00  0.00     0.115 C 
HETATM    7  N   UNL     1      42.734 -16.035   4.660  1.00  0.00    -0.353 N 
HETATM    8  C   UNL     1      43.303 -16.035   3.411  1.00  0.00     0.249 C 
HETATM    9  O   UNL     1      43.588 -14.974   2.865  1.00  0.00    -0.271 OA
HETATM   10  C   UNL     1      43.799 -18.854   5.622  1.00  0.00     0.035 C 
HETATM   11  C   UNL     1      43.513 -18.741   7.118  1.00  0.00     0.002 C 
HETATM   12  C   UNL     1      42.957 -17.366   7.481  1.00  0.00     0.002 C 
HETATM   13  C   UNL     1      41.707 -17.026   6.670  1.00  0.00     0.027 C 
HETATM   14  H   UNL     1      42.481 -15.097   4.965  1.00  0.00     0.163 HD
ENDROOT
BRANCH   1  15
HETATM   15  C   UNL     1      43.584 -17.329   1.265  1.00  0.00     0.146 C 
BRANCH  15  16
HETATM   16  C   UNL     1      42.181 -16.940   0.843  1.00  0.00     0.224 C 
HETATM   17  N   UNL     1      42.101 -15.737   0.189  1.00  0.00    -0.327 N 
HETATM   18  H   UNL     1      42.943 -15.175   0.115  1.00  0.00     0.169 HD
HETATM   19  O   UNL     1      41.269 -17.739   1.060  1.00  0.00    -0.273 OA
BRANCH  17  20
HETATM   20  C   UNL     1      40.943 -15.142  -0.364  1.00  0.00     0.035 A 
HETATM   21  C   UNL     1      39.905 -14.595   0.394  1.00  0.00     0.036 A 
HETATM   22  C   UNL     1      38.780 -14.026  -0.225  1.00  0.00    -0.060 A 
HETATM   23  C   UNL     1      37.688 -13.423   0.612  1.00  0.00     0.048 C 
HETATM   24  C   UNL     1      38.708 -13.994  -1.620  1.00  0.00     0.007 A 
HETATM   25  C   UNL     1      39.738 -14.539  -2.385  1.00  0.00     0.003 A 
HETATM   26  C   UNL     1      40.847 -15.112  -1.760  1.00  0.00     0.029 A 
ENDBRANCH  17  20
ENDBRANCH  15  16
ENDBRANCH   1  15
TORSDOF 3
ENDMDL
MODEL 6
REMARK VINA RESULT:      -7.4      2.303      3.347
REMARK  3 active torsions:
REMARK  status: ('A' for Active; 'I' for Inactive)
REMARK    1  A    between atoms: C_4  and  N_5 
REMARK       I    between atoms: N_5  and  C_6 
REMARK    2  A    between atoms: C_6  and  C_7 
REMARK    3  A    between atoms: C_7  and  C_8 
ROOT
HETATM    1  C   UNL     1      41.127 -15.004   0.267  1.00  0.00     0.286 C 
HETATM    2  N   UNL     1      41.719 -14.477  -1.039  1.00  0.00    -0.056 N 
HETATM    3  H   UNL     1      41.967 -13.481  -0.849  1.00  0.00     0.278 HD
HETATM    4  H   UNL     1      42.605 -14.944  -1.261  1.00  0.00     0.278 HD
HETATM    5  C   UNL     1      40.788 -14.469  -2.217  1.00  0.00     0.209 C 
HETATM    6  C   UNL     1      39.466 -13.768  -1.825  1.00  0.00     0.115 C 
HETATM    7  N   UNL     1      38.896 -14.297  -0.588  1.00  0.00    -0.353 N 
HETATM    8  C   UNL     1      39.661 -14.594   0.512  1.00  0.00     0.249 C 
HETATM    9  O   UNL     1      39.151 -14.621   1.627  1.00  0.00    -0.271 OA
HETATM   10  C   UNL     1      40.583 -15.893  -2.736  1.00  0.00     0.035 C 
HETATM   11  C   UNL     1      39.584 -15.907  -3.890  1.00  0.00     0.002 C 
HETATM   12  C   UNL     1      38.258 -15.264  -3.493  1.00  0.00     0.002 C 
HETATM   13  C   UNL     1      38.450 -13.841  -2.969  1.00  0.00     0.027 C 
HETATM   14  H   UNL     1      37.958 -13.993  -0.331  1.00  0.00     0.163 HD
ENDROOT
BRANCH   1  15
HETATM   15  C   UNL     1      41.994 -14.595   1.469  1.00  0.00     0.146 C 
BRANCH  15  16
HETATM   16  C   UNL     1      42.250 -15.796   2.358  1.00  0.00     0.224 C 
HETATM   17  N   UNL     1      43.026 -16.771   1.782  1.00  0.00    -0.327 N 
HETATM   18  H   UNL     1      43.290 -16.659   0.808  1.00  0.00     0.169 HD
HETATM   19  O   UNL     1      41.807 -15.772   3.507  1.00  0.00    -0.273 OA
BRANCH  17  20
HETATM   20  C   UNL     1      43.472 -17.972   2.381  1.00  0.00     0.035 A 
HETATM   21  C   UNL     1      43.882 -18.078   3.712  1.00  0.00     0.036 A 
HETATM   22  C   UNL     1      44.321 -19.304   4.238  1.00  0.00    -0.060 A 
HETATM   23  C   UNL     1      44.735 -19.397   5.679  1.00  0.00     0.048 C 
HETATM   24  C   UNL     1      44.329 -20.437   3.420  1.00  0.00     0.007 A 
HETATM   25  C   UNL     1      43.922 -20.341   2.091  1.00  0.00     0.003 A 
HETATM   26  C   UNL     1      43.499 -19.115   1.574  1.00  0.00     0.029 A 
ENDBRANCH  17  20
ENDBRANCH  15  16
ENDBRANCH   1  15
TORSDOF 3
ENDMDL
MODEL 7
REMARK VINA RESULT:      -7.4      2.276      3.342
REMARK  3 active torsions:
REMARK  status: ('A' for Active; 'I' for Inactive)
REMARK    1  A    between atoms: C_4  and  N_5 
REMARK       I    between atoms: N_5  and  C_6 
REMARK    2  A    between atoms: C_6  and  C_7 
REMARK    3  A    between atoms: C_7  and  C_8 
ROOT
HETATM    1  C   UNL     1      41.630 -14.383   2.453  1.00  0.00     0.286 C 
HETATM    2  N   UNL     1      40.300 -14.874   3.022  1.00  0.00    -0.056 N 
HETATM    3  H   UNL     1      39.679 -15.014   2.195  1.00  0.00     0.278 HD
HETATM    4  H   UNL     1      40.400 -15.802   3.450  1.00  0.00     0.278 HD
HETATM    5  C   UNL     1      39.591 -13.917   3.934  1.00  0.00     0.209 C 
HETATM    6  C   UNL     1      39.481 -12.535   3.247  1.00  0.00     0.115 C 
HETATM    7  N   UNL     1      40.764 -12.063   2.729  1.00  0.00    -0.353 N 
HETATM    8  C   UNL     1      41.647 -12.887   2.078  1.00  0.00     0.249 C 
HETATM    9  O   UNL     1      42.476 -12.415   1.307  1.00  0.00    -0.271 OA
HETATM   10  C   UNL     1      40.296 -13.861   5.290  1.00  0.00     0.035 C 
HETATM   11  C   UNL     1      39.626 -12.838   6.204  1.00  0.00     0.002 C 
HETATM   12  C   UNL     1      39.562 -11.458   5.553  1.00  0.00     0.002 C 
HETATM   13  C   UNL     1      38.862 -11.503   4.194  1.00  0.00     0.027 C 
HETATM   14  H   UNL     1      40.813 -11.104   2.387  1.00  0.00     0.163 HD
ENDROOT
BRANCH   1  15
HETATM   15  C   UNL     1      42.060 -15.231   1.244  1.00  0.00     0.146 C 
BRANCH  15  16
HETATM   16  C   UNL     1      42.161 -16.690   1.643  1.00  0.00     0.224 C 
HETATM   17  N   UNL     1      43.384 -17.054   2.148  1.00  0.00    -0.327 N 
HETATM   18  H   UNL     1      44.131 -16.366   2.137  1.00  0.00     0.169 HD
HETATM   19  O   UNL     1      41.152 -17.390   1.543  1.00  0.00    -0.273 OA
BRANCH  17  20
HETATM   20  C   UNL     1      43.757 -18.323   2.649  1.00  0.00     0.035 A 
HETATM   21  C   UNL     1      43.781 -19.491   1.882  1.00  0.00     0.036 A 
HETATM   22  C   UNL     1      44.155 -20.720   2.449  1.00  0.00    -0.060 A 
HETATM   23  C   UNL     1      44.195 -21.957   1.599  1.00  0.00     0.048 C 
HETATM   24  C   UNL     1      44.526 -20.769   3.796  1.00  0.00     0.007 A 
HETATM   25  C   UNL     1      44.505 -19.610   4.568  1.00  0.00     0.003 A 
HETATM   26  C   UNL     1      44.120 -18.394   3.998  1.00  0.00     0.029 A 
ENDBRANCH  17  20
ENDBRANCH  15  16
ENDBRANCH   1  15
TORSDOF 3
ENDMDL
MODEL 8
REMARK VINA RESULT:      -7.2      2.066      3.616
REMARK  3 active torsions:
REMARK  status: ('A' for Active; 'I' for Inactive)
REMARK    1  A    between atoms: C_4  and  N_5 
REMARK       I    between atoms: N_5  and  C_6 
REMARK    2  A    between atoms: C_6  and  C_7 
REMARK    3  A    between atoms: C_7  and  C_8 
ROOT
HETATM    1  C   UNL     1      39.599 -14.470   0.748  1.00  0.00     0.286 C 
HETATM    2  N   UNL     1      40.563 -15.433   0.058  1.00  0.00    -0.056 N 
HETATM    3  H   UNL     1      41.357 -15.557   0.725  1.00  0.00     0.278 HD
HETATM    4  H   UNL     1      40.146 -16.365  -0.048  1.00  0.00     0.278 HD
HETATM    5  C   UNL     1      41.158 -14.944  -1.231  1.00  0.00     0.209 C 
HETATM    6  C   UNL     1      41.759 -13.535  -1.019  1.00  0.00     0.115 C 
HETATM    7  N   UNL     1      40.819 -12.615  -0.381  1.00  0.00    -0.353 N 
HETATM    8  C   UNL     1      40.014 -12.988   0.665  1.00  0.00     0.249 C 
HETATM    9  O   UNL     1      39.572 -12.141   1.435  1.00  0.00    -0.271 OA
HETATM   10  C   UNL     1      40.112 -14.992  -2.345  1.00  0.00     0.035 C 
HETATM   11  C   UNL     1      40.684 -14.431  -3.645  1.00  0.00     0.002 C 
HETATM   12  C   UNL     1      41.230 -13.018  -3.455  1.00  0.00     0.002 C 
HETATM   13  C   UNL     1      42.275 -12.958  -2.341  1.00  0.00     0.027 C 
HETATM   14  H   UNL     1      41.080 -11.631  -0.331  1.00  0.00     0.163 HD
ENDROOT
BRANCH   1  15
HETATM   15  C   UNL     1      39.376 -14.871   2.216  1.00  0.00     0.146 C 
BRANCH  15  16
HETATM   16  C   UNL     1      40.659 -15.425   2.803  1.00  0.00     0.224 C 
HETATM   17  N   UNL     1      40.592 -16.747   3.163  1.00  0.00    -0.327 N 
HETATM   18  H   UNL     1      39.696 -17.218   3.092  1.00  0.00     0.169 HD
HETATM   19  O   UNL     1      41.642 -14.683   2.850  1.00  0.00    -0.273 OA
BRANCH  17  20
HETATM   20  C   UNL     1      41.638 -17.544   3.684  1.00  0.00     0.035 A 
HETATM   21  C   UNL     1      42.504 -18.311   2.901  1.00  0.00     0.036 A 
HETATM   22  C   UNL     1      43.517 -19.085   3.489  1.00  0.00    -0.060 A 
HETATM   23  C   UNL     1      44.450 -19.883   2.623  1.00  0.00     0.048 C 
HETATM   24  C   UNL     1      43.670 -19.073   4.878  1.00  0.00     0.007 A 
HETATM   25  C   UNL     1      42.810 -18.313   5.668  1.00  0.00     0.003 A 
HETATM   26  C   UNL     1      41.799 -17.555   5.074  1.00  0.00     0.029 A 
ENDBRANCH  17  20
ENDBRANCH  15  16
ENDBRANCH   1  15
TORSDOF 3
ENDMDL
MODEL 9
REMARK VINA RESULT:      -7.2      1.574      2.642
REMARK  3 active torsions:
REMARK  status: ('A' for Active; 'I' for Inactive)
REMARK    1  A    between atoms: C_4  and  N_5 
REMARK       I    between atoms: N_5  and  C_6 
REMARK    2  A    between atoms: C_6  and  C_7 
REMARK    3  A    between atoms: C_7  and  C_8 
ROOT
HETATM    1  C   UNL     1      42.295 -15.710   4.373  1.00  0.00     0.286 C 
HETATM    2  N   UNL     1      42.658 -14.610   3.377  1.00  0.00    -0.056 N 
HETATM    3  H   UNL     1      42.949 -13.794   3.960  1.00  0.00     0.278 HD
HETATM    4  H   UNL     1      43.487 -14.865   2.829  1.00  0.00     0.278 HD
HETATM    5  C   UNL     1      41.539 -14.133   2.498  1.00  0.00     0.209 C 
HETATM    6  C   UNL     1      40.313 -13.777   3.372  1.00  0.00     0.115 C 
HETATM    7  N   UNL     1      39.958 -14.847   4.303  1.00  0.00    -0.353 N 
HETATM    8  C   UNL     1      40.898 -15.556   5.008  1.00  0.00     0.249 C 
HETATM    9  O   UNL     1      40.589 -16.120   6.053  1.00  0.00    -0.271 OA
HETATM   10  C   UNL     1      41.230 -15.179   1.426  1.00  0.00     0.035 C 
HETATM   11  C   UNL     1      40.046 -14.737   0.568  1.00  0.00     0.002 C 
HETATM   12  C   UNL     1      38.816 -14.435   1.421  1.00  0.00     0.002 C 
HETATM   13  C   UNL     1      39.114 -13.394   2.499  1.00  0.00     0.027 C 
HETATM   14  H   UNL     1      39.083 -14.756   4.817  1.00  0.00     0.163 HD
ENDROOT
BRANCH   1  15
HETATM   15  C   UNL     1      43.361 -15.831   5.474  1.00  0.00     0.146 C 
BRANCH  15  16
HETATM   16  C   UNL     1      43.890 -17.251   5.531  1.00  0.00     0.224 C 
HETATM   17  N   UNL     1      43.550 -18.024   4.449  1.00  0.00    -0.327 N 
HETATM   18  H   UNL     1      42.921 -17.630   3.757  1.00  0.00     0.169 HD
HETATM   19  O   UNL     1      44.608 -17.564   6.482  1.00  0.00    -0.273 OA
BRANCH  17  20
HETATM   20  C   UNL     1      43.940 -19.361   4.201  1.00  0.00     0.035 A 
HETATM   21  C   UNL     1      43.866 -19.978   2.949  1.00  0.00     0.036 A 
HETATM   22  C   UNL     1      44.263 -21.314   2.778  1.00  0.00    -0.060 A 
HETATM   23  C   UNL     1      44.196 -21.948   1.418  1.00  0.00     0.048 C 
HETATM   24  C   UNL     1      44.756 -22.029   3.873  1.00  0.00     0.007 A 
HETATM   25  C   UNL     1      44.833 -21.422   5.125  1.00  0.00     0.003 A 
HETATM   26  C   UNL     1      44.424 -20.096   5.288  1.00  0.00     0.029 A 
ENDBRANCH  17  20
ENDBRANCH  15  16
ENDBRANCH   1  15
TORSDOF 3
ENDMDL
MODEL 10
REMARK VINA RESULT:      -7.2      2.013      3.368
REMARK  3 active torsions:
REMARK  status: ('A' for Active; 'I' for Inactive)
REMARK    1  A    between atoms: C_4  and  N_5 
REMARK       I    between atoms: N_5  and  C_6 
REMARK    2  A    between atoms: C_6  and  C_7 
REMARK    3  A    between atoms: C_7  and  C_8 
ROOT
HETATM    1  C   UNL     1      42.317 -15.363   2.416  1.00  0.00     0.286 C 
HETATM    2  N   UNL     1      42.899 -15.552   3.816  1.00  0.00    -0.056 N 
HETATM    3  H   UNL     1      42.794 -16.570   4.024  1.00  0.00     0.278 HD
HETATM    4  H   UNL     1      43.909 -15.373   3.825  1.00  0.00     0.278 HD
HETATM    5  C   UNL     1      42.196 -14.813   4.917  1.00  0.00     0.209 C 
HETATM    6  C   UNL     1      40.679 -15.107   4.848  1.00  0.00     0.115 C 
HETATM    7  N   UNL     1      40.127 -14.898   3.511  1.00  0.00    -0.353 N 
HETATM    8  C   UNL     1      40.777 -15.302   2.372  1.00  0.00     0.249 C 
HETATM    9  O   UNL     1      40.143 -15.505   1.341  1.00  0.00    -0.271 OA
HETATM   10  C   UNL     1      42.524 -13.322   4.843  1.00  0.00     0.035 C 
HETATM   11  C   UNL     1      41.761 -12.548   5.915  1.00  0.00     0.002 C 
HETATM   12  C   UNL     1      40.256 -12.792   5.819  1.00  0.00     0.002 C 
HETATM   13  C   UNL     1      39.916 -14.280   5.888  1.00  0.00     0.027 C 
HETATM   14  H   UNL     1      39.114 -14.931   3.406  1.00  0.00     0.163 HD
ENDROOT
BRANCH   1  15
HETATM   15  C   UNL     1      42.827 -16.450   1.455  1.00  0.00     0.146 C 
BRANCH  15  16
HETATM   16  C   UNL     1      42.762 -17.808   2.126  1.00  0.00     0.224 C 
HETATM   17  N   UNL     1      43.859 -18.601   1.904  1.00  0.00    -0.327 N 
HETATM   18  H   UNL     1      44.569 -18.268   1.259  1.00  0.00     0.169 HD
HETATM   19  O   UNL     1      41.791 -18.054   2.843  1.00  0.00    -0.273 OA
BRANCH  17  20
HETATM   20  C   UNL     1      44.104 -19.888   2.438  1.00  0.00     0.035 A 
HETATM   21  C   UNL     1      44.341 -20.142   3.791  1.00  0.00     0.036 A 
HETATM   22  C   UNL     1      44.585 -21.447   4.250  1.00  0.00    -0.060 A 
HETATM   23  C   UNL     1      44.813 -21.697   5.713  1.00  0.00     0.048 C 
HETATM   24  C   UNL     1      44.573 -22.507   3.339  1.00  0.00     0.007 A 
HETATM   25  C   UNL     1      44.340 -22.263   1.987  1.00  0.00     0.003 A 
HETATM   26  C   UNL     1      44.109 -20.960   1.539  1.00  0.00     0.029 A 
ENDBRANCH  17  20
ENDBRANCH  15  16
ENDBRANCH   1  15
TORSDOF 3
ENDMDL
