MODEL 1
REMARK VINA RESULT:      -7.5      0.000      0.000
REMARK  4 active torsions:
REMARK  status: ('A' for Active; 'I' for Inactive)
REMARK    1  A    between atoms: C_6  and  C_7 
REMARK       I    between atoms: C_7  and  N_8 
REMARK    2  A    between atoms: N_8  and  C_9 
REMARK    3  A    between atoms: C_10  and  O_11 
REMARK    4  A    between atoms: N_13  and  C_15 
ROOT
HETATM    1  C   UNL     1      43.716 -17.393   1.878  1.00  0.00     0.252 C 
HETATM    2  N   UNL     1      42.428 -16.911   1.752  1.00  0.00    -0.348 N 
HETATM    3  O   UNL     1      44.630 -16.918   1.211  1.00  0.00    -0.268 OA
HETATM    4  H   UNL     1      41.659 -17.421   2.171  1.00  0.00     0.163 HD
ENDROOT
BRANCH   2   5
HETATM    5  C   UNL     1      42.108 -15.816   0.838  1.00  0.00     0.141 C 
HETATM    6  C   UNL     1      41.312 -14.669   1.488  1.00  0.00     0.168 C 
HETATM    7  C   UNL     1      40.007 -14.587   0.695  1.00  0.00     0.269 C 
HETATM    8  N   UNL     1      40.369 -15.059  -0.712  1.00  0.00    -0.063 N 
HETATM    9  H   UNL     1      39.509 -15.415  -1.148  1.00  0.00     0.280 HD
HETATM   10  C   UNL     1      41.282 -16.234  -0.398  1.00  0.00     0.263 C 
BRANCH   6  11
HETATM   11  O   UNL     1      42.040 -13.444   1.335  1.00  0.00    -0.392 OA
HETATM   12  H   UNL     1      41.402 -12.744   1.095  1.00  0.00     0.210 HD
ENDBRANCH   6  11
BRANCH   8  13
HETATM   13  C   UNL     1      40.970 -14.008  -1.644  1.00  0.00     0.180 C 
HETATM   14  C   UNL     1      41.234 -14.646  -3.012  1.00  0.00     0.039 C 
HETATM   15  C   UNL     1      40.001 -12.839  -1.829  1.00  0.00     0.039 C 
ENDBRANCH   8  13
ENDBRANCH   2   5
BRANCH   1  16
HETATM   16  C   UNL     1      43.958 -18.511   2.832  1.00  0.00     0.035 A 
HETATM   17  C   UNL     1      44.068 -18.317   4.209  1.00  0.00     0.041 A 
HETATM   18  C   UNL     1      44.317 -19.405   5.058  1.00  0.00     0.042 A 
HETATM   19  C   UNL     1      44.459 -20.710   4.556  1.00  0.00    -0.018 A 
HETATM   20 CL   UNL     1      44.466 -19.046   6.744  1.00  0.00    -0.084 Cl
HETATM   21  C   UNL     1      44.759 -21.875   5.464  1.00  0.00     0.052 C 
HETATM   22  C   UNL     1      44.385 -20.878   3.161  1.00  0.00     0.042 A 
HETATM   23  C   UNL     1      44.132 -19.796   2.311  1.00  0.00     0.041 A 
HETATM   24 CL   UNL     1      44.625 -22.418   2.413  1.00  0.00    -0.084 Cl
ENDBRANCH   1  16
TORSDOF 4
ENDMDL
MODEL 2
REMARK VINA RESULT:      -7.3      1.094      2.314
REMARK  4 active torsions:
REMARK  status: ('A' for Active; 'I' for Inactive)
REMARK    1  A    between atoms: C_6  and  C_7 
REMARK       I    between atoms: C_7  and  N_8 
REMARK    2  A    between atoms: N_8  and  C_9 
REMARK    3  A    between atoms: C_10  and  O_11 
REMARK    4  A    between atoms: N_13  and  C_15 
ROOT
HETATM    1  C   UNL     1      43.280 -17.280   2.434  1.00  0.00     0.252 C 
HETATM    2  N   UNL     1      41.964 -16.899   2.609  1.00  0.00    -0.348 N 
HETATM    3  O   UNL     1      44.045 -16.600   1.756  1.00  0.00    -0.268 OA
HETATM    4  H   UNL     1      41.303 -17.550   3.017  1.00  0.00     0.163 HD
ENDROOT
BRANCH   2   5
HETATM    5  C   UNL     1      41.438 -15.674   2.010  1.00  0.00     0.141 C 
HETATM    6  C   UNL     1      40.241 -15.069   2.768  1.00  0.00     0.168 C 
HETATM    7  C   UNL     1      39.095 -15.050   1.756  1.00  0.00     0.269 C 
HETATM    8  N   UNL     1      39.772 -14.890   0.396  1.00  0.00    -0.063 N 
HETATM    9  H   UNL     1      39.135 -15.277  -0.312  1.00  0.00     0.280 HD
HETATM   10  C   UNL     1      40.959 -15.827   0.550  1.00  0.00     0.263 C 
BRANCH   6  11
HETATM   11  O   UNL     1      40.557 -13.727   3.156  1.00  0.00    -0.392 OA
HETATM   12  H   UNL     1      39.897 -13.133   2.749  1.00  0.00     0.210 HD
ENDBRANCH   6  11
BRANCH   8  13
HETATM   13  C   UNL     1      40.126 -13.463  -0.020  1.00  0.00     0.180 C 
HETATM   14  C   UNL     1      41.321 -13.505  -0.979  1.00  0.00     0.039 C 
HETATM   15  C   UNL     1      38.946 -12.805  -0.736  1.00  0.00     0.039 C 
ENDBRANCH   8  13
ENDBRANCH   2   5
BRANCH   1  16
HETATM   16  C   UNL     1      43.737 -18.544   3.077  1.00  0.00     0.035 A 
HETATM   17  C   UNL     1      44.033 -19.697   2.348  1.00  0.00     0.041 A 
HETATM   18  C   UNL     1      44.439 -20.865   3.009  1.00  0.00     0.042 A 
HETATM   19  C   UNL     1      44.564 -20.911   4.408  1.00  0.00    -0.018 A 
HETATM   20 CL   UNL     1      44.750 -22.244   2.011  1.00  0.00    -0.084 Cl
HETATM   21  C   UNL     1      44.970 -22.176   5.121  1.00  0.00     0.052 C 
HETATM   22  C   UNL     1      44.222 -19.751   5.127  1.00  0.00     0.042 A 
HETATM   23  C   UNL     1      43.821 -18.582   4.470  1.00  0.00     0.041 A 
HETATM   24 CL   UNL     1      44.253 -19.704   6.855  1.00  0.00    -0.084 Cl
ENDBRANCH   1  16
TORSDOF 4
ENDMDL
MODEL 3
REMARK VINA RESULT:      -7.2      2.082      2.363
REMARK  4 active torsions:
REMARK  status: ('A' for Active; 'I' for Inactive)
REMARK    1  A    between atoms: C_6  and  C_7 
REMARK       I    between atoms: C_7  and  N_8 
REMARK    2  A    between atoms: N_8  and  C_9 
REMARK    3  A    between atoms: C_10  and  O_11 
REMARK    4  A    between atoms: N_13  and  C_15 
ROOT
HETATM    1  C   UNL     1      42.273 -17.156   1.828  1.00  0.00     0.252 C 
HETATM    2  N   UNL     1      41.581 -16.210   2.559  1.00  0.00    -0.348 N 
HETATM    3  O   UNL     1      42.253 -17.136   0.601  1.00  0.00    -0.268 OA
HETATM    4  H   UNL     1      41.460 -16.339   3.557  1.00  0.00     0.163 HD
ENDROOT
BRANCH   2   5
HETATM    5  C   UNL     1      40.816 -15.150   1.907  1.00  0.00     0.141 C 
HETATM    6  C   UNL     1      41.561 -13.805   1.814  1.00  0.00     0.168 C 
HETATM    7  C   UNL     1      40.684 -12.809   2.573  1.00  0.00     0.269 C 
HETATM    8  N   UNL     1      39.258 -13.327   2.402  1.00  0.00    -0.063 N 
HETATM    9  H   UNL     1      38.704 -12.972   3.192  1.00  0.00     0.280 HD
HETATM   10  C   UNL     1      39.468 -14.822   2.584  1.00  0.00     0.263 C 
BRANCH   6  11
HETATM   11  O   UNL     1      41.652 -13.410   0.440  1.00  0.00    -0.392 OA
HETATM   12  H   UNL     1      42.263 -12.649   0.386  1.00  0.00     0.210 HD
ENDBRANCH   6  11
BRANCH   8  13
HETATM   13  C   UNL     1      38.544 -12.929   1.111  1.00  0.00     0.180 C 
HETATM   14  C   UNL     1      37.530 -14.018   0.745  1.00  0.00     0.039 C 
HETATM   15  C   UNL     1      37.798 -11.607   1.296  1.00  0.00     0.039 C 
ENDBRANCH   8  13
ENDBRANCH   2   5
BRANCH   1  16
HETATM   16  C   UNL     1      43.028 -18.205   2.570  1.00  0.00     0.035 A 
HETATM   17  C   UNL     1      43.591 -17.980   3.827  1.00  0.00     0.041 A 
HETATM   18  C   UNL     1      44.309 -18.999   4.470  1.00  0.00     0.042 A 
HETATM   19  C   UNL     1      44.479 -20.263   3.879  1.00  0.00    -0.018 A 
HETATM   20 CL   UNL     1      44.991 -18.603   6.010  1.00  0.00    -0.084 Cl
HETATM   21  C   UNL     1      45.278 -21.347   4.556  1.00  0.00     0.052 C 
HETATM   22  C   UNL     1      43.939 -20.455   2.595  1.00  0.00     0.042 A 
HETATM   23  C   UNL     1      43.217 -19.443   1.952  1.00  0.00     0.041 A 
HETATM   24 CL   UNL     1      44.151 -21.934   1.726  1.00  0.00    -0.084 Cl
ENDBRANCH   1  16
TORSDOF 4
ENDMDL
MODEL 4
REMARK VINA RESULT:      -7.1      1.879      3.140
REMARK  4 active torsions:
REMARK  status: ('A' for Active; 'I' for Inactive)
REMARK    1  A    between atoms: C_6  and  C_7 
REMARK       I    between atoms: C_7  and  N_8 
REMARK    2  A    between atoms: N_8  and  C_9 
REMARK    3  A    between atoms: C_10  and  O_11 
REMARK    4  A    between atoms: N_13  and  C_15 
ROOT
HETATM    1  C   UNL     1      41.696 -17.015   1.804  1.00  0.00     0.252 C 
HETATM    2  N   UNL     1      42.237 -15.846   1.306  1.00  0.00    -0.348 N 
HETATM    3  O   UNL     1      40.485 -17.213   1.762  1.00  0.00    -0.268 OA
HETATM    4  H   UNL     1      43.205 -15.618   1.504  1.00  0.00     0.163 HD
ENDROOT
BRANCH   2   5
HETATM    5  C   UNL     1      41.399 -14.813   0.702  1.00  0.00     0.141 C 
HETATM    6  C   UNL     1      41.283 -14.916  -0.830  1.00  0.00     0.168 C 
HETATM    7  C   UNL     1      41.830 -13.591  -1.362  1.00  0.00     0.269 C 
HETATM    8  N   UNL     1      41.523 -12.569  -0.270  1.00  0.00    -0.063 N 
HETATM    9  H   UNL     1      42.200 -11.801  -0.367  1.00  0.00     0.280 HD
HETATM   10  C   UNL     1      41.863 -13.367   0.978  1.00  0.00     0.263 C 
BRANCH   6  11
HETATM   11  O   UNL     1      39.903 -15.042  -1.192  1.00  0.00    -0.392 OA
HETATM   12  H   UNL     1      39.698 -14.343  -1.843  1.00  0.00     0.210 HD
ENDBRANCH   6  11
BRANCH   8  13
HETATM   13  C   UNL     1      40.119 -11.964  -0.285  1.00  0.00     0.180 C 
HETATM   14  C   UNL     1      40.082 -10.766   0.669  1.00  0.00     0.039 C 
HETATM   15  C   UNL     1      39.759 -11.482  -1.691  1.00  0.00     0.039 C 
ENDBRANCH   8  13
ENDBRANCH   2   5
BRANCH   1  16
HETATM   16  C   UNL     1      42.620 -18.018   2.405  1.00  0.00     0.035 A 
HETATM   17  C   UNL     1      42.874 -19.257   1.815  1.00  0.00     0.041 A 
HETATM   18  C   UNL     1      43.738 -20.171   2.437  1.00  0.00     0.042 A 
HETATM   19  C   UNL     1      44.370 -19.870   3.656  1.00  0.00    -0.018 A 
HETATM   20 CL   UNL     1      43.958 -21.688   1.636  1.00  0.00    -0.084 Cl
HETATM   21  C   UNL     1      45.273 -20.864   4.341  1.00  0.00     0.052 C 
HETATM   22  C   UNL     1      44.068 -18.633   4.254  1.00  0.00     0.042 A 
HETATM   23  C   UNL     1      43.211 -17.717   3.634  1.00  0.00     0.041 A 
HETATM   24 CL   UNL     1      44.714 -18.179   5.792  1.00  0.00    -0.084 Cl
ENDBRANCH   1  16
TORSDOF 4
ENDMDL
MODEL 5
REMARK VINA RESULT:      -7.1      1.905      2.450
REMARK  4 active torsions:
REMARK  status: ('A' for Active; 'I' for Inactive)
REMARK    1  A    between atoms: C_6  and  C_7 
REMARK       I    between atoms: C_7  and  N_8 
REMARK    2  A    between atoms: N_8  and  C_9 
REMARK    3  A    between atoms: C_10  and  O_11 
REMARK    4  A    between atoms: N_13  and  C_15 
ROOT
HETATM    1  C   UNL     1      41.684 -16.911   2.095  1.00  0.00     0.252 C 
HETATM    2  N   UNL     1      42.243 -15.786   1.520  1.00  0.00    -0.348 N 
HETATM    3  O   UNL     1      40.468 -17.076   2.096  1.00  0.00    -0.268 OA
HETATM    4  H   UNL     1      43.221 -15.575   1.678  1.00  0.00     0.163 HD
ENDROOT
BRANCH   2   5
HETATM    5  C   UNL     1      41.415 -14.762   0.885  1.00  0.00     0.141 C 
HETATM    6  C   UNL     1      41.285 -14.920  -0.641  1.00  0.00     0.168 C 
HETATM    7  C   UNL     1      41.848 -13.624  -1.226  1.00  0.00     0.269 C 
HETATM    8  N   UNL     1      41.566 -12.557  -0.170  1.00  0.00    -0.063 N 
HETATM    9  H   UNL     1      42.254 -11.805  -0.301  1.00  0.00     0.280 HD
HETATM   10  C   UNL     1      41.905 -13.314   1.104  1.00  0.00     0.263 C 
BRANCH   6  11
HETATM   11  O   UNL     1      39.899 -15.036  -0.987  1.00  0.00    -0.392 OA
HETATM   12  H   UNL     1      39.434 -14.254  -0.630  1.00  0.00     0.210 HD
ENDBRANCH   6  11
BRANCH   8  13
HETATM   13  C   UNL     1      40.173 -11.931  -0.196  1.00  0.00     0.180 C 
HETATM   14  C   UNL     1      40.036 -10.968   0.989  1.00  0.00     0.039 C 
HETATM   15  C   UNL     1      39.962 -11.146  -1.492  1.00  0.00     0.039 C 
ENDBRANCH   8  13
ENDBRANCH   2   5
BRANCH   1  16
HETATM   16  C   UNL     1      42.598 -17.907   2.722  1.00  0.00     0.035 A 
HETATM   17  C   UNL     1      43.266 -17.665   3.924  1.00  0.00     0.041 A 
HETATM   18  C   UNL     1      44.130 -18.631   4.458  1.00  0.00     0.042 A 
HETATM   19  C   UNL     1      44.346 -19.860   3.811  1.00  0.00    -0.018 A 
HETATM   20 CL   UNL     1      44.930 -18.215   5.934  1.00  0.00    -0.084 Cl
HETATM   21  C   UNL     1      45.300 -20.886   4.368  1.00  0.00     0.052 C 
HETATM   22  C   UNL     1      43.695 -20.068   2.581  1.00  0.00     0.042 A 
HETATM   23  C   UNL     1      42.828 -19.108   2.047  1.00  0.00     0.041 A 
HETATM   24 CL   UNL     1      43.942 -21.501   1.646  1.00  0.00    -0.084 Cl
ENDBRANCH   1  16
TORSDOF 4
ENDMDL
MODEL 6
REMARK VINA RESULT:      -6.8      4.467      5.448
REMARK  4 active torsions:
REMARK  status: ('A' for Active; 'I' for Inactive)
REMARK    1  A    between atoms: C_6  and  C_7 
REMARK       I    between atoms: C_7  and  N_8 
REMARK    2  A    between atoms: N_8  and  C_9 
REMARK    3  A    between atoms: C_10  and  O_11 
REMARK    4  A    between atoms: N_13  and  C_15 
ROOT
HETATM    1  C   UNL     1      42.875 -15.189   5.366  1.00  0.00     0.252 C 
HETATM    2  N   UNL     1      41.660 -14.621   5.037  1.00  0.00    -0.348 N 
HETATM    3  O   UNL     1      43.631 -14.636   6.158  1.00  0.00    -0.268 OA
HETATM    4  H   UNL     1      41.127 -14.992   4.258  1.00  0.00     0.163 HD
ENDROOT
BRANCH   2   5
HETATM    5  C   UNL     1      41.225 -13.356   5.624  1.00  0.00     0.141 C 
HETATM    6  C   UNL     1      39.711 -13.281   5.902  1.00  0.00     0.168 C 
HETATM    7  C   UNL     1      39.211 -12.095   5.075  1.00  0.00     0.269 C 
HETATM    8  N   UNL     1      40.397 -11.136   5.000  1.00  0.00    -0.063 N 
HETATM    9  H   UNL     1      40.276 -10.562   4.156  1.00  0.00     0.280 HD
HETATM   10  C   UNL     1      41.543 -12.109   4.770  1.00  0.00     0.263 C 
BRANCH   6  11
HETATM   11  O   UNL     1      39.500 -13.014   7.294  1.00  0.00    -0.392 OA
HETATM   12  H   UNL     1      40.113 -13.579   7.804  1.00  0.00     0.210 HD
ENDBRANCH   6  11
BRANCH   8  13
HETATM   13  C   UNL     1      40.581 -10.194   6.189  1.00  0.00     0.180 C 
HETATM   14  C   UNL     1      41.578  -9.095   5.805  1.00  0.00     0.039 C 
HETATM   15  C   UNL     1      39.251  -9.539   6.565  1.00  0.00     0.039 C 
ENDBRANCH   8  13
ENDBRANCH   2   5
BRANCH   1  16
HETATM   16  C   UNL     1      43.244 -16.481   4.722  1.00  0.00     0.035 A 
HETATM   17  C   UNL     1      43.538 -17.632   5.455  1.00  0.00     0.041 A 
HETATM   18  C   UNL     1      43.900 -18.816   4.795  1.00  0.00     0.042 A 
HETATM   19  C   UNL     1      43.973 -18.882   3.393  1.00  0.00    -0.018 A 
HETATM   20 CL   UNL     1      44.274 -20.172   5.802  1.00  0.00    -0.084 Cl
HETATM   21  C   UNL     1      44.394 -20.144   2.685  1.00  0.00     0.052 C 
HETATM   22  C   UNL     1      43.713 -17.700   2.675  1.00  0.00     0.042 A 
HETATM   23  C   UNL     1      43.347 -16.518   3.329  1.00  0.00     0.041 A 
HETATM   24 CL   UNL     1      43.851 -17.628   0.953  1.00  0.00    -0.084 Cl
ENDBRANCH   1  16
TORSDOF 4
ENDMDL
MODEL 7
REMARK VINA RESULT:      -6.5      2.145      2.777
REMARK  4 active torsions:
REMARK  status: ('A' for Active; 'I' for Inactive)
REMARK    1  A    between atoms: C_6  and  C_7 
REMARK       I    between atoms: C_7  and  N_8 
REMARK    2  A    between atoms: N_8  and  C_9 
REMARK    3  A    between atoms: C_10  and  O_11 
REMARK    4  A    between atoms: N_13  and  C_15 
ROOT
HETATM    1  C   UNL     1      41.441 -16.965   1.622  1.00  0.00     0.252 C 
HETATM    2  N   UNL     1      41.444 -15.639   1.235  1.00  0.00    -0.348 N 
HETATM    3  O   UNL     1      40.699 -17.775   1.076  1.00  0.00    -0.268 OA
HETATM    4  H   UNL     1      41.926 -14.952   1.803  1.00  0.00     0.163 HD
ENDROOT
BRANCH   2   5
HETATM    5  C   UNL     1      40.580 -15.156   0.160  1.00  0.00     0.141 C 
HETATM    6  C   UNL     1      41.226 -15.214  -1.238  1.00  0.00     0.168 C 
HETATM    7  C   UNL     1      41.230 -13.769  -1.737  1.00  0.00     0.269 C 
HETATM    8  N   UNL     1      40.015 -13.119  -1.077  1.00  0.00    -0.063 N 
HETATM    9  H   UNL     1      40.194 -12.108  -1.031  1.00  0.00     0.280 HD
HETATM   10  C   UNL     1      40.104 -13.697   0.326  1.00  0.00     0.263 C 
BRANCH   6  11
HETATM   11  O   UNL     1      40.410 -16.015  -2.101  1.00  0.00    -0.392 OA
HETATM   12  H   UNL     1      40.612 -15.763  -3.024  1.00  0.00     0.210 HD
ENDBRANCH   6  11
BRANCH   8  13
HETATM   13  C   UNL     1      38.673 -13.328  -1.777  1.00  0.00     0.180 C 
HETATM   14  C   UNL     1      37.644 -12.361  -1.181  1.00  0.00     0.039 C 
HETATM   15  C   UNL     1      38.800 -13.046  -3.275  1.00  0.00     0.039 C 
ENDBRANCH   8  13
ENDBRANCH   2   5
BRANCH   1  16
HETATM   16  C   UNL     1      42.352 -17.376   2.728  1.00  0.00     0.035 A 
HETATM   17  C   UNL     1      42.534 -16.609   3.879  1.00  0.00     0.041 A 
HETATM   18  C   UNL     1      43.420 -17.036   4.879  1.00  0.00     0.042 A 
HETATM   19  C   UNL     1      44.141 -18.236   4.756  1.00  0.00    -0.018 A 
HETATM   20 CL   UNL     1      43.593 -15.994   6.248  1.00  0.00    -0.084 Cl
HETATM   21  C   UNL     1      45.118 -18.680   5.815  1.00  0.00     0.052 C 
HETATM   22  C   UNL     1      43.974 -18.974   3.570  1.00  0.00     0.042 A 
HETATM   23  C   UNL     1      43.087 -18.554   2.573  1.00  0.00     0.041 A 
HETATM   24 CL   UNL     1      44.865 -20.423   3.261  1.00  0.00    -0.084 Cl
ENDBRANCH   1  16
TORSDOF 4
ENDMDL
MODEL 8
REMARK VINA RESULT:      -6.4      4.526      8.240
REMARK  4 active torsions:
REMARK  status: ('A' for Active; 'I' for Inactive)
REMARK    1  A    between atoms: C_6  and  C_7 
REMARK       I    between atoms: C_7  and  N_8 
REMARK    2  A    between atoms: N_8  and  C_9 
REMARK    3  A    between atoms: C_10  and  O_11 
REMARK    4  A    between atoms: N_13  and  C_15 
ROOT
HETATM    1  C   UNL     1      41.424 -15.588   1.663  1.00  0.00     0.252 C 
HETATM    2  N   UNL     1      41.029 -15.408   2.974  1.00  0.00    -0.348 N 
HETATM    3  O   UNL     1      42.462 -16.186   1.398  1.00  0.00    -0.268 OA
HETATM    4  H   UNL     1      40.272 -14.768   3.186  1.00  0.00     0.163 HD
ENDROOT
BRANCH   2   5
HETATM    5  C   UNL     1      41.819 -15.929   4.088  1.00  0.00     0.141 C 
HETATM    6  C   UNL     1      41.233 -17.199   4.732  1.00  0.00     0.168 C 
HETATM    7  C   UNL     1      40.979 -16.826   6.193  1.00  0.00     0.269 C 
HETATM    8  N   UNL     1      42.036 -15.774   6.522  1.00  0.00    -0.063 N 
HETATM    9  H   UNL     1      41.674 -15.206   7.299  1.00  0.00     0.280 HD
HETATM   10  C   UNL     1      42.017 -14.936   5.254  1.00  0.00     0.263 C 
BRANCH   6  11
HETATM   11  O   UNL     1      42.204 -18.250   4.671  1.00  0.00    -0.392 OA
HETATM   12  H   UNL     1      43.077 -17.844   4.506  1.00  0.00     0.210 HD
ENDBRANCH   6  11
BRANCH   8  13
HETATM   13  C   UNL     1      43.413 -16.301   6.925  1.00  0.00     0.180 C 
HETATM   14  C   UNL     1      44.345 -15.114   7.189  1.00  0.00     0.039 C 
HETATM   15  C   UNL     1      43.313 -17.139   8.201  1.00  0.00     0.039 C 
ENDBRANCH   8  13
ENDBRANCH   2   5
BRANCH   1  16
HETATM   16  C   UNL     1      40.562 -15.025   0.586  1.00  0.00     0.035 A 
HETATM   17  C   UNL     1      40.934 -15.034  -0.759  1.00  0.00     0.041 A 
HETATM   18  C   UNL     1      40.092 -14.471  -1.729  1.00  0.00     0.042 A 
HETATM   19  C   UNL     1      38.860 -13.890  -1.382  1.00  0.00    -0.018 A 
HETATM   20 CL   UNL     1      40.665 -14.508  -3.361  1.00  0.00    -0.084 Cl
HETATM   21  C   UNL     1      37.969 -13.256  -2.419  1.00  0.00     0.052 C 
HETATM   22  C   UNL     1      38.522 -13.855  -0.017  1.00  0.00     0.042 A 
HETATM   23  C   UNL     1      39.358 -14.420   0.953  1.00  0.00     0.041 A 
HETATM   24 CL   UNL     1      37.075 -13.095   0.548  1.00  0.00    -0.084 Cl
ENDBRANCH   1  16
TORSDOF 4
ENDMDL
MODEL 9
REMARK VINA RESULT:      -6.3      4.526      8.067
REMARK  4 active torsions:
REMARK  status: ('A' for Active; 'I' for Inactive)
REMARK    1  A    between atoms: C_6  and  C_7 
REMARK       I    between atoms: C_7  and  N_8 
REMARK    2  A    between atoms: N_8  and  C_9 
REMARK    3  A    between atoms: C_10  and  O_11 
REMARK    4  A    between atoms: N_13  and  C_15 
ROOT
HETATM    1  C   UNL     1      41.377 -15.581   1.731  1.00  0.00     0.252 C 
HETATM    2  N   UNL     1      41.074 -15.301   3.049  1.00  0.00    -0.348 N 
HETATM    3  O   UNL     1      42.325 -16.306   1.446  1.00  0.00    -0.268 OA
HETATM    4  H   UNL     1      40.407 -14.570   3.266  1.00  0.00     0.163 HD
ENDROOT
BRANCH   2   5
HETATM    5  C   UNL     1      41.856 -15.863   4.148  1.00  0.00     0.141 C 
HETATM    6  C   UNL     1      41.256 -17.147   4.753  1.00  0.00     0.168 C 
HETATM    7  C   UNL     1      41.003 -16.815   6.224  1.00  0.00     0.269 C 
HETATM    8  N   UNL     1      42.069 -15.784   6.587  1.00  0.00    -0.063 N 
HETATM    9  H   UNL     1      41.711 -15.236   7.380  1.00  0.00     0.280 HD
HETATM   10  C   UNL     1      42.061 -14.908   5.344  1.00  0.00     0.263 C 
BRANCH   6  11
HETATM   11  O   UNL     1      42.217 -18.205   4.662  1.00  0.00    -0.392 OA
HETATM   12  H   UNL     1      43.094 -17.803   4.503  1.00  0.00     0.210 HD
ENDBRANCH   6  11
BRANCH   8  13
HETATM   13  C   UNL     1      43.440 -16.337   6.976  1.00  0.00     0.180 C 
HETATM   14  C   UNL     1      44.401 -15.167   7.211  1.00  0.00     0.039 C 
HETATM   15  C   UNL     1      43.341 -17.155   8.264  1.00  0.00     0.039 C 
ENDBRANCH   8  13
ENDBRANCH   2   5
BRANCH   1  16
HETATM   16  C   UNL     1      40.530 -14.968   0.669  1.00  0.00     0.035 A 
HETATM   17  C   UNL     1      39.322 -14.326   0.946  1.00  0.00     0.041 A 
HETATM   18  C   UNL     1      38.556 -13.785  -0.096  1.00  0.00     0.042 A 
HETATM   19  C   UNL     1      38.976 -13.865  -1.435  1.00  0.00    -0.018 A 
HETATM   20 CL   UNL     1      37.061 -13.040   0.355  1.00  0.00    -0.084 Cl
HETATM   21  C   UNL     1      38.138 -13.312  -2.559  1.00  0.00     0.052 C 
HETATM   22  C   UNL     1      40.176 -14.552  -1.696  1.00  0.00     0.042 A 
HETATM   23  C   UNL     1      40.946 -15.089  -0.658  1.00  0.00     0.041 A 
HETATM   24 CL   UNL     1      40.760 -14.793  -3.306  1.00  0.00    -0.084 Cl
ENDBRANCH   1  16
TORSDOF 4
ENDMDL
MODEL 10
REMARK VINA RESULT:      -6.3      1.974      3.250
REMARK  4 active torsions:
REMARK  status: ('A' for Active; 'I' for Inactive)
REMARK    1  A    between atoms: C_6  and  C_7 
REMARK       I    between atoms: C_7  and  N_8 
REMARK    2  A    between atoms: N_8  and  C_9 
REMARK    3  A    between atoms: C_10  and  O_11 
REMARK    4  A    between atoms: N_13  and  C_15 
ROOT
HETATM    1  C   UNL     1      41.862 -16.702   0.848  1.00  0.00     0.252 C 
HETATM    2  N   UNL     1      42.153 -15.385   0.551  1.00  0.00    -0.348 N 
HETATM    3  O   UNL     1      40.970 -17.297   0.249  1.00  0.00    -0.268 OA
HETATM    4  H   UNL     1      42.763 -14.856   1.164  1.00  0.00     0.163 HD
ENDROOT
BRANCH   2   5
HETATM    5  C   UNL     1      41.426 -14.657  -0.487  1.00  0.00     0.141 C 
HETATM    6  C   UNL     1      42.254 -13.559  -1.180  1.00  0.00     0.168 C 
HETATM    7  C   UNL     1      41.490 -12.260  -0.922  1.00  0.00     0.269 C 
HETATM    8  N   UNL     1      40.025 -12.676  -0.817  1.00  0.00    -0.063 N 
HETATM    9  H   UNL     1      39.542 -11.964  -0.254  1.00  0.00     0.280 HD
HETATM   10  C   UNL     1      40.143 -13.951   0.003  1.00  0.00     0.263 C 
BRANCH   6  11
HETATM   11  O   UNL     1      42.294 -13.816  -2.589  1.00  0.00    -0.392 OA
HETATM   12  H   UNL     1      42.582 -14.741  -2.718  1.00  0.00     0.210 HD
ENDBRANCH   6  11
BRANCH   8  13
HETATM   13  C   UNL     1      39.268 -12.825  -2.136  1.00  0.00     0.180 C 
HETATM   14  C   UNL     1      37.763 -12.856  -1.848  1.00  0.00     0.039 C 
HETATM   15  C   UNL     1      39.566 -11.645  -3.061  1.00  0.00     0.039 C 
ENDBRANCH   8  13
ENDBRANCH   2   5
BRANCH   1  16
HETATM   16  C   UNL     1      42.649 -17.372   1.921  1.00  0.00     0.035 A 
HETATM   17  C   UNL     1      43.191 -18.649   1.772  1.00  0.00     0.041 A 
HETATM   18  C   UNL     1      43.907 -19.239   2.825  1.00  0.00     0.042 A 
HETATM   19  C   UNL     1      44.102 -18.569   4.045  1.00  0.00    -0.018 A 
HETATM   20 CL   UNL     1      44.508 -20.837   2.545  1.00  0.00    -0.084 Cl
HETATM   21  C   UNL     1      44.842 -19.215   5.188  1.00  0.00     0.052 C 
HETATM   22  C   UNL     1      43.512 -17.300   4.189  1.00  0.00     0.042 A 
HETATM   23  C   UNL     1      42.802 -16.707   3.139  1.00  0.00     0.041 A 
HETATM   24 CL   UNL     1      43.607 -16.410   5.668  1.00  0.00    -0.084 Cl
ENDBRANCH   1  16
TORSDOF 4
ENDMDL
