MODEL 1
REMARK VINA RESULT:     -10.5      0.000      0.000
REMARK  8 active torsions:
REMARK  status: ('A' for Active; 'I' for Inactive)
REMARK    1  A    between atoms: C_2  and  C_3 
REMARK    2  A    between atoms: C_6  and  N_7 
REMARK       I    between atoms: N_7  and  C_8 
REMARK    3  A    between atoms: C_8  and  C_9 
REMARK    4  A    between atoms: C_9  and  S_10 
REMARK    5  A    between atoms: S_10  and  C_11 
REMARK    6  A    between atoms: C_23  and  C_24 
REMARK    7  A    between atoms: C_24  and  C_25 
REMARK       I    between atoms: C_25  and  N_26 
REMARK    8  A    between atoms: N_26  and  C_27 
ROOT
HETATM    1  C   UNL     1      43.322 -16.482   5.241  1.00  0.00     0.178 C 
HETATM    2  N   UNL     1      43.092 -16.401   3.877  1.00  0.00    -0.241 N 
HETATM    3  C   UNL     1      43.485 -17.390   3.034  1.00  0.00     0.147 C 
HETATM    4  N   UNL     1      43.372 -17.176   1.759  1.00  0.00    -0.256 NA
HETATM    5  C   UNL     1      43.987 -18.628   3.634  1.00  0.00     0.039 A 
HETATM    6  C   UNL     1      44.078 -18.661   5.030  1.00  0.00     0.073 A 
HETATM    7  C   UNL     1      44.294 -19.744   2.851  1.00  0.00     0.018 A 
HETATM    8  C   UNL     1      44.700 -20.922   3.477  1.00  0.00     0.001 A 
HETATM    9  C   UNL     1      44.790 -20.975   4.869  1.00  0.00     0.002 A 
HETATM   10  C   UNL     1      44.481 -19.850   5.639  1.00  0.00     0.032 A 
HETATM   11  C   UNL     1      42.493 -15.424   3.117  1.00  0.00     0.257 C 
HETATM   12  O   UNL     1      41.822 -14.471   3.478  1.00  0.00    -0.270 OA
HETATM   13  C   UNL     1      42.738 -15.828   1.675  1.00  0.00     0.211 C 
HETATM   14  N   UNL     1      43.791 -17.538   5.830  1.00  0.00    -0.223 NA
ENDROOT
BRANCH   1  15
HETATM   15  S   UNL     1      43.072 -15.066   6.228  1.00  0.00    -0.082 SA
BRANCH  15  16
HETATM   16  C   UNL     1      44.744 -14.377   6.190  1.00  0.00     0.185 C 
BRANCH  16  17
HETATM   17  C   UNL     1      45.072 -13.463   7.365  1.00  0.00     0.231 C 
HETATM   18  N   UNL     1      44.005 -13.166   8.189  1.00  0.00    -0.327 N 
HETATM   19  H   UNL     1      43.152 -13.702   8.035  1.00  0.00     0.169 HD
HETATM   20  O   UNL     1      46.201 -12.984   7.458  1.00  0.00    -0.272 OA
BRANCH  18  21
HETATM   21  C   UNL     1      43.922 -12.157   9.169  1.00  0.00     0.034 A 
HETATM   22  C   UNL     1      43.149 -11.005   9.038  1.00  0.00     0.030 A 
HETATM   23  C   UNL     1      43.007 -10.122  10.115  1.00  0.00     0.010 A 
HETATM   24  C   UNL     1      43.641 -10.369  11.339  1.00  0.00    -0.055 A 
HETATM   25  C   UNL     1      44.459 -11.499  11.446  1.00  0.00     0.010 A 
HETATM   26  C   UNL     1      44.602 -12.379  10.369  1.00  0.00     0.030 A 
BRANCH  24  27
HETATM   27  C   UNL     1      43.407  -9.489  12.554  1.00  0.00     0.010 C 
HETATM   28  C   UNL     1      42.692 -10.283  13.652  1.00  0.00     0.015 C 
HETATM   29  C   UNL     1      42.641  -8.206  12.224  1.00  0.00     0.015 C 
ENDBRANCH  24  27
ENDBRANCH  18  21
ENDBRANCH  16  17
ENDBRANCH  15  16
ENDBRANCH   1  15
BRANCH  13  30
HETATM   30  C   UNL     1      41.458 -15.933   0.857  1.00  0.00     0.140 C 
BRANCH  30  31
HETATM   31  C   UNL     1      41.271 -14.866  -0.211  1.00  0.00     0.220 C 
HETATM   32  N   UNL     1      40.590 -15.251  -1.340  1.00  0.00    -0.356 N 
HETATM   33  H   UNL     1      39.854 -15.929  -1.174  1.00  0.00     0.162 HD
HETATM   34  O   UNL     1      41.733 -13.739  -0.046  1.00  0.00    -0.274 OA
BRANCH  32  35
HETATM   35  C   UNL     1      40.385 -14.398  -2.514  1.00  0.00     0.084 C 
HETATM   36  C   UNL     1      40.246 -15.171  -3.838  1.00  0.00     0.025 C 
HETATM   37  C   UNL     1      38.996 -16.048  -3.870  1.00  0.00     0.002 C 
HETATM   38  C   UNL     1      37.735 -15.231  -3.605  1.00  0.00     0.000 C 
HETATM   39  C   UNL     1      37.843 -14.408  -2.325  1.00  0.00     0.002 C 
HETATM   40  C   UNL     1      39.115 -13.553  -2.298  1.00  0.00     0.025 C 
ENDBRANCH  32  35
ENDBRANCH  30  31
ENDBRANCH  13  30
TORSDOF 8
ENDMDL
MODEL 2
REMARK VINA RESULT:     -10.5      1.393      1.834
REMARK  8 active torsions:
REMARK  status: ('A' for Active; 'I' for Inactive)
REMARK    1  A    between atoms: C_2  and  C_3 
REMARK    2  A    between atoms: C_6  and  N_7 
REMARK       I    between atoms: N_7  and  C_8 
REMARK    3  A    between atoms: C_8  and  C_9 
REMARK    4  A    between atoms: C_9  and  S_10 
REMARK    5  A    between atoms: S_10  and  C_11 
REMARK    6  A    between atoms: C_23  and  C_24 
REMARK    7  A    between atoms: C_24  and  C_25 
REMARK       I    between atoms: C_25  and  N_26 
REMARK    8  A    between atoms: N_26  and  C_27 
ROOT
HETATM    1  C   UNL     1      43.104 -17.442   5.562  1.00  0.00     0.178 C 
HETATM    2  N   UNL     1      42.492 -17.018   4.394  1.00  0.00    -0.241 N 
HETATM    3  C   UNL     1      42.707 -17.652   3.213  1.00  0.00     0.147 C 
HETATM    4  N   UNL     1      42.221 -17.108   2.139  1.00  0.00    -0.256 NA
HETATM    5  C   UNL     1      43.454 -18.910   3.249  1.00  0.00     0.039 A 
HETATM    6  C   UNL     1      43.939 -19.321   4.496  1.00  0.00     0.073 A 
HETATM    7  C   UNL     1      43.614 -19.696   2.105  1.00  0.00     0.018 A 
HETATM    8  C   UNL     1      44.272 -20.921   2.208  1.00  0.00     0.001 A 
HETATM    9  C   UNL     1      44.757 -21.349   3.444  1.00  0.00     0.002 A 
HETATM   10  C   UNL     1      44.590 -20.552   4.580  1.00  0.00     0.032 A 
HETATM   11  C   UNL     1      41.627 -15.976   4.152  1.00  0.00     0.257 C 
HETATM   12  O   UNL     1      41.013 -15.285   4.949  1.00  0.00    -0.270 OA
HETATM   13  C   UNL     1      41.484 -15.912   2.643  1.00  0.00     0.211 C 
HETATM   14  N   UNL     1      43.802 -18.531   5.655  1.00  0.00    -0.223 NA
ENDROOT
BRANCH   1  15
HETATM   15  S   UNL     1      43.033 -16.422   6.975  1.00  0.00    -0.082 SA
BRANCH  15  16
HETATM   16  C   UNL     1      44.300 -15.209   6.531  1.00  0.00     0.185 C 
BRANCH  16  17
HETATM   17  C   UNL     1      43.983 -13.784   6.968  1.00  0.00     0.231 C 
HETATM   18  N   UNL     1      44.605 -13.378   8.132  1.00  0.00    -0.327 N 
HETATM   19  H   UNL     1      45.328 -13.995   8.497  1.00  0.00     0.169 HD
HETATM   20  O   UNL     1      43.152 -13.132   6.338  1.00  0.00    -0.272 OA
BRANCH  18  21
HETATM   21  C   UNL     1      44.309 -12.251   8.925  1.00  0.00     0.034 A 
HETATM   22  C   UNL     1      43.235 -11.396   8.693  1.00  0.00     0.030 A 
HETATM   23  C   UNL     1      42.924 -10.384   9.610  1.00  0.00     0.010 A 
HETATM   24  C   UNL     1      43.688 -10.203  10.770  1.00  0.00    -0.055 A 
HETATM   25  C   UNL     1      44.799 -11.030  10.969  1.00  0.00     0.010 A 
HETATM   26  C   UNL     1      45.108 -12.039  10.052  1.00  0.00     0.030 A 
BRANCH  24  27
HETATM   27  C   UNL     1      43.301  -9.190  11.833  1.00  0.00     0.010 C 
HETATM   28  C   UNL     1      43.367  -9.832  13.223  1.00  0.00     0.015 C 
HETATM   29  C   UNL     1      41.927  -8.562  11.590  1.00  0.00     0.015 C 
ENDBRANCH  24  27
ENDBRANCH  18  21
ENDBRANCH  16  17
ENDBRANCH  15  16
ENDBRANCH   1  15
BRANCH  13  30
HETATM   30  C   UNL     1      40.038 -15.988   2.174  1.00  0.00     0.140 C 
BRANCH  30  31
HETATM   31  C   UNL     1      39.562 -14.822   1.321  1.00  0.00     0.220 C 
HETATM   32  N   UNL     1      39.853 -14.893  -0.020  1.00  0.00    -0.356 N 
HETATM   33  H   UNL     1      39.839 -15.833  -0.402  1.00  0.00     0.162 HD
HETATM   34  O   UNL     1      38.970 -13.878   1.839  1.00  0.00    -0.274 OA
BRANCH  32  35
HETATM   35  C   UNL     1      39.558 -13.833  -0.988  1.00  0.00     0.084 C 
HETATM   36  C   UNL     1      40.680 -12.790  -1.140  1.00  0.00     0.025 C 
HETATM   37  C   UNL     1      41.958 -13.391  -1.720  1.00  0.00     0.002 C 
HETATM   38  C   UNL     1      41.695 -14.077  -3.057  1.00  0.00     0.000 C 
HETATM   39  C   UNL     1      40.556 -15.089  -2.968  1.00  0.00     0.002 C 
HETATM   40  C   UNL     1      39.289 -14.476  -2.361  1.00  0.00     0.025 C 
ENDBRANCH  32  35
ENDBRANCH  30  31
ENDBRANCH  13  30
TORSDOF 8
ENDMDL
MODEL 3
REMARK VINA RESULT:     -10.3      1.400      1.967
REMARK  8 active torsions:
REMARK  status: ('A' for Active; 'I' for Inactive)
REMARK    1  A    between atoms: C_2  and  C_3 
REMARK    2  A    between atoms: C_6  and  N_7 
REMARK       I    between atoms: N_7  and  C_8 
REMARK    3  A    between atoms: C_8  and  C_9 
REMARK    4  A    between atoms: C_9  and  S_10 
REMARK    5  A    between atoms: S_10  and  C_11 
REMARK    6  A    between atoms: C_23  and  C_24 
REMARK    7  A    between atoms: C_24  and  C_25 
REMARK       I    between atoms: C_25  and  N_26 
REMARK    8  A    between atoms: N_26  and  C_27 
ROOT
HETATM    1  C   UNL     1      43.331 -15.700   5.282  1.00  0.00     0.178 C 
HETATM    2  N   UNL     1      42.748 -15.730   4.025  1.00  0.00    -0.241 N 
HETATM    3  C   UNL     1      42.955 -16.766   3.174  1.00  0.00     0.147 C 
HETATM    4  N   UNL     1      42.501 -16.653   1.963  1.00  0.00    -0.256 NA
HETATM    5  C   UNL     1      43.659 -17.938   3.697  1.00  0.00     0.039 A 
HETATM    6  C   UNL     1      44.116 -17.863   5.018  1.00  0.00     0.073 A 
HETATM    7  C   UNL     1      43.807 -19.100   2.934  1.00  0.00     0.018 A 
HETATM    8  C   UNL     1      44.423 -20.214   3.504  1.00  0.00     0.001 A 
HETATM    9  C   UNL     1      44.878 -20.158   4.822  1.00  0.00     0.002 A 
HETATM   10  C   UNL     1      44.725 -18.989   5.573  1.00  0.00     0.032 A 
HETATM   11  C   UNL     1      41.921 -14.832   3.391  1.00  0.00     0.257 C 
HETATM   12  O   UNL     1      41.320 -13.877   3.855  1.00  0.00    -0.270 OA
HETATM   13  C   UNL     1      41.799 -15.335   1.964  1.00  0.00     0.211 C 
HETATM   14  N   UNL     1      43.992 -16.693   5.792  1.00  0.00    -0.223 NA
ENDROOT
BRANCH   1  15
HETATM   15  S   UNL     1      43.277 -14.223   6.207  1.00  0.00    -0.082 SA
BRANCH  15  16
HETATM   16  C   UNL     1      45.032 -14.062   6.615  1.00  0.00     0.185 C 
BRANCH  16  17
HETATM   17  C   UNL     1      45.316 -13.176   7.822  1.00  0.00     0.231 C 
HETATM   18  N   UNL     1      44.266 -13.042   8.708  1.00  0.00    -0.327 N 
HETATM   19  H   UNL     1      43.471 -13.661   8.563  1.00  0.00     0.169 HD
HETATM   20  O   UNL     1      46.389 -12.578   7.890  1.00  0.00    -0.272 OA
BRANCH  18  21
HETATM   21  C   UNL     1      44.122 -12.098   9.743  1.00  0.00     0.034 A 
HETATM   22  C   UNL     1      43.754 -10.769   9.542  1.00  0.00     0.030 A 
HETATM   23  C   UNL     1      43.491  -9.934  10.634  1.00  0.00     0.010 A 
HETATM   24  C   UNL     1      43.601 -10.407  11.948  1.00  0.00    -0.055 A 
HETATM   25  C   UNL     1      44.024 -11.726  12.144  1.00  0.00     0.010 A 
HETATM   26  C   UNL     1      44.287 -12.559  11.052  1.00  0.00     0.030 A 
BRANCH  24  27
HETATM   27  C   UNL     1      43.209  -9.555  13.141  1.00  0.00     0.010 C 
HETATM   28  C   UNL     1      42.360 -10.373  14.119  1.00  0.00     0.015 C 
HETATM   29  C   UNL     1      42.489  -8.264  12.745  1.00  0.00     0.015 C 
ENDBRANCH  24  27
ENDBRANCH  18  21
ENDBRANCH  16  17
ENDBRANCH  15  16
ENDBRANCH   1  15
BRANCH  13  30
HETATM   30  C   UNL     1      40.357 -15.544   1.524  1.00  0.00     0.140 C 
BRANCH  30  31
HETATM   31  C   UNL     1      39.798 -14.488   0.582  1.00  0.00     0.220 C 
HETATM   32  N   UNL     1      40.710 -13.847  -0.221  1.00  0.00    -0.356 N 
HETATM   33  H   UNL     1      41.484 -14.430  -0.522  1.00  0.00     0.162 HD
HETATM   34  O   UNL     1      38.596 -14.236   0.580  1.00  0.00    -0.274 OA
BRANCH  32  35
HETATM   35  C   UNL     1      40.384 -12.744  -1.128  1.00  0.00     0.084 C 
HETATM   36  C   UNL     1      41.393 -11.581  -1.094  1.00  0.00     0.025 C 
HETATM   37  C   UNL     1      42.774 -11.996  -1.597  1.00  0.00     0.002 C 
HETATM   38  C   UNL     1      42.702 -12.587  -3.001  1.00  0.00     0.000 C 
HETATM   39  C   UNL     1      41.678 -13.715  -3.097  1.00  0.00     0.002 C 
HETATM   40  C   UNL     1      40.305 -13.289  -2.565  1.00  0.00     0.025 C 
ENDBRANCH  32  35
ENDBRANCH  30  31
ENDBRANCH  13  30
TORSDOF 8
ENDMDL
MODEL 4
REMARK VINA RESULT:      -9.9      4.477     10.554
REMARK  8 active torsions:
REMARK  status: ('A' for Active; 'I' for Inactive)
REMARK    1  A    between atoms: C_2  and  C_3 
REMARK    2  A    between atoms: C_6  and  N_7 
REMARK       I    between atoms: N_7  and  C_8 
REMARK    3  A    between atoms: C_8  and  C_9 
REMARK    4  A    between atoms: C_9  and  S_10 
REMARK    5  A    between atoms: S_10  and  C_11 
REMARK    6  A    between atoms: C_23  and  C_24 
REMARK    7  A    between atoms: C_24  and  C_25 
REMARK       I    between atoms: C_25  and  N_26 
REMARK    8  A    between atoms: N_26  and  C_27 
ROOT
HETATM    1  C   UNL     1      41.352  -8.611  10.597  1.00  0.00     0.178 C 
HETATM    2  N   UNL     1      42.419  -9.494  10.623  1.00  0.00    -0.241 N 
HETATM    3  C   UNL     1      43.048  -9.808  11.784  1.00  0.00     0.147 C 
HETATM    4  N   UNL     1      44.130 -10.522  11.710  1.00  0.00    -0.256 NA
HETATM    5  C   UNL     1      42.443  -9.334  13.029  1.00  0.00     0.039 A 
HETATM    6  C   UNL     1      41.297  -8.538  12.911  1.00  0.00     0.073 A 
HETATM    7  C   UNL     1      42.947  -9.714  14.276  1.00  0.00     0.018 A 
HETATM    8  C   UNL     1      42.291  -9.292  15.432  1.00  0.00     0.001 A 
HETATM    9  C   UNL     1      41.143  -8.504  15.333  1.00  0.00     0.002 A 
HETATM   10  C   UNL     1      40.651  -8.131  14.079  1.00  0.00     0.032 A 
HETATM   11  C   UNL     1      43.045 -10.186   9.613  1.00  0.00     0.257 C 
HETATM   12  O   UNL     1      42.684 -10.360   8.460  1.00  0.00    -0.270 OA
HETATM   13  C   UNL     1      44.268 -10.816  10.253  1.00  0.00     0.211 C 
HETATM   14  N   UNL     1      40.788  -8.131  11.662  1.00  0.00    -0.223 NA
ENDROOT
BRANCH   1  15
HETATM   15  S   UNL     1      40.781  -8.015   9.060  1.00  0.00    -0.082 SA
BRANCH  15  16
HETATM   16  C   UNL     1      39.249  -8.967   8.921  1.00  0.00     0.185 C 
BRANCH  16  17
HETATM   17  C   UNL     1      39.001  -9.556   7.538  1.00  0.00     0.231 C 
HETATM   18  N   UNL     1      39.809 -10.626   7.206  1.00  0.00    -0.327 N 
HETATM   19  H   UNL     1      40.371 -11.018   7.958  1.00  0.00     0.169 HD
HETATM   20  O   UNL     1      38.193  -9.011   6.788  1.00  0.00    -0.272 OA
BRANCH  18  21
HETATM   21  C   UNL     1      40.012 -11.195   5.933  1.00  0.00     0.034 A 
HETATM   22  C   UNL     1      41.025 -10.808   5.059  1.00  0.00     0.030 A 
HETATM   23  C   UNL     1      41.249 -11.521   3.875  1.00  0.00     0.010 A 
HETATM   24  C   UNL     1      40.458 -12.628   3.538  1.00  0.00    -0.055 A 
HETATM   25  C   UNL     1      39.407 -12.976   4.393  1.00  0.00     0.010 A 
HETATM   26  C   UNL     1      39.184 -12.262   5.574  1.00  0.00     0.030 A 
BRANCH  24  27
HETATM   27  C   UNL     1      40.756 -13.484   2.320  1.00  0.00     0.010 C 
HETATM   28  C   UNL     1      40.174 -14.889   2.508  1.00  0.00     0.015 C 
HETATM   29  C   UNL     1      42.248 -13.553   1.988  1.00  0.00     0.015 C 
ENDBRANCH  24  27
ENDBRANCH  18  21
ENDBRANCH  16  17
ENDBRANCH  15  16
ENDBRANCH   1  15
BRANCH  13  30
HETATM   30  C   UNL     1      44.338 -12.324  10.058  1.00  0.00     0.140 C 
BRANCH  30  31
HETATM   31  C   UNL     1      44.902 -12.788   8.724  1.00  0.00     0.220 C 
HETATM   32  N   UNL     1      44.172 -13.740   8.054  1.00  0.00    -0.356 N 
HETATM   33  H   UNL     1      43.167 -13.657   8.173  1.00  0.00     0.162 HD
HETATM   34  O   UNL     1      45.963 -12.328   8.308  1.00  0.00    -0.274 OA
BRANCH  32  35
HETATM   35  C   UNL     1      44.591 -14.376   6.803  1.00  0.00     0.084 C 
HETATM   36  C   UNL     1      44.622 -15.914   6.858  1.00  0.00     0.025 C 
HETATM   37  C   UNL     1      43.233 -16.516   7.060  1.00  0.00     0.002 C 
HETATM   38  C   UNL     1      42.260 -16.049   5.982  1.00  0.00     0.000 C 
HETATM   39  C   UNL     1      42.230 -14.528   5.856  1.00  0.00     0.002 C 
HETATM   40  C   UNL     1      43.634 -13.939   5.679  1.00  0.00     0.025 C 
ENDBRANCH  32  35
ENDBRANCH  30  31
ENDBRANCH  13  30
TORSDOF 8
ENDMDL
MODEL 5
REMARK VINA RESULT:      -9.8      4.194      8.257
REMARK  8 active torsions:
REMARK  status: ('A' for Active; 'I' for Inactive)
REMARK    1  A    between atoms: C_2  and  C_3 
REMARK    2  A    between atoms: C_6  and  N_7 
REMARK       I    between atoms: N_7  and  C_8 
REMARK    3  A    between atoms: C_8  and  C_9 
REMARK    4  A    between atoms: C_9  and  S_10 
REMARK    5  A    between atoms: S_10  and  C_11 
REMARK    6  A    between atoms: C_23  and  C_24 
REMARK    7  A    between atoms: C_24  and  C_25 
REMARK       I    between atoms: C_25  and  N_26 
REMARK    8  A    between atoms: N_26  and  C_27 
ROOT
HETATM    1  C   UNL     1      41.330 -13.157   3.641  1.00  0.00     0.178 C 
HETATM    2  N   UNL     1      41.016 -13.923   2.531  1.00  0.00    -0.241 N 
HETATM    3  C   UNL     1      39.872 -13.719   1.832  1.00  0.00     0.147 C 
HETATM    4  N   UNL     1      39.574 -14.570   0.897  1.00  0.00    -0.256 NA
HETATM    5  C   UNL     1      39.073 -12.541   2.174  1.00  0.00     0.039 A 
HETATM    6  C   UNL     1      39.528 -11.759   3.242  1.00  0.00     0.073 A 
HETATM    7  C   UNL     1      37.948 -12.180   1.427  1.00  0.00     0.018 A 
HETATM    8  C   UNL     1      37.263 -11.010   1.751  1.00  0.00     0.001 A 
HETATM    9  C   UNL     1      37.707 -10.214   2.808  1.00  0.00     0.002 A 
HETATM   10  C   UNL     1      38.833 -10.588   3.548  1.00  0.00     0.032 A 
HETATM   11  C   UNL     1      41.690 -14.960   1.928  1.00  0.00     0.257 C 
HETATM   12  O   UNL     1      42.840 -15.333   2.096  1.00  0.00    -0.270 OA
HETATM   13  C   UNL     1      40.732 -15.512   0.888  1.00  0.00     0.211 C 
HETATM   14  N   UNL     1      40.648 -12.120   4.016  1.00  0.00    -0.223 NA
ENDROOT
BRANCH   1  15
HETATM   15  S   UNL     1      42.648 -13.654   4.670  1.00  0.00    -0.082 SA
BRANCH  15  16
HETATM   16  C   UNL     1      41.761 -14.786   5.767  1.00  0.00     0.185 C 
BRANCH  16  17
HETATM   17  C   UNL     1      42.014 -16.261   5.484  1.00  0.00     0.231 C 
HETATM   18  N   UNL     1      43.320 -16.579   5.167  1.00  0.00    -0.327 N 
HETATM   19  H   UNL     1      44.011 -15.845   5.308  1.00  0.00     0.169 HD
HETATM   20  O   UNL     1      41.063 -17.042   5.461  1.00  0.00    -0.272 OA
BRANCH  18  21
HETATM   21  C   UNL     1      43.807 -17.772   4.598  1.00  0.00     0.034 A 
HETATM   22  C   UNL     1      44.513 -18.742   5.306  1.00  0.00     0.030 A 
HETATM   23  C   UNL     1      44.835 -19.964   4.702  1.00  0.00     0.010 A 
HETATM   24  C   UNL     1      44.467 -20.235   3.378  1.00  0.00    -0.055 A 
HETATM   25  C   UNL     1      43.808 -19.235   2.656  1.00  0.00     0.010 A 
HETATM   26  C   UNL     1      43.487 -18.015   3.259  1.00  0.00     0.030 A 
BRANCH  24  27
HETATM   27  C   UNL     1      44.704 -21.593   2.743  1.00  0.00     0.010 C 
HETATM   28  C   UNL     1      43.715 -21.819   1.595  1.00  0.00     0.015 C 
HETATM   29  C   UNL     1      44.640 -22.744   3.750  1.00  0.00     0.015 C 
ENDBRANCH  24  27
ENDBRANCH  18  21
ENDBRANCH  16  17
ENDBRANCH  15  16
ENDBRANCH   1  15
BRANCH  13  30
HETATM   30  C   UNL     1      41.326 -15.552  -0.513  1.00  0.00     0.140 C 
BRANCH  30  31
HETATM   31  C   UNL     1      40.898 -14.425  -1.440  1.00  0.00     0.220 C 
HETATM   32  N   UNL     1      41.614 -13.255  -1.344  1.00  0.00    -0.356 N 
HETATM   33  H   UNL     1      42.597 -13.383  -1.130  1.00  0.00     0.162 HD
HETATM   34  O   UNL     1      39.951 -14.580  -2.206  1.00  0.00    -0.274 OA
BRANCH  32  35
HETATM   35  C   UNL     1      41.301 -12.031  -2.086  1.00  0.00     0.084 C 
HETATM   36  C   UNL     1      40.401 -11.044  -1.320  1.00  0.00     0.025 C 
HETATM   37  C   UNL     1      41.082 -10.484  -0.073  1.00  0.00     0.002 C 
HETATM   38  C   UNL     1      42.414  -9.824  -0.413  1.00  0.00     0.000 C 
HETATM   39  C   UNL     1      43.325 -10.750  -1.216  1.00  0.00     0.002 C 
HETATM   40  C   UNL     1      42.618 -11.321  -2.450  1.00  0.00     0.025 C 
ENDBRANCH  32  35
ENDBRANCH  30  31
ENDBRANCH  13  30
TORSDOF 8
ENDMDL
MODEL 6
REMARK VINA RESULT:      -9.8      3.237      7.606
REMARK  8 active torsions:
REMARK  status: ('A' for Active; 'I' for Inactive)
REMARK    1  A    between atoms: C_2  and  C_3 
REMARK    2  A    between atoms: C_6  and  N_7 
REMARK       I    between atoms: N_7  and  C_8 
REMARK    3  A    between atoms: C_8  and  C_9 
REMARK    4  A    between atoms: C_9  and  S_10 
REMARK    5  A    between atoms: S_10  and  C_11 
REMARK    6  A    between atoms: C_23  and  C_24 
REMARK    7  A    between atoms: C_24  and  C_25 
REMARK       I    between atoms: C_25  and  N_26 
REMARK    8  A    between atoms: N_26  and  C_27 
ROOT
HETATM    1  C   UNL     1      42.343 -14.287   3.200  1.00  0.00     0.178 C 
HETATM    2  N   UNL     1      42.722 -14.812   4.425  1.00  0.00    -0.241 N 
HETATM    3  C   UNL     1      43.067 -16.118   4.558  1.00  0.00     0.147 C 
HETATM    4  N   UNL     1      43.263 -16.571   5.759  1.00  0.00    -0.256 NA
HETATM    5  C   UNL     1      43.209 -16.906   3.333  1.00  0.00     0.039 A 
HETATM    6  C   UNL     1      42.914 -16.259   2.128  1.00  0.00     0.073 A 
HETATM    7  C   UNL     1      43.683 -18.221   3.363  1.00  0.00     0.018 A 
HETATM    8  C   UNL     1      43.868 -18.904   2.162  1.00  0.00     0.001 A 
HETATM    9  C   UNL     1      43.585 -18.272   0.951  1.00  0.00     0.002 A 
HETATM   10  C   UNL     1      43.111 -16.957   0.936  1.00  0.00     0.032 A 
HETATM   11  C   UNL     1      42.826 -14.228   5.666  1.00  0.00     0.257 C 
HETATM   12  O   UNL     1      42.813 -13.045   5.964  1.00  0.00    -0.270 OA
HETATM   13  C   UNL     1      43.084 -15.372   6.629  1.00  0.00     0.211 C 
HETATM   14  N   UNL     1      42.417 -14.941   2.083  1.00  0.00    -0.223 NA
ENDROOT
BRANCH   1  15
HETATM   15  S   UNL     1      41.627 -12.697   3.143  1.00  0.00    -0.082 SA
BRANCH  15  16
HETATM   16  C   UNL     1      39.987 -13.085   3.800  1.00  0.00     0.185 C 
BRANCH  16  17
HETATM   17  C   UNL     1      39.429 -12.034   4.752  1.00  0.00     0.231 C 
HETATM   18  N   UNL     1      40.198 -11.795   5.874  1.00  0.00    -0.327 N 
HETATM   19  H   UNL     1      41.126 -12.213   5.882  1.00  0.00     0.169 HD
HETATM   20  O   UNL     1      38.323 -11.544   4.526  1.00  0.00    -0.272 OA
BRANCH  18  21
HETATM   21  C   UNL     1      39.829 -11.107   7.046  1.00  0.00     0.034 A 
HETATM   22  C   UNL     1      39.351 -11.729   8.197  1.00  0.00     0.030 A 
HETATM   23  C   UNL     1      39.144 -10.989   9.368  1.00  0.00     0.010 A 
HETATM   24  C   UNL     1      39.401  -9.612   9.407  1.00  0.00    -0.055 A 
HETATM   25  C   UNL     1      39.827  -8.984   8.231  1.00  0.00     0.010 A 
HETATM   26  C   UNL     1      40.033  -9.724   7.063  1.00  0.00     0.030 A 
BRANCH  24  27
HETATM   27  C   UNL     1      39.295  -8.814  10.693  1.00  0.00     0.010 C 
HETATM   28  C   UNL     1      39.316  -9.756  11.902  1.00  0.00     0.015 C 
HETATM   29  C   UNL     1      38.064  -7.906  10.734  1.00  0.00     0.015 C 
ENDBRANCH  24  27
ENDBRANCH  18  21
ENDBRANCH  16  17
ENDBRANCH  15  16
ENDBRANCH   1  15
BRANCH  13  30
HETATM   30  C   UNL     1      44.339 -15.178   7.468  1.00  0.00     0.140 C 
BRANCH  30  31
HETATM   31  C   UNL     1      44.795 -13.737   7.645  1.00  0.00     0.220 C 
HETATM   32  N   UNL     1      44.064 -12.973   8.522  1.00  0.00    -0.356 N 
HETATM   33  H   UNL     1      43.697 -13.484   9.317  1.00  0.00     0.162 HD
HETATM   34  O   UNL     1      45.756 -13.311   7.009  1.00  0.00    -0.274 OA
BRANCH  32  35
HETATM   35  C   UNL     1      44.290 -11.545   8.761  1.00  0.00     0.084 C 
HETATM   36  C   UNL     1      43.046 -10.786   9.257  1.00  0.00     0.025 C 
HETATM   37  C   UNL     1      42.585 -11.261  10.633  1.00  0.00     0.002 C 
HETATM   38  C   UNL     1      43.706 -11.160  11.663  1.00  0.00     0.000 C 
HETATM   39  C   UNL     1      44.980 -11.859  11.195  1.00  0.00     0.002 C 
HETATM   40  C   UNL     1      45.414 -11.388   9.802  1.00  0.00     0.025 C 
ENDBRANCH  32  35
ENDBRANCH  30  31
ENDBRANCH  13  30
TORSDOF 8
ENDMDL
MODEL 7
REMARK VINA RESULT:      -9.8      3.318      6.108
REMARK  8 active torsions:
REMARK  status: ('A' for Active; 'I' for Inactive)
REMARK    1  A    between atoms: C_2  and  C_3 
REMARK    2  A    between atoms: C_6  and  N_7 
REMARK       I    between atoms: N_7  and  C_8 
REMARK    3  A    between atoms: C_8  and  C_9 
REMARK    4  A    between atoms: C_9  and  S_10 
REMARK    5  A    between atoms: S_10  and  C_11 
REMARK    6  A    between atoms: C_23  and  C_24 
REMARK    7  A    between atoms: C_24  and  C_25 
REMARK       I    between atoms: C_25  and  N_26 
REMARK    8  A    between atoms: N_26  and  C_27 
ROOT
HETATM    1  C   UNL     1      43.028 -14.427   5.956  1.00  0.00     0.178 C 
HETATM    2  N   UNL     1      42.377 -15.306   5.106  1.00  0.00    -0.241 N 
HETATM    3  C   UNL     1      41.285 -14.925   4.397  1.00  0.00     0.147 C 
HETATM    4  N   UNL     1      40.641 -15.842   3.740  1.00  0.00    -0.256 NA
HETATM    5  C   UNL     1      40.931 -13.505   4.414  1.00  0.00     0.039 A 
HETATM    6  C   UNL     1      41.716 -12.668   5.216  1.00  0.00     0.073 A 
HETATM    7  C   UNL     1      39.901 -13.000   3.615  1.00  0.00     0.018 A 
HETATM    8  C   UNL     1      39.650 -11.628   3.614  1.00  0.00     0.001 A 
HETATM    9  C   UNL     1      40.428 -10.779   4.402  1.00  0.00     0.002 A 
HETATM   10  C   UNL     1      41.454 -11.298   5.198  1.00  0.00     0.032 A 
HETATM   11  C   UNL     1      42.628 -16.624   4.802  1.00  0.00     0.257 C 
HETATM   12  O   UNL     1      43.617 -17.295   5.047  1.00  0.00    -0.270 OA
HETATM   13  C   UNL     1      41.443 -17.079   3.972  1.00  0.00     0.211 C 
HETATM   14  N   UNL     1      42.744 -13.164   6.041  1.00  0.00    -0.223 NA
ENDROOT
BRANCH   1  15
HETATM   15  S   UNL     1      44.228 -15.047   7.059  1.00  0.00    -0.082 SA
BRANCH  15  16
HETATM   16  C   UNL     1      45.436 -13.703   6.972  1.00  0.00     0.185 C 
BRANCH  16  17
HETATM   17  C   UNL     1      45.423 -12.769   8.176  1.00  0.00     0.231 C 
HETATM   18  N   UNL     1      44.230 -12.729   8.871  1.00  0.00    -0.327 N 
HETATM   19  H   UNL     1      43.538 -13.432   8.620  1.00  0.00     0.169 HD
HETATM   20  O   UNL     1      46.403 -12.060   8.399  1.00  0.00    -0.272 OA
BRANCH  18  21
HETATM   21  C   UNL     1      43.820 -11.786   9.833  1.00  0.00     0.034 A 
HETATM   22  C   UNL     1      43.120 -10.620   9.533  1.00  0.00     0.030 A 
HETATM   23  C   UNL     1      42.623  -9.808  10.560  1.00  0.00     0.010 A 
HETATM   24  C   UNL     1      42.824 -10.142  11.906  1.00  0.00    -0.055 A 
HETATM   25  C   UNL     1      43.575 -11.285  12.200  1.00  0.00     0.010 A 
HETATM   26  C   UNL     1      44.072 -12.093  11.173  1.00  0.00     0.030 A 
BRANCH  24  27
HETATM   27  C   UNL     1      42.196  -9.341  13.032  1.00  0.00     0.010 C 
HETATM   28  C   UNL     1      42.587  -7.864  12.911  1.00  0.00     0.015 C 
HETATM   29  C   UNL     1      42.545  -9.883  14.419  1.00  0.00     0.015 C 
ENDBRANCH  24  27
ENDBRANCH  18  21
ENDBRANCH  16  17
ENDBRANCH  15  16
ENDBRANCH   1  15
BRANCH  13  30
HETATM   30  C   UNL     1      41.844 -17.668   2.627  1.00  0.00     0.140 C 
BRANCH  30  31
HETATM   31  C   UNL     1      43.292 -18.117   2.512  1.00  0.00     0.220 C 
HETATM   32  N   UNL     1      43.603 -19.321   3.098  1.00  0.00    -0.356 N 
HETATM   33  H   UNL     1      42.859 -20.010   3.058  1.00  0.00     0.162 HD
HETATM   34  O   UNL     1      44.115 -17.410   1.936  1.00  0.00    -0.274 OA
BRANCH  32  35
HETATM   35  C   UNL     1      44.955 -19.881   3.171  1.00  0.00     0.084 C 
HETATM   36  C   UNL     1      45.383 -20.310   4.587  1.00  0.00     0.025 C 
HETATM   37  C   UNL     1      44.540 -21.464   5.124  1.00  0.00     0.002 C 
HETATM   38  C   UNL     1      44.570 -22.663   4.182  1.00  0.00     0.000 C 
HETATM   39  C   UNL     1      44.199 -22.279   2.752  1.00  0.00     0.002 C 
HETATM   40  C   UNL     1      45.037 -21.103   2.238  1.00  0.00     0.025 C 
ENDBRANCH  32  35
ENDBRANCH  30  31
ENDBRANCH  13  30
TORSDOF 8
ENDMDL
MODEL 8
REMARK VINA RESULT:      -9.7      3.564      7.768
REMARK  8 active torsions:
REMARK  status: ('A' for Active; 'I' for Inactive)
REMARK    1  A    between atoms: C_2  and  C_3 
REMARK    2  A    between atoms: C_6  and  N_7 
REMARK       I    between atoms: N_7  and  C_8 
REMARK    3  A    between atoms: C_8  and  C_9 
REMARK    4  A    between atoms: C_9  and  S_10 
REMARK    5  A    between atoms: S_10  and  C_11 
REMARK    6  A    between atoms: C_23  and  C_24 
REMARK    7  A    between atoms: C_24  and  C_25 
REMARK       I    between atoms: C_25  and  N_26 
REMARK    8  A    between atoms: N_26  and  C_27 
ROOT
HETATM    1  C   UNL     1      43.550 -18.247   2.448  1.00  0.00     0.178 C 
HETATM    2  N   UNL     1      43.482 -17.733   3.733  1.00  0.00    -0.241 N 
HETATM    3  C   UNL     1      43.612 -18.533   4.821  1.00  0.00     0.147 C 
HETATM    4  N   UNL     1      43.387 -18.007   5.987  1.00  0.00    -0.256 NA
HETATM    5  C   UNL     1      44.015 -19.921   4.594  1.00  0.00     0.039 A 
HETATM    6  C   UNL     1      44.171 -20.324   3.262  1.00  0.00     0.073 A 
HETATM    7  C   UNL     1      44.297 -20.783   5.658  1.00  0.00     0.018 A 
HETATM    8  C   UNL     1      44.746 -22.075   5.387  1.00  0.00     0.001 A 
HETATM    9  C   UNL     1      44.913 -22.490   4.066  1.00  0.00     0.002 A 
HETATM   10  C   UNL     1      44.626 -21.618   3.011  1.00  0.00     0.032 A 
HETATM   11  C   UNL     1      43.283 -16.449   4.184  1.00  0.00     0.257 C 
HETATM   12  O   UNL     1      43.325 -15.399   3.563  1.00  0.00    -0.270 OA
HETATM   13  C   UNL     1      43.104 -16.573   5.686  1.00  0.00     0.211 C 
HETATM   14  N   UNL     1      43.872 -19.474   2.179  1.00  0.00    -0.223 NA
ENDROOT
BRANCH   1  15
HETATM   15  S   UNL     1      43.080 -17.237   1.105  1.00  0.00    -0.082 SA
BRANCH  15  16
HETATM   16  C   UNL     1      41.298 -17.552   1.104  1.00  0.00     0.185 C 
BRANCH  16  17
HETATM   17  C   UNL     1      40.450 -16.350   1.501  1.00  0.00     0.231 C 
HETATM   18  N   UNL     1      40.023 -15.564   0.450  1.00  0.00    -0.327 N 
HETATM   19  H   UNL     1      40.173 -15.939  -0.485  1.00  0.00     0.169 HD
HETATM   20  O   UNL     1      40.276 -16.103   2.694  1.00  0.00    -0.272 OA
BRANCH  18  21
HETATM   21  C   UNL     1      39.474 -14.267   0.505  1.00  0.00     0.034 A 
HETATM   22  C   UNL     1      38.182 -13.985   0.943  1.00  0.00     0.030 A 
HETATM   23  C   UNL     1      37.764 -12.659   1.105  1.00  0.00     0.010 A 
HETATM   24  C   UNL     1      38.624 -11.590   0.823  1.00  0.00    -0.055 A 
HETATM   25  C   UNL     1      39.902 -11.880   0.331  1.00  0.00     0.010 A 
HETATM   26  C   UNL     1      40.318 -13.205   0.169  1.00  0.00     0.030 A 
BRANCH  24  27
HETATM   27  C   UNL     1      38.231 -10.151   1.101  1.00  0.00     0.010 C 
HETATM   28  C   UNL     1      37.502  -9.559  -0.109  1.00  0.00     0.015 C 
HETATM   29  C   UNL     1      39.418  -9.273   1.503  1.00  0.00     0.015 C 
ENDBRANCH  24  27
ENDBRANCH  18  21
ENDBRANCH  16  17
ENDBRANCH  15  16
ENDBRANCH   1  15
BRANCH  13  30
HETATM   30  C   UNL     1      44.068 -15.702   6.478  1.00  0.00     0.140 C 
BRANCH  30  31
HETATM   31  C   UNL     1      43.713 -14.224   6.549  1.00  0.00     0.220 C 
HETATM   32  N   UNL     1      42.445 -13.885   6.141  1.00  0.00    -0.356 N 
HETATM   33  H   UNL     1      41.738 -14.582   6.350  1.00  0.00     0.162 HD
HETATM   34  O   UNL     1      44.543 -13.406   6.937  1.00  0.00    -0.274 OA
BRANCH  32  35
HETATM   35  C   UNL     1      41.945 -12.511   6.052  1.00  0.00     0.084 C 
HETATM   36  C   UNL     1      41.918 -11.942   4.621  1.00  0.00     0.025 C 
HETATM   37  C   UNL     1      40.938 -12.688   3.718  1.00  0.00     0.002 C 
HETATM   38  C   UNL     1      39.531 -12.693   4.306  1.00  0.00     0.000 C 
HETATM   39  C   UNL     1      39.512 -13.205   5.744  1.00  0.00     0.002 C 
HETATM   40  C   UNL     1      40.519 -12.463   6.630  1.00  0.00     0.025 C 
ENDBRANCH  32  35
ENDBRANCH  30  31
ENDBRANCH  13  30
TORSDOF 8
ENDMDL
MODEL 9
REMARK VINA RESULT:      -9.6      2.262      4.143
REMARK  8 active torsions:
REMARK  status: ('A' for Active; 'I' for Inactive)
REMARK    1  A    between atoms: C_2  and  C_3 
REMARK    2  A    between atoms: C_6  and  N_7 
REMARK       I    between atoms: N_7  and  C_8 
REMARK    3  A    between atoms: C_8  and  C_9 
REMARK    4  A    between atoms: C_9  and  S_10 
REMARK    5  A    between atoms: S_10  and  C_11 
REMARK    6  A    between atoms: C_23  and  C_24 
REMARK    7  A    between atoms: C_24  and  C_25 
REMARK       I    between atoms: C_25  and  N_26 
REMARK    8  A    between atoms: N_26  and  C_27 
ROOT
HETATM    1  C   UNL     1      42.723 -14.437   5.722  1.00  0.00     0.178 C 
HETATM    2  N   UNL     1      42.029 -15.211   4.807  1.00  0.00    -0.241 N 
HETATM    3  C   UNL     1      40.925 -14.738   4.174  1.00  0.00     0.147 C 
HETATM    4  N   UNL     1      40.243 -15.571   3.448  1.00  0.00    -0.256 NA
HETATM    5  C   UNL     1      40.605 -13.321   4.346  1.00  0.00     0.039 A 
HETATM    6  C   UNL     1      41.432 -12.586   5.203  1.00  0.00     0.073 A 
HETATM    7  C   UNL     1      39.564 -12.717   3.634  1.00  0.00     0.018 A 
HETATM    8  C   UNL     1      39.346 -11.348   3.780  1.00  0.00     0.001 A 
HETATM    9  C   UNL     1      40.165 -10.599   4.625  1.00  0.00     0.002 A 
HETATM   10  C   UNL     1      41.201 -11.216   5.332  1.00  0.00     0.032 A 
HETATM   11  C   UNL     1      42.241 -16.496   4.365  1.00  0.00     0.257 C 
HETATM   12  O   UNL     1      43.221 -17.209   4.510  1.00  0.00    -0.270 OA
HETATM   13  C   UNL     1      41.022 -16.841   3.529  1.00  0.00     0.211 C 
HETATM   14  N   UNL     1      42.471 -13.184   5.942  1.00  0.00    -0.223 NA
ENDROOT
BRANCH   1  15
HETATM   15  S   UNL     1      43.940 -15.189   6.719  1.00  0.00    -0.082 SA
BRANCH  15  16
HETATM   16  C   UNL     1      45.268 -13.974   6.538  1.00  0.00     0.185 C 
BRANCH  16  17
HETATM   17  C   UNL     1      45.451 -13.062   7.745  1.00  0.00     0.231 C 
HETATM   18  N   UNL     1      44.324 -12.890   8.524  1.00  0.00    -0.327 N 
HETATM   19  H   UNL     1      43.537 -13.502   8.319  1.00  0.00     0.169 HD
HETATM   20  O   UNL     1      46.523 -12.477   7.900  1.00  0.00    -0.272 OA
BRANCH  18  21
HETATM   21  C   UNL     1      44.098 -11.918   9.518  1.00  0.00     0.034 A 
HETATM   22  C   UNL     1      43.169 -10.887   9.403  1.00  0.00     0.030 A 
HETATM   23  C   UNL     1      42.902 -10.050  10.493  1.00  0.00     0.010 A 
HETATM   24  C   UNL     1      43.566 -10.221  11.715  1.00  0.00    -0.055 A 
HETATM   25  C   UNL     1      44.538 -11.223  11.806  1.00  0.00     0.010 A 
HETATM   26  C   UNL     1      44.804 -12.058  10.716  1.00  0.00     0.030 A 
BRANCH  24  27
HETATM   27  C   UNL     1      43.209  -9.402  12.942  1.00  0.00     0.010 C 
HETATM   28  C   UNL     1      42.464 -10.272  13.959  1.00  0.00     0.015 C 
HETATM   29  C   UNL     1      42.403  -8.144  12.608  1.00  0.00     0.015 C 
ENDBRANCH  24  27
ENDBRANCH  18  21
ENDBRANCH  16  17
ENDBRANCH  15  16
ENDBRANCH   1  15
BRANCH  13  30
HETATM   30  C   UNL     1      41.371 -17.298   2.120  1.00  0.00     0.140 C 
BRANCH  30  31
HETATM   31  C   UNL     1      42.049 -16.258   1.241  1.00  0.00     0.220 C 
HETATM   32  N   UNL     1      41.218 -15.376   0.593  1.00  0.00    -0.356 N 
HETATM   33  H   UNL     1      40.385 -15.126   1.115  1.00  0.00     0.162 HD
HETATM   34  O   UNL     1      43.272 -16.248   1.127  1.00  0.00    -0.274 OA
BRANCH  32  35
HETATM   35  C   UNL     1      41.671 -14.363  -0.363  1.00  0.00     0.084 C 
HETATM   36  C   UNL     1      41.117 -14.548  -1.787  1.00  0.00     0.025 C 
HETATM   37  C   UNL     1      39.601 -14.374  -1.848  1.00  0.00     0.002 C 
HETATM   38  C   UNL     1      39.171 -13.022  -1.290  1.00  0.00     0.000 C 
HETATM   39  C   UNL     1      39.737 -12.770   0.105  1.00  0.00     0.002 C 
HETATM   40  C   UNL     1      41.255 -12.973   0.154  1.00  0.00     0.025 C 
ENDBRANCH  32  35
ENDBRANCH  30  31
ENDBRANCH  13  30
TORSDOF 8
ENDMDL
MODEL 10
REMARK VINA RESULT:      -9.6      3.286     10.154
REMARK  8 active torsions:
REMARK  status: ('A' for Active; 'I' for Inactive)
REMARK    1  A    between atoms: C_2  and  C_3 
REMARK    2  A    between atoms: C_6  and  N_7 
REMARK       I    between atoms: N_7  and  C_8 
REMARK    3  A    between atoms: C_8  and  C_9 
REMARK    4  A    between atoms: C_9  and  S_10 
REMARK    5  A    between atoms: S_10  and  C_11 
REMARK    6  A    between atoms: C_23  and  C_24 
REMARK    7  A    between atoms: C_24  and  C_25 
REMARK       I    between atoms: C_25  and  N_26 
REMARK    8  A    between atoms: N_26  and  C_27 
ROOT
HETATM    1  C   UNL     1      42.778 -13.804   5.366  1.00  0.00     0.178 C 
HETATM    2  N   UNL     1      41.914 -12.746   5.596  1.00  0.00    -0.241 N 
HETATM    3  C   UNL     1      40.851 -12.513   4.786  1.00  0.00     0.147 C 
HETATM    4  N   UNL     1      40.176 -11.419   4.974  1.00  0.00    -0.256 NA
HETATM    5  C   UNL     1      40.538 -13.525   3.775  1.00  0.00     0.039 A 
HETATM    6  C   UNL     1      41.405 -14.620   3.690  1.00  0.00     0.073 A 
HETATM    7  C   UNL     1      39.391 -13.433   2.982  1.00  0.00     0.018 A 
HETATM    8  C   UNL     1      39.101 -14.459   2.084  1.00  0.00     0.001 A 
HETATM    9  C   UNL     1      39.950 -15.562   1.991  1.00  0.00     0.002 A 
HETATM   10  C   UNL     1      41.095 -15.641   2.790  1.00  0.00     0.032 A 
HETATM   11  C   UNL     1      41.911 -11.776   6.572  1.00  0.00     0.257 C 
HETATM   12  O   UNL     1      42.551 -11.726   7.610  1.00  0.00    -0.270 OA
HETATM   13  C   UNL     1      40.834 -10.791   6.157  1.00  0.00     0.211 C 
HETATM   14  N   UNL     1      42.575 -14.718   4.469  1.00  0.00    -0.223 NA
ENDROOT
BRANCH   1  15
HETATM   15  S   UNL     1      44.281 -13.878   6.248  1.00  0.00    -0.082 SA
BRANCH  15  16
HETATM   16  C   UNL     1      43.805 -15.036   7.554  1.00  0.00     0.185 C 
BRANCH  16  17
HETATM   17  C   UNL     1      43.598 -16.468   7.076  1.00  0.00     0.231 C 
HETATM   18  N   UNL     1      44.438 -16.871   6.057  1.00  0.00    -0.327 N 
HETATM   19  H   UNL     1      45.209 -16.245   5.833  1.00  0.00     0.169 HD
HETATM   20  O   UNL     1      42.670 -17.130   7.540  1.00  0.00    -0.272 OA
BRANCH  18  21
HETATM   21  C   UNL     1      44.316 -18.006   5.231  1.00  0.00     0.034 A 
HETATM   22  C   UNL     1      43.781 -17.981   3.945  1.00  0.00     0.030 A 
HETATM   23  C   UNL     1      43.829 -19.123   3.137  1.00  0.00     0.010 A 
HETATM   24  C   UNL     1      44.403 -20.314   3.601  1.00  0.00    -0.055 A 
HETATM   25  C   UNL     1      44.888 -20.348   4.913  1.00  0.00     0.010 A 
HETATM   26  C   UNL     1      44.839 -19.207   5.720  1.00  0.00     0.030 A 
BRANCH  24  27
HETATM   27  C   UNL     1      44.569 -21.526   2.703  1.00  0.00     0.010 C 
HETATM   28  C   UNL     1      43.446 -21.570   1.663  1.00  0.00     0.015 C 
HETATM   29  C   UNL     1      44.641 -22.842   3.481  1.00  0.00     0.015 C 
ENDBRANCH  24  27
ENDBRANCH  18  21
ENDBRANCH  16  17
ENDBRANCH  15  16
ENDBRANCH   1  15
BRANCH  13  30
HETATM   30  C   UNL     1      39.788 -10.556   7.238  1.00  0.00     0.140 C 
BRANCH  30  31
HETATM   31  C   UNL     1      40.163  -9.541   8.306  1.00  0.00     0.220 C 
HETATM   32  N   UNL     1      40.898 -10.017   9.365  1.00  0.00    -0.356 N 
HETATM   33  H   UNL     1      41.550 -10.756   9.123  1.00  0.00     0.162 HD
HETATM   34  O   UNL     1      39.798  -8.372   8.204  1.00  0.00    -0.274 OA
BRANCH  32  35
HETATM   35  C   UNL     1      41.279  -9.220  10.533  1.00  0.00     0.084 C 
HETATM   36  C   UNL     1      40.281  -9.298  11.703  1.00  0.00     0.025 C 
HETATM   37  C   UNL     1      40.196 -10.701  12.301  1.00  0.00     0.002 C 
HETATM   38  C   UNL     1      41.565 -11.202  12.747  1.00  0.00     0.000 C 
HETATM   39  C   UNL     1      42.604 -11.099  11.633  1.00  0.00     0.002 C 
HETATM   40  C   UNL     1      42.659  -9.692  11.027  1.00  0.00     0.025 C 
ENDBRANCH  32  35
ENDBRANCH  30  31
ENDBRANCH  13  30
TORSDOF 8
ENDMDL
