MODEL 1
REMARK VINA RESULT:      -8.4      0.000      0.000
REMARK  8 active torsions:
REMARK  status: ('A' for Active; 'I' for Inactive)
REMARK    1  A    between atoms: C_2  and  O_3 
REMARK    2  A    between atoms: C_2  and  C_4 
REMARK    3  A    between atoms: C_4  and  N_5 
REMARK       I    between atoms: N_5  and  C_6 
REMARK    4  A    between atoms: C_6  and  C_7 
REMARK    5  A    between atoms: C_10  and  O_11 
REMARK    6  A    between atoms: O_11  and  C_12 
REMARK    7  A    between atoms: C_15  and  O_16 
REMARK    8  A    between atoms: O_16  and  C_17 
ROOT
HETATM    1  C   UNL     1      40.343 -14.561   0.232  1.00  0.00     0.049 A 
HETATM    2  C   UNL     1      39.304 -14.921   1.081  1.00  0.00     0.136 A 
HETATM    3  N   UNL     1      39.436 -15.075   2.422  1.00  0.00    -0.236 NA
HETATM    4  C   UNL     1      40.670 -14.873   2.938  1.00  0.00     0.169 A 
HETATM    5  C   UNL     1      41.784 -14.570   2.171  1.00  0.00     0.059 A 
HETATM    6  C   UNL     1      41.612 -14.403   0.798  1.00  0.00     0.023 A 
ENDROOT
BRANCH   4   7
HETATM    7  O   UNL     1      40.873 -15.038   4.298  1.00  0.00    -0.292 OA
BRANCH   7   8
HETATM    8  C   UNL     1      41.792 -15.978   4.706  1.00  0.00     0.078 A 
HETATM    9  C   UNL     1      41.365 -17.307   4.665  1.00  0.00     0.040 A 
HETATM   10  C   UNL     1      42.245 -18.339   4.999  1.00  0.00     0.040 A 
HETATM   11  C   UNL     1      43.564 -18.049   5.353  1.00  0.00     0.076 A 
HETATM   12  C   UNL     1      43.991 -16.719   5.405  1.00  0.00     0.040 A 
HETATM   13  C   UNL     1      43.113 -15.688   5.061  1.00  0.00     0.040 A 
BRANCH  11  14
HETATM   14  O   UNL     1      44.350 -19.127   5.699  1.00  0.00    -0.311 OA
BRANCH  14  15
HETATM   15  C   UNL     1      44.408 -20.191   4.831  1.00  0.00     0.076 A 
HETATM   16  C   UNL     1      44.370 -19.904   3.466  1.00  0.00     0.037 A 
HETATM   17  C   UNL     1      44.459 -20.941   2.538  1.00  0.00     0.003 A 
HETATM   18  C   UNL     1      44.601 -22.259   2.975  1.00  0.00     0.000 A 
HETATM   19  C   UNL     1      44.665 -22.540   4.340  1.00  0.00     0.003 A 
HETATM   20  C   UNL     1      44.580 -21.505   5.272  1.00  0.00     0.037 A 
ENDBRANCH  14  15
ENDBRANCH  11  14
ENDBRANCH   7   8
ENDBRANCH   4   7
BRANCH   1  21
HETATM   21  C   UNL     1      40.173 -14.352  -1.229  1.00  0.00     0.253 C 
HETATM   22  N   UNL     1      40.396 -15.432  -2.060  1.00  0.00    -0.354 N 
HETATM   23  H   UNL     1      40.452 -16.358  -1.660  1.00  0.00     0.162 HD
HETATM   24  O   UNL     1      39.816 -13.253  -1.641  1.00  0.00    -0.268 OA
BRANCH  22  25
HETATM   25  C   UNL     1      40.061 -15.381  -3.476  1.00  0.00     0.154 C 
BRANCH  25  26
HETATM   26  C   UNL     1      38.762 -16.089  -3.893  1.00  0.00     0.132 C 
HETATM   27  C   UNL     1      37.552 -15.165  -3.860  1.00  0.00     0.041 C 
BRANCH  26  28
HETATM   28  O   UNL     1      38.926 -16.565  -5.233  1.00  0.00    -0.394 OA
HETATM   29  H   UNL     1      38.979 -15.781  -5.807  1.00  0.00     0.210 HD
ENDBRANCH  26  28
ENDBRANCH  25  26
ENDBRANCH  22  25
ENDBRANCH   1  21
TORSDOF 8
ENDMDL
MODEL 2
REMARK VINA RESULT:      -8.2      6.725     10.552
REMARK  8 active torsions:
REMARK  status: ('A' for Active; 'I' for Inactive)
REMARK    1  A    between atoms: C_2  and  O_3 
REMARK    2  A    between atoms: C_2  and  C_4 
REMARK    3  A    between atoms: C_4  and  N_5 
REMARK       I    between atoms: N_5  and  C_6 
REMARK    4  A    between atoms: C_6  and  C_7 
REMARK    5  A    between atoms: C_10  and  O_11 
REMARK    6  A    between atoms: O_11  and  C_12 
REMARK    7  A    between atoms: C_15  and  O_16 
REMARK    8  A    between atoms: O_16  and  C_17 
ROOT
HETATM    1  C   UNL     1      43.721 -10.743  10.481  1.00  0.00     0.049 A 
HETATM    2  C   UNL     1      43.122 -10.885   9.236  1.00  0.00     0.136 A 
HETATM    3  N   UNL     1      43.597 -11.685   8.249  1.00  0.00    -0.236 NA
HETATM    4  C   UNL     1      44.735 -12.367   8.515  1.00  0.00     0.169 A 
HETATM    5  C   UNL     1      45.442 -12.250   9.701  1.00  0.00     0.059 A 
HETATM    6  C   UNL     1      44.919 -11.431  10.701  1.00  0.00     0.023 A 
ENDROOT
BRANCH   4   7
HETATM    7  O   UNL     1      45.282 -13.183   7.539  1.00  0.00    -0.292 OA
BRANCH   7   8
HETATM    8  C   UNL     1      44.476 -14.145   6.973  1.00  0.00     0.078 A 
HETATM    9  C   UNL     1      44.143 -13.949   5.631  1.00  0.00     0.040 A 
HETATM   10  C   UNL     1      43.382 -14.901   4.949  1.00  0.00     0.040 A 
HETATM   11  C   UNL     1      42.969 -16.065   5.600  1.00  0.00     0.076 A 
HETATM   12  C   UNL     1      43.292 -16.259   6.945  1.00  0.00     0.040 A 
HETATM   13  C   UNL     1      44.062 -15.311   7.624  1.00  0.00     0.040 A 
BRANCH  11  14
HETATM   14  O   UNL     1      42.194 -16.931   4.859  1.00  0.00    -0.311 OA
BRANCH  14  15
HETATM   15  C   UNL     1      42.830 -17.796   4.000  1.00  0.00     0.076 A 
HETATM   16  C   UNL     1      43.617 -18.797   4.570  1.00  0.00     0.037 A 
HETATM   17  C   UNL     1      44.260 -19.724   3.749  1.00  0.00     0.003 A 
HETATM   18  C   UNL     1      44.102 -19.658   2.365  1.00  0.00     0.000 A 
HETATM   19  C   UNL     1      43.292 -18.672   1.799  1.00  0.00     0.003 A 
HETATM   20  C   UNL     1      42.645 -17.745   2.617  1.00  0.00     0.037 A 
ENDBRANCH  14  15
ENDBRANCH  11  14
ENDBRANCH   7   8
ENDBRANCH   4   7
BRANCH   1  21
HETATM   21  C   UNL     1      43.164  -9.897  11.567  1.00  0.00     0.253 C 
HETATM   22  N   UNL     1      43.604 -10.138  12.854  1.00  0.00    -0.354 N 
HETATM   23  H   UNL     1      44.424 -10.711  12.996  1.00  0.00     0.162 HD
HETATM   24  O   UNL     1      42.369  -9.007  11.287  1.00  0.00    -0.268 OA
BRANCH  22  25
HETATM   25  C   UNL     1      43.273  -9.237  13.949  1.00  0.00     0.154 C 
BRANCH  25  26
HETATM   26  C   UNL     1      42.013  -9.586  14.758  1.00  0.00     0.132 C 
HETATM   27  C   UNL     1      42.043  -9.012  16.169  1.00  0.00     0.041 C 
BRANCH  26  28
HETATM   28  O   UNL     1      40.880  -9.039  14.076  1.00  0.00    -0.394 OA
HETATM   29  H   UNL     1      40.813  -8.105  14.344  1.00  0.00     0.210 HD
ENDBRANCH  26  28
ENDBRANCH  25  26
ENDBRANCH  22  25
ENDBRANCH   1  21
TORSDOF 8
ENDMDL
MODEL 3
REMARK VINA RESULT:      -7.8      3.880      7.114
REMARK  8 active torsions:
REMARK  status: ('A' for Active; 'I' for Inactive)
REMARK    1  A    between atoms: C_2  and  O_3 
REMARK    2  A    between atoms: C_2  and  C_4 
REMARK    3  A    between atoms: C_4  and  N_5 
REMARK       I    between atoms: N_5  and  C_6 
REMARK    4  A    between atoms: C_6  and  C_7 
REMARK    5  A    between atoms: C_10  and  O_11 
REMARK    6  A    between atoms: O_11  and  C_12 
REMARK    7  A    between atoms: C_15  and  O_16 
REMARK    8  A    between atoms: O_16  and  C_17 
ROOT
HETATM    1  C   UNL     1      40.329 -12.399   5.745  1.00  0.00     0.049 A 
HETATM    2  C   UNL     1      40.427 -12.075   4.398  1.00  0.00     0.136 A 
HETATM    3  N   UNL     1      40.366 -12.981   3.391  1.00  0.00    -0.236 NA
HETATM    4  C   UNL     1      40.212 -14.277   3.748  1.00  0.00     0.169 A 
HETATM    5  C   UNL     1      40.164 -14.711   5.063  1.00  0.00     0.059 A 
HETATM    6  C   UNL     1      40.214 -13.754   6.075  1.00  0.00     0.023 A 
ENDROOT
BRANCH   4   7
HETATM    7  O   UNL     1      40.166 -15.252   2.766  1.00  0.00    -0.292 OA
BRANCH   7   8
HETATM    8  C   UNL     1      41.259 -16.075   2.619  1.00  0.00     0.078 A 
HETATM    9  C   UNL     1      40.997 -17.353   2.119  1.00  0.00     0.040 A 
HETATM   10  C   UNL     1      42.047 -18.241   1.875  1.00  0.00     0.040 A 
HETATM   11  C   UNL     1      43.366 -17.848   2.107  1.00  0.00     0.076 A 
HETATM   12  C   UNL     1      43.631 -16.574   2.616  1.00  0.00     0.040 A 
HETATM   13  C   UNL     1      42.581 -15.683   2.851  1.00  0.00     0.040 A 
BRANCH  11  14
HETATM   14  O   UNL     1      44.333 -18.801   1.870  1.00  0.00    -0.311 OA
BRANCH  14  15
HETATM   15  C   UNL     1      44.409 -19.874   2.725  1.00  0.00     0.076 A 
HETATM   16  C   UNL     1      44.307 -21.147   2.163  1.00  0.00     0.037 A 
HETATM   17  C   UNL     1      44.410 -22.275   2.978  1.00  0.00     0.003 A 
HETATM   18  C   UNL     1      44.630 -22.128   4.347  1.00  0.00     0.000 A 
HETATM   19  C   UNL     1      44.759 -20.854   4.903  1.00  0.00     0.003 A 
HETATM   20  C   UNL     1      44.660 -19.724   4.091  1.00  0.00     0.037 A 
ENDBRANCH  14  15
ENDBRANCH  11  14
ENDBRANCH   7   8
ENDBRANCH   4   7
BRANCH   1  21
HETATM   21  C   UNL     1      40.352 -11.390   6.835  1.00  0.00     0.253 C 
HETATM   22  N   UNL     1      41.486 -11.325   7.621  1.00  0.00    -0.354 N 
HETATM   23  H   UNL     1      42.326 -11.792   7.314  1.00  0.00     0.162 HD
HETATM   24  O   UNL     1      39.394 -10.640   6.979  1.00  0.00    -0.268 OA
BRANCH  22  25
HETATM   25  C   UNL     1      41.684 -10.244   8.576  1.00  0.00     0.154 C 
BRANCH  25  26
HETATM   26  C   UNL     1      41.580 -10.622  10.062  1.00  0.00     0.132 C 
HETATM   27  C   UNL     1      40.189 -11.105  10.450  1.00  0.00     0.041 C 
BRANCH  26  28
HETATM   28  O   UNL     1      42.510 -11.681  10.318  1.00  0.00    -0.394 OA
HETATM   29  H   UNL     1      43.398 -11.282  10.320  1.00  0.00     0.210 HD
ENDBRANCH  26  28
ENDBRANCH  25  26
ENDBRANCH  22  25
ENDBRANCH   1  21
TORSDOF 8
ENDMDL
MODEL 4
REMARK VINA RESULT:      -7.8      4.499      8.353
REMARK  8 active torsions:
REMARK  status: ('A' for Active; 'I' for Inactive)
REMARK    1  A    between atoms: C_2  and  O_3 
REMARK    2  A    between atoms: C_2  and  C_4 
REMARK    3  A    between atoms: C_4  and  N_5 
REMARK       I    between atoms: N_5  and  C_6 
REMARK    4  A    between atoms: C_6  and  C_7 
REMARK    5  A    between atoms: C_10  and  O_11 
REMARK    6  A    between atoms: O_11  and  C_12 
REMARK    7  A    between atoms: C_15  and  O_16 
REMARK    8  A    between atoms: O_16  and  C_17 
ROOT
HETATM    1  C   UNL     1      44.014 -13.202   7.423  1.00  0.00     0.049 A 
HETATM    2  C   UNL     1      44.303 -14.482   6.968  1.00  0.00     0.136 A 
HETATM    3  N   UNL     1      43.698 -15.067   5.904  1.00  0.00    -0.236 NA
HETATM    4  C   UNL     1      42.748 -14.341   5.271  1.00  0.00     0.169 A 
HETATM    5  C   UNL     1      42.345 -13.079   5.680  1.00  0.00     0.059 A 
HETATM    6  C   UNL     1      42.996 -12.500   6.768  1.00  0.00     0.023 A 
ENDROOT
BRANCH   4   7
HETATM    7  O   UNL     1      42.079 -14.892   4.191  1.00  0.00    -0.292 OA
BRANCH   7   8
HETATM    8  C   UNL     1      42.622 -16.006   3.594  1.00  0.00     0.078 A 
HETATM    9  C   UNL     1      42.057 -17.231   3.958  1.00  0.00     0.040 A 
HETATM   10  C   UNL     1      42.496 -18.414   3.360  1.00  0.00     0.040 A 
HETATM   11  C   UNL     1      43.486 -18.377   2.377  1.00  0.00     0.076 A 
HETATM   12  C   UNL     1      44.060 -17.155   2.017  1.00  0.00     0.040 A 
HETATM   13  C   UNL     1      43.614 -15.971   2.609  1.00  0.00     0.040 A 
BRANCH  11  14
HETATM   14  O   UNL     1      43.880 -19.595   1.867  1.00  0.00    -0.311 OA
BRANCH  14  15
HETATM   15  C   UNL     1      44.278 -20.569   2.751  1.00  0.00     0.076 A 
HETATM   16  C   UNL     1      44.677 -20.154   4.022  1.00  0.00     0.037 A 
HETATM   17  C   UNL     1      45.060 -21.100   4.972  1.00  0.00     0.003 A 
HETATM   18  C   UNL     1      45.029 -22.459   4.656  1.00  0.00     0.000 A 
HETATM   19  C   UNL     1      44.604 -22.874   3.393  1.00  0.00     0.003 A 
HETATM   20  C   UNL     1      44.217 -21.930   2.441  1.00  0.00     0.037 A 
ENDBRANCH  14  15
ENDBRANCH  11  14
ENDBRANCH   7   8
ENDBRANCH   4   7
BRANCH   1  21
HETATM   21  C   UNL     1      44.717 -12.558   8.562  1.00  0.00     0.253 C 
HETATM   22  N   UNL     1      44.022 -11.612   9.289  1.00  0.00    -0.354 N 
HETATM   23  H   UNL     1      43.021 -11.540   9.175  1.00  0.00     0.162 HD
HETATM   24  O   UNL     1      45.861 -12.904   8.834  1.00  0.00    -0.268 OA
BRANCH  22  25
HETATM   25  C   UNL     1      44.550 -11.078  10.537  1.00  0.00     0.154 C 
BRANCH  25  26
HETATM   26  C   UNL     1      43.652 -11.232  11.776  1.00  0.00     0.132 C 
HETATM   27  C   UNL     1      43.342  -9.901  12.447  1.00  0.00     0.041 C 
BRANCH  26  28
HETATM   28  O   UNL     1      42.417 -11.823  11.359  1.00  0.00    -0.394 OA
HETATM   29  H   UNL     1      42.239 -11.500  10.458  1.00  0.00     0.210 HD
ENDBRANCH  26  28
ENDBRANCH  25  26
ENDBRANCH  22  25
ENDBRANCH   1  21
TORSDOF 8
ENDMDL
MODEL 5
REMARK VINA RESULT:      -7.7      4.063      9.493
REMARK  8 active torsions:
REMARK  status: ('A' for Active; 'I' for Inactive)
REMARK    1  A    between atoms: C_2  and  O_3 
REMARK    2  A    between atoms: C_2  and  C_4 
REMARK    3  A    between atoms: C_4  and  N_5 
REMARK       I    between atoms: N_5  and  C_6 
REMARK    4  A    between atoms: C_6  and  C_7 
REMARK    5  A    between atoms: C_10  and  O_11 
REMARK    6  A    between atoms: O_11  and  C_12 
REMARK    7  A    between atoms: C_15  and  O_16 
REMARK    8  A    between atoms: O_16  and  C_17 
ROOT
HETATM    1  C   UNL     1      44.117 -14.548   6.850  1.00  0.00     0.049 A 
HETATM    2  C   UNL     1      44.417 -15.903   6.900  1.00  0.00     0.136 A 
HETATM    3  N   UNL     1      43.791 -16.849   6.157  1.00  0.00    -0.236 NA
HETATM    4  C   UNL     1      42.807 -16.421   5.333  1.00  0.00     0.169 A 
HETATM    5  C   UNL     1      42.391 -15.102   5.253  1.00  0.00     0.059 A 
HETATM    6  C   UNL     1      43.064 -14.151   6.018  1.00  0.00     0.023 A 
ENDROOT
BRANCH   4   7
HETATM    7  O   UNL     1      42.115 -17.343   4.566  1.00  0.00    -0.292 OA
BRANCH   7   8
HETATM    8  C   UNL     1      42.002 -17.106   3.215  1.00  0.00     0.078 A 
HETATM    9  C   UNL     1      40.748 -16.677   2.773  1.00  0.00     0.040 A 
HETATM   10  C   UNL     1      40.550 -16.350   1.430  1.00  0.00     0.040 A 
HETATM   11  C   UNL     1      41.611 -16.427   0.525  1.00  0.00     0.076 A 
HETATM   12  C   UNL     1      42.864 -16.864   0.962  1.00  0.00     0.040 A 
HETATM   13  C   UNL     1      43.064 -17.182   2.308  1.00  0.00     0.040 A 
BRANCH  11  14
HETATM   14  O   UNL     1      41.314 -16.117  -0.784  1.00  0.00    -0.311 OA
BRANCH  14  15
HETATM   15  C   UNL     1      41.061 -14.803  -1.098  1.00  0.00     0.076 A 
HETATM   16  C   UNL     1      39.889 -14.529  -1.804  1.00  0.00     0.037 A 
HETATM   17  C   UNL     1      39.563 -13.210  -2.121  1.00  0.00     0.003 A 
HETATM   18  C   UNL     1      40.400 -12.169  -1.719  1.00  0.00     0.000 A 
HETATM   19  C   UNL     1      41.558 -12.443  -0.990  1.00  0.00     0.003 A 
HETATM   20  C   UNL     1      41.886 -13.760  -0.668  1.00  0.00     0.037 A 
ENDBRANCH  14  15
ENDBRANCH  11  14
ENDBRANCH   7   8
ENDBRANCH   4   7
BRANCH   1  21
HETATM   21  C   UNL     1      44.842 -13.517   7.637  1.00  0.00     0.253 C 
HETATM   22  N   UNL     1      44.206 -12.995   8.745  1.00  0.00    -0.354 N 
HETATM   23  H   UNL     1      43.388 -13.461   9.110  1.00  0.00     0.162 HD
HETATM   24  O   UNL     1      45.975 -13.192   7.300  1.00  0.00    -0.268 OA
BRANCH  22  25
HETATM   25  C   UNL     1      44.909 -12.136   9.688  1.00  0.00     0.154 C 
BRANCH  25  26
HETATM   26  C   UNL     1      44.399 -12.157  11.138  1.00  0.00     0.132 C 
HETATM   27  C   UNL     1      43.095 -11.389  11.313  1.00  0.00     0.041 C 
BRANCH  26  28
HETATM   28  O   UNL     1      44.169 -13.520  11.509  1.00  0.00    -0.394 OA
HETATM   29  H   UNL     1      44.629 -13.664  12.355  1.00  0.00     0.210 HD
ENDBRANCH  26  28
ENDBRANCH  25  26
ENDBRANCH  22  25
ENDBRANCH   1  21
TORSDOF 8
ENDMDL
MODEL 6
REMARK VINA RESULT:      -7.6      1.854      2.254
REMARK  8 active torsions:
REMARK  status: ('A' for Active; 'I' for Inactive)
REMARK    1  A    between atoms: C_2  and  O_3 
REMARK    2  A    between atoms: C_2  and  C_4 
REMARK    3  A    between atoms: C_4  and  N_5 
REMARK       I    between atoms: N_5  and  C_6 
REMARK    4  A    between atoms: C_6  and  C_7 
REMARK    5  A    between atoms: C_10  and  O_11 
REMARK    6  A    between atoms: O_11  and  C_12 
REMARK    7  A    between atoms: C_15  and  O_16 
REMARK    8  A    between atoms: O_16  and  C_17 
ROOT
HETATM    1  C   UNL     1      40.612 -13.807   1.533  1.00  0.00     0.049 A 
HETATM    2  C   UNL     1      41.932 -13.636   1.928  1.00  0.00     0.136 A 
HETATM    3  N   UNL     1      42.343 -13.613   3.221  1.00  0.00    -0.236 NA
HETATM    4  C   UNL     1      41.384 -13.754   4.165  1.00  0.00     0.169 A 
HETATM    5  C   UNL     1      40.033 -13.870   3.878  1.00  0.00     0.059 A 
HETATM    6  C   UNL     1      39.645 -13.906   2.539  1.00  0.00     0.023 A 
ENDROOT
BRANCH   4   7
HETATM    7  O   UNL     1      41.738 -13.716   5.503  1.00  0.00    -0.292 OA
BRANCH   7   8
HETATM    8  C   UNL     1      42.309 -14.841   6.053  1.00  0.00     0.078 A 
HETATM    9  C   UNL     1      41.467 -15.946   6.196  1.00  0.00     0.040 A 
HETATM   10  C   UNL     1      41.968 -17.154   6.685  1.00  0.00     0.040 A 
HETATM   11  C   UNL     1      43.320 -17.271   7.014  1.00  0.00     0.076 A 
HETATM   12  C   UNL     1      44.164 -16.164   6.882  1.00  0.00     0.040 A 
HETATM   13  C   UNL     1      43.663 -14.959   6.382  1.00  0.00     0.040 A 
BRANCH  11  14
HETATM   14  O   UNL     1      43.719 -18.489   7.520  1.00  0.00    -0.311 OA
BRANCH  14  15
HETATM   15  C   UNL     1      44.049 -19.484   6.631  1.00  0.00     0.076 A 
HETATM   16  C   UNL     1      44.710 -19.102   5.463  1.00  0.00     0.037 A 
HETATM   17  C   UNL     1      45.100 -20.071   4.539  1.00  0.00     0.003 A 
HETATM   18  C   UNL     1      44.841 -21.419   4.791  1.00  0.00     0.000 A 
HETATM   19  C   UNL     1      44.203 -21.801   5.972  1.00  0.00     0.003 A 
HETATM   20  C   UNL     1      43.815 -20.834   6.900  1.00  0.00     0.037 A 
ENDBRANCH  14  15
ENDBRANCH  11  14
ENDBRANCH   7   8
ENDBRANCH   4   7
BRANCH   1  21
HETATM   21  C   UNL     1      40.184 -13.875   0.112  1.00  0.00     0.253 C 
HETATM   22  N   UNL     1      41.131 -13.600  -0.855  1.00  0.00    -0.354 N 
HETATM   23  H   UNL     1      42.107 -13.577  -0.596  1.00  0.00     0.162 HD
HETATM   24  O   UNL     1      39.031 -14.197  -0.153  1.00  0.00    -0.268 OA
BRANCH  22  25
HETATM   25  C   UNL     1      40.863 -13.837  -2.266  1.00  0.00     0.154 C 
BRANCH  25  26
HETATM   26  C   UNL     1      41.092 -15.271  -2.771  1.00  0.00     0.132 C 
HETATM   27  C   UNL     1      39.894 -15.824  -3.533  1.00  0.00     0.041 C 
BRANCH  26  28
HETATM   28  O   UNL     1      42.218 -15.258  -3.654  1.00  0.00    -0.394 OA
HETATM   29  H   UNL     1      42.852 -14.613  -3.294  1.00  0.00     0.210 HD
ENDBRANCH  26  28
ENDBRANCH  25  26
ENDBRANCH  22  25
ENDBRANCH   1  21
TORSDOF 8
ENDMDL
MODEL 7
REMARK VINA RESULT:      -7.6      2.181      2.713
REMARK  8 active torsions:
REMARK  status: ('A' for Active; 'I' for Inactive)
REMARK    1  A    between atoms: C_2  and  O_3 
REMARK    2  A    between atoms: C_2  and  C_4 
REMARK    3  A    between atoms: C_4  and  N_5 
REMARK       I    between atoms: N_5  and  C_6 
REMARK    4  A    between atoms: C_6  and  C_7 
REMARK    5  A    between atoms: C_10  and  O_11 
REMARK    6  A    between atoms: O_11  and  C_12 
REMARK    7  A    between atoms: C_15  and  O_16 
REMARK    8  A    between atoms: O_16  and  C_17 
ROOT
HETATM    1  C   UNL     1      41.205 -13.259   2.293  1.00  0.00     0.049 A 
HETATM    2  C   UNL     1      42.356 -13.043   3.040  1.00  0.00     0.136 A 
HETATM    3  N   UNL     1      42.597 -13.611   4.248  1.00  0.00    -0.236 NA
HETATM    4  C   UNL     1      41.634 -14.425   4.739  1.00  0.00     0.169 A 
HETATM    5  C   UNL     1      40.426 -14.659   4.102  1.00  0.00     0.059 A 
HETATM    6  C   UNL     1      40.215 -14.072   2.855  1.00  0.00     0.023 A 
ENDROOT
BRANCH   4   7
HETATM    7  O   UNL     1      41.813 -15.017   5.978  1.00  0.00    -0.292 OA
BRANCH   7   8
HETATM    8  C   UNL     1      42.589 -16.152   6.048  1.00  0.00     0.078 A 
HETATM    9  C   UNL     1      41.969 -17.340   5.652  1.00  0.00     0.040 A 
HETATM   10  C   UNL     1      42.692 -18.535   5.627  1.00  0.00     0.040 A 
HETATM   11  C   UNL     1      44.044 -18.544   5.975  1.00  0.00     0.076 A 
HETATM   12  C   UNL     1      44.664 -17.359   6.380  1.00  0.00     0.040 A 
HETATM   13  C   UNL     1      43.943 -16.162   6.396  1.00  0.00     0.040 A 
BRANCH  11  14
HETATM   14  O   UNL     1      44.667 -19.773   5.953  1.00  0.00    -0.311 OA
BRANCH  14  15
HETATM   15  C   UNL     1      44.636 -20.494   4.783  1.00  0.00     0.076 A 
HETATM   16  C   UNL     1      44.739 -21.882   4.886  1.00  0.00     0.037 A 
HETATM   17  C   UNL     1      44.681 -22.668   3.735  1.00  0.00     0.003 A 
HETATM   18  C   UNL     1      44.505 -22.067   2.488  1.00  0.00     0.000 A 
HETATM   19  C   UNL     1      44.375 -20.681   2.391  1.00  0.00     0.003 A 
HETATM   20  C   UNL     1      44.429 -19.892   3.540  1.00  0.00     0.037 A 
ENDBRANCH  14  15
ENDBRANCH  11  14
ENDBRANCH   7   8
ENDBRANCH   4   7
BRANCH   1  21
HETATM   21  C   UNL     1      40.975 -12.665   0.951  1.00  0.00     0.253 C 
HETATM   22  N   UNL     1      41.941 -12.871  -0.013  1.00  0.00    -0.354 N 
HETATM   23  H   UNL     1      42.648 -13.576   0.140  1.00  0.00     0.162 HD
HETATM   24  O   UNL     1      39.937 -12.048   0.738  1.00  0.00    -0.268 OA
BRANCH  22  25
HETATM   25  C   UNL     1      41.714 -12.504  -1.404  1.00  0.00     0.154 C 
BRANCH  25  26
HETATM   26  C   UNL     1      41.814 -13.643  -2.432  1.00  0.00     0.132 C 
HETATM   27  C   UNL     1      40.767 -13.536  -3.533  1.00  0.00     0.041 C 
BRANCH  26  28
HETATM   28  O   UNL     1      43.110 -13.582  -3.038  1.00  0.00    -0.394 OA
HETATM   29  H   UNL     1      43.434 -14.498  -3.106  1.00  0.00     0.210 HD
ENDBRANCH  26  28
ENDBRANCH  25  26
ENDBRANCH  22  25
ENDBRANCH   1  21
TORSDOF 8
ENDMDL
MODEL 8
REMARK VINA RESULT:      -7.4      3.551      4.428
REMARK  8 active torsions:
REMARK  status: ('A' for Active; 'I' for Inactive)
REMARK    1  A    between atoms: C_2  and  O_3 
REMARK    2  A    between atoms: C_2  and  C_4 
REMARK    3  A    between atoms: C_4  and  N_5 
REMARK       I    between atoms: N_5  and  C_6 
REMARK    4  A    between atoms: C_6  and  C_7 
REMARK    5  A    between atoms: C_10  and  O_11 
REMARK    6  A    between atoms: O_11  and  C_12 
REMARK    7  A    between atoms: C_15  and  O_16 
REMARK    8  A    between atoms: O_16  and  C_17 
ROOT
HETATM    1  C   UNL     1      39.311 -12.593   3.636  1.00  0.00     0.049 A 
HETATM    2  C   UNL     1      39.826 -13.808   3.204  1.00  0.00     0.136 A 
HETATM    3  N   UNL     1      40.228 -14.802   4.034  1.00  0.00    -0.236 NA
HETATM    4  C   UNL     1      40.123 -14.565   5.362  1.00  0.00     0.169 A 
HETATM    5  C   UNL     1      39.679 -13.365   5.895  1.00  0.00     0.059 A 
HETATM    6  C   UNL     1      39.259 -12.369   5.016  1.00  0.00     0.023 A 
ENDROOT
BRANCH   4   7
HETATM    7  O   UNL     1      40.538 -15.533   6.260  1.00  0.00    -0.292 OA
BRANCH   7   8
HETATM    8  C   UNL     1      41.547 -16.386   5.872  1.00  0.00     0.078 A 
HETATM    9  C   UNL     1      42.848 -15.958   6.147  1.00  0.00     0.040 A 
HETATM   10  C   UNL     1      43.936 -16.780   5.849  1.00  0.00     0.040 A 
HETATM   11  C   UNL     1      43.729 -18.046   5.296  1.00  0.00     0.076 A 
HETATM   12  C   UNL     1      42.429 -18.473   5.011  1.00  0.00     0.040 A 
HETATM   13  C   UNL     1      41.340 -17.654   5.319  1.00  0.00     0.040 A 
BRANCH  11  14
HETATM   14  O   UNL     1      44.862 -18.773   5.005  1.00  0.00    -0.311 OA
BRANCH  14  15
HETATM   15  C   UNL     1      44.708 -20.004   4.413  1.00  0.00     0.076 A 
HETATM   16  C   UNL     1      44.543 -20.030   3.028  1.00  0.00     0.037 A 
HETATM   17  C   UNL     1      44.415 -21.253   2.368  1.00  0.00     0.003 A 
HETATM   18  C   UNL     1      44.466 -22.444   3.091  1.00  0.00     0.000 A 
HETATM   19  C   UNL     1      44.658 -22.417   4.473  1.00  0.00     0.003 A 
HETATM   20  C   UNL     1      44.790 -21.196   5.136  1.00  0.00     0.037 A 
ENDBRANCH  14  15
ENDBRANCH  11  14
ENDBRANCH   7   8
ENDBRANCH   4   7
BRANCH   1  21
HETATM   21  C   UNL     1      38.833 -11.531   2.713  1.00  0.00     0.253 C 
HETATM   22  N   UNL     1      37.710 -10.819   3.086  1.00  0.00    -0.354 N 
HETATM   23  H   UNL     1      37.379 -10.882   4.038  1.00  0.00     0.162 HD
HETATM   24  O   UNL     1      39.459 -11.303   1.684  1.00  0.00    -0.268 OA
BRANCH  22  25
HETATM   25  C   UNL     1      37.286  -9.634   2.354  1.00  0.00     0.154 C 
BRANCH  25  26
HETATM   26  C   UNL     1      35.897  -9.701   1.698  1.00  0.00     0.132 C 
HETATM   27  C   UNL     1      35.759 -10.870   0.732  1.00  0.00     0.041 C 
BRANCH  26  28
HETATM   28  O   UNL     1      34.923  -9.859   2.734  1.00  0.00    -0.394 OA
HETATM   29  H   UNL     1      34.533  -8.980   2.892  1.00  0.00     0.210 HD
ENDBRANCH  26  28
ENDBRANCH  25  26
ENDBRANCH  22  25
ENDBRANCH   1  21
TORSDOF 8
ENDMDL
MODEL 9
REMARK VINA RESULT:      -7.2      5.752      9.166
REMARK  8 active torsions:
REMARK  status: ('A' for Active; 'I' for Inactive)
REMARK    1  A    between atoms: C_2  and  O_3 
REMARK    2  A    between atoms: C_2  and  C_4 
REMARK    3  A    between atoms: C_4  and  N_5 
REMARK       I    between atoms: N_5  and  C_6 
REMARK    4  A    between atoms: C_6  and  C_7 
REMARK    5  A    between atoms: C_10  and  O_11 
REMARK    6  A    between atoms: O_11  and  C_12 
REMARK    7  A    between atoms: C_15  and  O_16 
REMARK    8  A    between atoms: O_16  and  C_17 
ROOT
HETATM    1  C   UNL     1      40.282 -10.710   8.867  1.00  0.00     0.049 A 
HETATM    2  C   UNL     1      41.525 -10.724   8.247  1.00  0.00     0.136 A 
HETATM    3  N   UNL     1      41.789 -11.373   7.086  1.00  0.00    -0.236 NA
HETATM    4  C   UNL     1      40.763 -12.054   6.524  1.00  0.00     0.169 A 
HETATM    5  C   UNL     1      39.503 -12.153   7.093  1.00  0.00     0.059 A 
HETATM    6  C   UNL     1      39.260 -11.462   8.279  1.00  0.00     0.023 A 
ENDROOT
BRANCH   4   7
HETATM    7  O   UNL     1      40.976 -12.756   5.350  1.00  0.00    -0.292 OA
BRANCH   7   8
HETATM    8  C   UNL     1      41.522 -14.017   5.439  1.00  0.00     0.078 A 
HETATM    9  C   UNL     1      40.618 -15.060   5.650  1.00  0.00     0.040 A 
HETATM   10  C   UNL     1      41.066 -16.382   5.692  1.00  0.00     0.040 A 
HETATM   11  C   UNL     1      42.419 -16.670   5.500  1.00  0.00     0.076 A 
HETATM   12  C   UNL     1      43.328 -15.628   5.299  1.00  0.00     0.040 A 
HETATM   13  C   UNL     1      42.877 -14.306   5.247  1.00  0.00     0.040 A 
BRANCH  11  14
HETATM   14  O   UNL     1      42.775 -17.998   5.592  1.00  0.00    -0.311 OA
BRANCH  14  15
HETATM   15  C   UNL     1      43.185 -18.639   4.447  1.00  0.00     0.076 A 
HETATM   16  C   UNL     1      44.200 -19.588   4.576  1.00  0.00     0.037 A 
HETATM   17  C   UNL     1      44.635 -20.294   3.454  1.00  0.00     0.003 A 
HETATM   18  C   UNL     1      44.044 -20.062   2.212  1.00  0.00     0.000 A 
HETATM   19  C   UNL     1      43.011 -19.131   2.091  1.00  0.00     0.003 A 
HETATM   20  C   UNL     1      42.571 -18.425   3.211  1.00  0.00     0.037 A 
ENDBRANCH  14  15
ENDBRANCH  11  14
ENDBRANCH   7   8
ENDBRANCH   4   7
BRANCH   1  21
HETATM   21  C   UNL     1      39.997  -9.956  10.116  1.00  0.00     0.253 C 
HETATM   22  N   UNL     1      39.846 -10.683  11.280  1.00  0.00    -0.354 N 
HETATM   23  H   UNL     1      40.137 -11.650  11.300  1.00  0.00     0.162 HD
HETATM   24  O   UNL     1      39.938  -8.733  10.078  1.00  0.00    -0.268 OA
BRANCH  22  25
HETATM   25  C   UNL     1      39.766 -10.027  12.577  1.00  0.00     0.154 C 
BRANCH  25  26
HETATM   26  C   UNL     1      41.105  -9.743  13.278  1.00  0.00     0.132 C 
HETATM   27  C   UNL     1      42.117 -10.865  13.091  1.00  0.00     0.041 C 
BRANCH  26  28
HETATM   28  O   UNL     1      41.654  -8.545  12.718  1.00  0.00    -0.394 OA
HETATM   29  H   UNL     1      40.933  -8.102  12.237  1.00  0.00     0.210 HD
ENDBRANCH  26  28
ENDBRANCH  25  26
ENDBRANCH  22  25
ENDBRANCH   1  21
TORSDOF 8
ENDMDL
MODEL 10
REMARK VINA RESULT:      -7.1      3.252      4.756
REMARK  8 active torsions:
REMARK  status: ('A' for Active; 'I' for Inactive)
REMARK    1  A    between atoms: C_2  and  O_3 
REMARK    2  A    between atoms: C_2  and  C_4 
REMARK    3  A    between atoms: C_4  and  N_5 
REMARK       I    between atoms: N_5  and  C_6 
REMARK    4  A    between atoms: C_6  and  C_7 
REMARK    5  A    between atoms: C_10  and  O_11 
REMARK    6  A    between atoms: O_11  and  C_12 
REMARK    7  A    between atoms: C_15  and  O_16 
REMARK    8  A    between atoms: O_16  and  C_17 
ROOT
HETATM    1  C   UNL     1      39.727 -12.443   0.942  1.00  0.00     0.049 A 
HETATM    2  C   UNL     1      38.986 -13.550   1.335  1.00  0.00     0.136 A 
HETATM    3  N   UNL     1      39.368 -14.835   1.127  1.00  0.00    -0.236 NA
HETATM    4  C   UNL     1      40.543 -15.022   0.483  1.00  0.00     0.169 A 
HETATM    5  C   UNL     1      41.328 -13.988  -0.001  1.00  0.00     0.059 A 
HETATM    6  C   UNL     1      40.915 -12.679   0.241  1.00  0.00     0.023 A 
ENDROOT
BRANCH   4   7
HETATM    7  O   UNL     1      40.976 -16.311   0.222  1.00  0.00    -0.292 OA
BRANCH   7   8
HETATM    8  C   UNL     1      41.899 -16.870   1.078  1.00  0.00     0.078 A 
HETATM    9  C   UNL     1      41.426 -17.210   2.347  1.00  0.00     0.040 A 
HETATM   10  C   UNL     1      42.268 -17.841   3.266  1.00  0.00     0.040 A 
HETATM   11  C   UNL     1      43.581 -18.155   2.912  1.00  0.00     0.076 A 
HETATM   12  C   UNL     1      44.061 -17.807   1.646  1.00  0.00     0.040 A 
HETATM   13  C   UNL     1      43.214 -17.185   0.724  1.00  0.00     0.040 A 
BRANCH  11  14
HETATM   14  O   UNL     1      44.349 -18.745   3.893  1.00  0.00    -0.311 OA
BRANCH  14  15
HETATM   15  C   UNL     1      44.447 -20.116   3.900  1.00  0.00     0.076 A 
HETATM   16  C   UNL     1      44.315 -20.773   2.676  1.00  0.00     0.037 A 
HETATM   17  C   UNL     1      44.438 -22.161   2.618  1.00  0.00     0.003 A 
HETATM   18  C   UNL     1      44.709 -22.887   3.778  1.00  0.00     0.000 A 
HETATM   19  C   UNL     1      44.867 -22.226   4.997  1.00  0.00     0.003 A 
HETATM   20  C   UNL     1      44.747 -20.837   5.059  1.00  0.00     0.037 A 
ENDBRANCH  14  15
ENDBRANCH  11  14
ENDBRANCH   7   8
ENDBRANCH   4   7
BRANCH   1  21
HETATM   21  C   UNL     1      39.317 -11.042   1.217  1.00  0.00     0.253 C 
HETATM   22  N   UNL     1      38.053 -10.836   1.734  1.00  0.00    -0.354 N 
HETATM   23  H   UNL     1      37.538 -11.621   2.106  1.00  0.00     0.162 HD
HETATM   24  O   UNL     1      40.111 -10.132   1.008  1.00  0.00    -0.268 OA
BRANCH  22  25
HETATM   25  C   UNL     1      37.638  -9.528   2.221  1.00  0.00     0.154 C 
BRANCH  25  26
HETATM   26  C   UNL     1      37.660  -9.333   3.746  1.00  0.00     0.132 C 
HETATM   27  C   UNL     1      36.500  -8.482   4.247  1.00  0.00     0.041 C 
BRANCH  26  28
HETATM   28  O   UNL     1      37.567 -10.623   4.361  1.00  0.00    -0.394 OA
HETATM   29  H   UNL     1      38.441 -10.816   4.744  1.00  0.00     0.210 HD
ENDBRANCH  26  28
ENDBRANCH  25  26
ENDBRANCH  22  25
ENDBRANCH   1  21
TORSDOF 8
ENDMDL
