MODEL 1
REMARK VINA RESULT:      -8.4      0.000      0.000
REMARK  6 active torsions:
REMARK  status: ('A' for Active; 'I' for Inactive)
REMARK    1  A    between atoms: C_2  and  C_3 
REMARK    2  A    between atoms: C_3  and  C_4 
REMARK    3  A    between atoms: C_4  and  C_5 
REMARK    4  A    between atoms: C_4  and  C_21 
REMARK       I    between atoms: C_5  and  N_6 
REMARK    5  A    between atoms: N_6  and  C_7 
REMARK    6  A    between atoms: C_14  and  C_15 
REMARK       I    between atoms: C_15  and  N_16 
ROOT
HETATM    1  C   UNL     1      40.640 -15.852   1.093  1.00  0.00     0.035 A 
HETATM    2  C   UNL     1      40.988 -15.462  -0.208  1.00  0.00     0.046 A 
HETATM    3  C   UNL     1      40.268 -14.423  -0.839  1.00  0.00     0.030 A 
HETATM    4  C   UNL     1      39.217 -13.823  -0.156  1.00  0.00     0.063 A 
HETATM    5  N   UNL     1      38.723 -12.878  -1.010  1.00  0.00    -0.277 N 
HETATM    6  H   UNL     1      37.946 -12.248  -0.844  1.00  0.00     0.189 HD
HETATM    7  N   UNL     1      39.367 -12.795  -2.185  1.00  0.00    -0.168 NA
HETATM    8  C   UNL     1      40.328 -13.744  -2.094  1.00  0.00     0.156 A 
HETATM    9  C   UNL     1      38.838 -14.191   1.136  1.00  0.00     0.034 A 
HETATM   10  C   UNL     1      39.578 -15.212   1.746  1.00  0.00     0.032 A 
ENDROOT
BRANCH   1  11
HETATM   11  N   UNL     1      41.322 -16.850   1.821  1.00  0.00    -0.327 N 
HETATM   12  C   UNL     1      42.185 -16.681   2.899  1.00  0.00     0.231 C 
HETATM   13  O   UNL     1      42.585 -15.602   3.322  1.00  0.00    -0.272 OA
HETATM   14  H   UNL     1      41.124 -17.807   1.555  1.00  0.00     0.169 HD
BRANCH  12  15
HETATM   15  C   UNL     1      42.625 -18.031   3.511  1.00  0.00     0.115 C 
BRANCH  15  16
HETATM   16  C   UNL     1      43.676 -18.832   2.682  1.00  0.00    -0.001 C 
HETATM   17  C   UNL     1      44.385 -18.001   1.602  1.00  0.00     0.011 C 
BRANCH  16  18
HETATM   18  C   UNL     1      43.118 -20.127   2.047  1.00  0.00     0.001 C 
HETATM   19  C   UNL     1      44.077 -21.309   2.105  1.00  0.00     0.005 C 
ENDBRANCH  16  18
ENDBRANCH  15  16
BRANCH  15  20
HETATM   20  C   UNL     1      43.050 -17.905   4.977  1.00  0.00    -0.045 A 
HETATM   21  C   UNL     1      44.386 -18.151   5.332  1.00  0.00     0.008 A 
HETATM   22  C   UNL     1      44.803 -18.039   6.661  1.00  0.00     0.001 A 
HETATM   23  C   UNL     1      43.891 -17.677   7.649  1.00  0.00     0.000 A 
HETATM   24  C   UNL     1      42.565 -17.421   7.311  1.00  0.00     0.001 A 
HETATM   25  C   UNL     1      42.146 -17.527   5.983  1.00  0.00     0.008 A 
ENDBRANCH  15  20
ENDBRANCH  12  15
ENDBRANCH   1  11
BRANCH   8  26
HETATM   26  C   UNL     1      41.279 -13.969  -3.191  1.00  0.00     0.270 C 
HETATM   27  N   UNL     1      42.083 -12.895  -3.463  1.00  0.00    -0.365 N 
HETATM   28  H   UNL     1      41.978 -12.057  -2.902  1.00  0.00     0.159 HD
HETATM   29  H   UNL     1      42.780 -12.964  -4.187  1.00  0.00     0.159 HD
HETATM   30  O   UNL     1      41.382 -15.013  -3.827  1.00  0.00    -0.266 OA
ENDBRANCH   8  26
TORSDOF 6
ENDMDL
MODEL 2
REMARK VINA RESULT:      -8.4      1.672      2.064
REMARK  6 active torsions:
REMARK  status: ('A' for Active; 'I' for Inactive)
REMARK    1  A    between atoms: C_2  and  C_3 
REMARK    2  A    between atoms: C_3  and  C_4 
REMARK    3  A    between atoms: C_4  and  C_5 
REMARK    4  A    between atoms: C_4  and  C_21 
REMARK       I    between atoms: C_5  and  N_6 
REMARK    5  A    between atoms: N_6  and  C_7 
REMARK    6  A    between atoms: C_14  and  C_15 
REMARK       I    between atoms: C_15  and  N_16 
ROOT
HETATM    1  C   UNL     1      42.153 -15.926   1.705  1.00  0.00     0.035 A 
HETATM    2  C   UNL     1      41.695 -15.875   0.381  1.00  0.00     0.046 A 
HETATM    3  C   UNL     1      41.513 -14.622  -0.245  1.00  0.00     0.030 A 
HETATM    4  C   UNL     1      41.778 -13.465   0.478  1.00  0.00     0.063 A 
HETATM    5  N   UNL     1      41.509 -12.434  -0.376  1.00  0.00    -0.277 N 
HETATM    6  H   UNL     1      41.589 -11.442  -0.183  1.00  0.00     0.189 HD
HETATM    7  N   UNL     1      41.107 -12.813  -1.600  1.00  0.00    -0.168 NA
HETATM    8  C   UNL     1      41.106 -14.165  -1.536  1.00  0.00     0.156 A 
HETATM    9  C   UNL     1      42.227 -13.479   1.800  1.00  0.00     0.034 A 
HETATM   10  C   UNL     1      42.415 -14.734   2.392  1.00  0.00     0.032 A 
ENDROOT
BRANCH   1  11
HETATM   11  N   UNL     1      42.403 -17.127   2.403  1.00  0.00    -0.327 N 
HETATM   12  C   UNL     1      43.552 -17.912   2.368  1.00  0.00     0.231 C 
HETATM   13  O   UNL     1      44.506 -17.734   1.620  1.00  0.00    -0.272 OA
HETATM   14  H   UNL     1      41.675 -17.431   3.039  1.00  0.00     0.169 HD
BRANCH  12  15
HETATM   15  C   UNL     1      43.490 -19.080   3.379  1.00  0.00     0.115 C 
BRANCH  15  16
HETATM   16  C   UNL     1      44.404 -20.300   3.049  1.00  0.00    -0.001 C 
HETATM   17  C   UNL     1      43.896 -21.166   1.886  1.00  0.00     0.011 C 
BRANCH  16  18
HETATM   18  C   UNL     1      44.704 -21.206   4.266  1.00  0.00     0.001 C 
HETATM   19  C   UNL     1      44.654 -22.697   3.958  1.00  0.00     0.005 C 
ENDBRANCH  16  18
ENDBRANCH  15  16
BRANCH  15  20
HETATM   20  C   UNL     1      43.678 -18.618   4.828  1.00  0.00    -0.045 A 
HETATM   21  C   UNL     1      44.975 -18.421   5.327  1.00  0.00     0.008 A 
HETATM   22  C   UNL     1      45.176 -17.997   6.642  1.00  0.00     0.001 A 
HETATM   23  C   UNL     1      44.083 -17.762   7.473  1.00  0.00     0.000 A 
HETATM   24  C   UNL     1      42.790 -17.943   6.989  1.00  0.00     0.001 A 
HETATM   25  C   UNL     1      42.586 -18.363   5.674  1.00  0.00     0.008 A 
ENDBRANCH  15  20
ENDBRANCH  12  15
ENDBRANCH   1  11
BRANCH   8  26
HETATM   26  C   UNL     1      40.733 -14.980  -2.699  1.00  0.00     0.270 C 
HETATM   27  N   UNL     1      39.414 -15.345  -2.726  1.00  0.00    -0.365 N 
HETATM   28  H   UNL     1      38.809 -15.029  -1.977  1.00  0.00     0.159 HD
HETATM   29  H   UNL     1      39.063 -15.889  -3.497  1.00  0.00     0.159 HD
HETATM   30  O   UNL     1      41.502 -15.319  -3.593  1.00  0.00    -0.266 OA
ENDBRANCH   8  26
TORSDOF 6
ENDMDL
MODEL 3
REMARK VINA RESULT:      -8.3      1.108      3.123
REMARK  6 active torsions:
REMARK  status: ('A' for Active; 'I' for Inactive)
REMARK    1  A    between atoms: C_2  and  C_3 
REMARK    2  A    between atoms: C_3  and  C_4 
REMARK    3  A    between atoms: C_4  and  C_5 
REMARK    4  A    between atoms: C_4  and  C_21 
REMARK       I    between atoms: C_5  and  N_6 
REMARK    5  A    between atoms: N_6  and  C_7 
REMARK    6  A    between atoms: C_14  and  C_15 
REMARK       I    between atoms: C_15  and  N_16 
ROOT
HETATM    1  C   UNL     1      41.003 -15.774   1.747  1.00  0.00     0.035 A 
HETATM    2  C   UNL     1      41.312 -15.580   0.394  1.00  0.00     0.046 A 
HETATM    3  C   UNL     1      40.480 -14.758  -0.400  1.00  0.00     0.030 A 
HETATM    4  C   UNL     1      39.361 -14.174   0.182  1.00  0.00     0.063 A 
HETATM    5  N   UNL     1      38.766 -13.457  -0.817  1.00  0.00    -0.277 N 
HETATM    6  H   UNL     1      37.920 -12.903  -0.752  1.00  0.00     0.189 HD
HETATM    7  N   UNL     1      39.405 -13.507  -1.996  1.00  0.00    -0.168 NA
HETATM    8  C   UNL     1      40.469 -14.306  -1.755  1.00  0.00     0.156 A 
HETATM    9  C   UNL     1      39.019 -14.353   1.523  1.00  0.00     0.034 A 
HETATM   10  C   UNL     1      39.868 -15.158   2.293  1.00  0.00     0.032 A 
ENDROOT
BRANCH   1  11
HETATM   11  N   UNL     1      41.791 -16.543   2.629  1.00  0.00    -0.327 N 
HETATM   12  C   UNL     1      43.047 -16.235   3.141  1.00  0.00     0.231 C 
HETATM   13  O   UNL     1      43.729 -15.273   2.808  1.00  0.00    -0.272 OA
HETATM   14  H   UNL     1      41.372 -17.404   2.964  1.00  0.00     0.169 HD
BRANCH  12  15
HETATM   15  C   UNL     1      43.522 -17.274   4.184  1.00  0.00     0.115 C 
BRANCH  15  16
HETATM   16  C   UNL     1      42.649 -17.378   5.472  1.00  0.00    -0.001 C 
HETATM   17  C   UNL     1      41.205 -17.837   5.213  1.00  0.00     0.011 C 
BRANCH  16  18
HETATM   18  C   UNL     1      42.629 -16.087   6.323  1.00  0.00     0.001 C 
HETATM   19  C   UNL     1      43.984 -15.707   6.907  1.00  0.00     0.005 C 
ENDBRANCH  16  18
ENDBRANCH  15  16
BRANCH  15  20
HETATM   20  C   UNL     1      43.777 -18.654   3.570  1.00  0.00    -0.045 A 
HETATM   21  C   UNL     1      44.472 -19.622   4.312  1.00  0.00     0.008 A 
HETATM   22  C   UNL     1      44.715 -20.890   3.778  1.00  0.00     0.001 A 
HETATM   23  C   UNL     1      44.264 -21.206   2.499  1.00  0.00     0.000 A 
HETATM   24  C   UNL     1      43.565 -20.259   1.755  1.00  0.00     0.001 A 
HETATM   25  C   UNL     1      43.317 -18.992   2.287  1.00  0.00     0.008 A 
ENDBRANCH  15  20
ENDBRANCH  12  15
ENDBRANCH   1  11
BRANCH   8  26
HETATM   26  C   UNL     1      41.448 -14.608  -2.808  1.00  0.00     0.270 C 
HETATM   27  N   UNL     1      42.473 -13.704  -2.894  1.00  0.00    -0.365 N 
HETATM   28  H   UNL     1      42.490 -12.928  -2.242  1.00  0.00     0.159 HD
HETATM   29  H   UNL     1      43.202 -13.840  -3.575  1.00  0.00     0.159 HD
HETATM   30  O   UNL     1      41.393 -15.575  -3.560  1.00  0.00    -0.266 OA
ENDBRANCH   8  26
TORSDOF 6
ENDMDL
MODEL 4
REMARK VINA RESULT:      -8.1      1.482      3.351
REMARK  6 active torsions:
REMARK  status: ('A' for Active; 'I' for Inactive)
REMARK    1  A    between atoms: C_2  and  C_3 
REMARK    2  A    between atoms: C_3  and  C_4 
REMARK    3  A    between atoms: C_4  and  C_5 
REMARK    4  A    between atoms: C_4  and  C_21 
REMARK       I    between atoms: C_5  and  N_6 
REMARK    5  A    between atoms: N_6  and  C_7 
REMARK    6  A    between atoms: C_14  and  C_15 
REMARK       I    between atoms: C_15  and  N_16 
ROOT
HETATM    1  C   UNL     1      41.874 -15.086   1.711  1.00  0.00     0.035 A 
HETATM    2  C   UNL     1      41.645 -15.395   0.363  1.00  0.00     0.046 A 
HETATM    3  C   UNL     1      40.927 -14.487  -0.448  1.00  0.00     0.030 A 
HETATM    4  C   UNL     1      40.450 -13.312   0.120  1.00  0.00     0.063 A 
HETATM    5  N   UNL     1      39.806 -12.656  -0.891  1.00  0.00    -0.277 N 
HETATM    6  H   UNL     1      39.331 -11.763  -0.836  1.00  0.00     0.189 HD
HETATM    7  N   UNL     1      39.834 -13.290  -2.074  1.00  0.00    -0.168 NA
HETATM    8  C   UNL     1      40.527 -14.424  -1.817  1.00  0.00     0.156 A 
HETATM    9  C   UNL     1      40.652 -12.977   1.460  1.00  0.00     0.034 A 
HETATM   10  C   UNL     1      41.380 -13.885   2.238  1.00  0.00     0.032 A 
ENDROOT
BRANCH   1  11
HETATM   11  N   UNL     1      42.611 -15.907   2.590  1.00  0.00    -0.327 N 
HETATM   12  C   UNL     1      42.200 -17.085   3.205  1.00  0.00     0.231 C 
HETATM   13  O   UNL     1      41.064 -17.543   3.165  1.00  0.00    -0.272 OA
HETATM   14  H   UNL     1      43.571 -15.628   2.758  1.00  0.00     0.169 HD
BRANCH  12  15
HETATM   15  C   UNL     1      43.347 -17.764   3.990  1.00  0.00     0.115 C 
BRANCH  15  16
HETATM   16  C   UNL     1      43.187 -17.767   5.541  1.00  0.00    -0.001 C 
HETATM   17  C   UNL     1      41.833 -17.230   6.031  1.00  0.00     0.011 C 
BRANCH  16  18
HETATM   18  C   UNL     1      44.327 -17.038   6.290  1.00  0.00     0.001 C 
HETATM   19  C   UNL     1      45.441 -17.957   6.772  1.00  0.00     0.005 C 
ENDBRANCH  16  18
ENDBRANCH  15  16
BRANCH  15  20
HETATM   20  C   UNL     1      43.676 -19.163   3.461  1.00  0.00    -0.045 A 
HETATM   21  C   UNL     1      43.253 -19.533   2.175  1.00  0.00     0.008 A 
HETATM   22  C   UNL     1      43.543 -20.801   1.666  1.00  0.00     0.001 A 
HETATM   23  C   UNL     1      44.262 -21.713   2.434  1.00  0.00     0.000 A 
HETATM   24  C   UNL     1      44.698 -21.357   3.708  1.00  0.00     0.001 A 
HETATM   25  C   UNL     1      44.413 -20.089   4.218  1.00  0.00     0.008 A 
ENDBRANCH  15  20
ENDBRANCH  12  15
ENDBRANCH   1  11
BRANCH   8  26
HETATM   26  C   UNL     1      40.798 -15.405  -2.877  1.00  0.00     0.270 C 
HETATM   27  N   UNL     1      39.895 -16.432  -2.932  1.00  0.00    -0.365 N 
HETATM   28  H   UNL     1      39.126 -16.437  -2.271  1.00  0.00     0.159 HD
HETATM   29  H   UNL     1      39.989 -17.142  -3.640  1.00  0.00     0.159 HD
HETATM   30  O   UNL     1      41.733 -15.342  -3.668  1.00  0.00    -0.266 OA
ENDBRANCH   8  26
TORSDOF 6
ENDMDL
MODEL 5
REMARK VINA RESULT:      -7.9      2.568      2.691
REMARK  6 active torsions:
REMARK  status: ('A' for Active; 'I' for Inactive)
REMARK    1  A    between atoms: C_2  and  C_3 
REMARK    2  A    between atoms: C_3  and  C_4 
REMARK    3  A    between atoms: C_4  and  C_5 
REMARK    4  A    between atoms: C_4  and  C_21 
REMARK       I    between atoms: C_5  and  N_6 
REMARK    5  A    between atoms: N_6  and  C_7 
REMARK    6  A    between atoms: C_14  and  C_15 
REMARK       I    between atoms: C_15  and  N_16 
ROOT
HETATM    1  C   UNL     1      42.031 -14.469   3.155  1.00  0.00     0.035 A 
HETATM    2  C   UNL     1      42.221 -13.854   1.910  1.00  0.00     0.046 A 
HETATM    3  C   UNL     1      41.840 -12.505   1.734  1.00  0.00     0.030 A 
HETATM    4  C   UNL     1      41.268 -11.824   2.801  1.00  0.00     0.063 A 
HETATM    5  N   UNL     1      41.008 -10.567   2.332  1.00  0.00    -0.277 N 
HETATM    6  H   UNL     1      40.585  -9.799   2.840  1.00  0.00     0.189 HD
HETATM    7  N   UNL     1      41.373 -10.361   1.057  1.00  0.00    -0.168 NA
HETATM    8  C   UNL     1      41.892 -11.550   0.672  1.00  0.00     0.156 A 
HETATM    9  C   UNL     1      41.057 -12.406   4.052  1.00  0.00     0.034 A 
HETATM   10  C   UNL     1      41.458 -13.740   4.206  1.00  0.00     0.032 A 
ENDROOT
BRANCH   1  11
HETATM   11  N   UNL     1      42.413 -15.796   3.441  1.00  0.00    -0.327 N 
HETATM   12  C   UNL     1      41.765 -16.970   3.071  1.00  0.00     0.231 C 
HETATM   13  O   UNL     1      40.672 -17.030   2.520  1.00  0.00    -0.272 OA
HETATM   14  H   UNL     1      43.289 -15.909   3.938  1.00  0.00     0.169 HD
BRANCH  12  15
HETATM   15  C   UNL     1      42.573 -18.230   3.460  1.00  0.00     0.115 C 
BRANCH  15  16
HETATM   16  C   UNL     1      43.659 -18.673   2.432  1.00  0.00    -0.001 C 
HETATM   17  C   UNL     1      43.819 -17.717   1.239  1.00  0.00     0.011 C 
BRANCH  16  18
HETATM   18  C   UNL     1      43.476 -20.117   1.908  1.00  0.00     0.001 C 
HETATM   19  C   UNL     1      44.378 -21.141   2.582  1.00  0.00     0.005 C 
ENDBRANCH  16  18
ENDBRANCH  15  16
BRANCH  15  20
HETATM   20  C   UNL     1      43.147 -18.149   4.878  1.00  0.00    -0.045 A 
HETATM   21  C   UNL     1      44.518 -18.376   5.082  1.00  0.00     0.008 A 
HETATM   22  C   UNL     1      45.069 -18.305   6.363  1.00  0.00     0.001 A 
HETATM   23  C   UNL     1      44.259 -18.003   7.455  1.00  0.00     0.000 A 
HETATM   24  C   UNL     1      42.899 -17.765   7.267  1.00  0.00     0.001 A 
HETATM   25  C   UNL     1      42.346 -17.832   5.987  1.00  0.00     0.008 A 
ENDBRANCH  15  20
ENDBRANCH  12  15
ENDBRANCH   1  11
BRANCH   8  26
HETATM   26  C   UNL     1      42.432 -11.742  -0.681  1.00  0.00     0.270 C 
HETATM   27  N   UNL     1      41.609 -12.449  -1.515  1.00  0.00    -0.365 N 
HETATM   28  H   UNL     1      40.716 -12.768  -1.158  1.00  0.00     0.159 HD
HETATM   29  H   UNL     1      41.888 -12.613  -2.469  1.00  0.00     0.159 HD
HETATM   30  O   UNL     1      43.514 -11.315  -1.071  1.00  0.00    -0.266 OA
ENDBRANCH   8  26
TORSDOF 6
ENDMDL
MODEL 6
REMARK VINA RESULT:      -7.9      3.472      4.896
REMARK  6 active torsions:
REMARK  status: ('A' for Active; 'I' for Inactive)
REMARK    1  A    between atoms: C_2  and  C_3 
REMARK    2  A    between atoms: C_3  and  C_4 
REMARK    3  A    between atoms: C_4  and  C_5 
REMARK    4  A    between atoms: C_4  and  C_21 
REMARK       I    between atoms: C_5  and  N_6 
REMARK    5  A    between atoms: N_6  and  C_7 
REMARK    6  A    between atoms: C_14  and  C_15 
REMARK       I    between atoms: C_15  and  N_16 
ROOT
HETATM    1  C   UNL     1      42.173 -14.543   3.490  1.00  0.00     0.035 A 
HETATM    2  C   UNL     1      41.632 -13.738   4.502  1.00  0.00     0.046 A 
HETATM    3  C   UNL     1      41.274 -12.402   4.213  1.00  0.00     0.030 A 
HETATM    4  C   UNL     1      41.485 -11.913   2.930  1.00  0.00     0.063 A 
HETATM    5  N   UNL     1      41.054 -10.617   2.960  1.00  0.00    -0.277 N 
HETATM    6  H   UNL     1      41.061  -9.951   2.196  1.00  0.00     0.189 HD
HETATM    7  N   UNL     1      40.565 -10.220   4.146  1.00  0.00    -0.168 NA
HETATM    8  C   UNL     1      40.692 -11.313   4.932  1.00  0.00     0.156 A 
HETATM    9  C   UNL     1      42.029 -12.683   1.900  1.00  0.00     0.034 A 
HETATM   10  C   UNL     1      42.360 -14.009   2.208  1.00  0.00     0.032 A 
ENDROOT
BRANCH   1  11
HETATM   11  N   UNL     1      42.525 -15.898   3.669  1.00  0.00    -0.327 N 
HETATM   12  C   UNL     1      41.842 -17.024   3.220  1.00  0.00     0.231 C 
HETATM   13  O   UNL     1      40.740 -17.014   2.682  1.00  0.00    -0.272 OA
HETATM   14  H   UNL     1      43.403 -16.070   4.144  1.00  0.00     0.169 HD
BRANCH  12  15
HETATM   15  C   UNL     1      42.622 -18.329   3.501  1.00  0.00     0.115 C 
BRANCH  15  16
HETATM   16  C   UNL     1      43.610 -18.774   2.380  1.00  0.00    -0.001 C 
HETATM   17  C   UNL     1      43.635 -17.838   1.161  1.00  0.00     0.011 C 
BRANCH  16  18
HETATM   18  C   UNL     1      43.402 -20.230   1.902  1.00  0.00     0.001 C 
HETATM   19  C   UNL     1      44.353 -21.234   2.539  1.00  0.00     0.005 C 
ENDBRANCH  16  18
ENDBRANCH  15  16
BRANCH  15  20
HETATM   20  C   UNL     1      43.301 -18.328   4.874  1.00  0.00    -0.045 A 
HETATM   21  C   UNL     1      42.515 -18.221   6.033  1.00  0.00     0.008 A 
HETATM   22  C   UNL     1      43.107 -18.220   7.298  1.00  0.00     0.001 A 
HETATM   23  C   UNL     1      44.490 -18.330   7.421  1.00  0.00     0.000 A 
HETATM   24  C   UNL     1      45.282 -18.447   6.281  1.00  0.00     0.001 A 
HETATM   25  C   UNL     1      44.692 -18.452   5.015  1.00  0.00     0.008 A 
ENDBRANCH  15  20
ENDBRANCH  12  15
ENDBRANCH   1  11
BRANCH   8  26
HETATM   26  C   UNL     1      40.248 -11.298   6.332  1.00  0.00     0.270 C 
HETATM   27  N   UNL     1      41.256 -11.483   7.240  1.00  0.00    -0.365 N 
HETATM   28  H   UNL     1      42.202 -11.601   6.896  1.00  0.00     0.159 HD
HETATM   29  H   UNL     1      41.048 -11.468   8.225  1.00  0.00     0.159 HD
HETATM   30  O   UNL     1      39.089 -11.130   6.698  1.00  0.00    -0.266 OA
ENDBRANCH   8  26
TORSDOF 6
ENDMDL
MODEL 7
REMARK VINA RESULT:      -7.8      2.482      4.429
REMARK  6 active torsions:
REMARK  status: ('A' for Active; 'I' for Inactive)
REMARK    1  A    between atoms: C_2  and  C_3 
REMARK    2  A    between atoms: C_3  and  C_4 
REMARK    3  A    between atoms: C_4  and  C_5 
REMARK    4  A    between atoms: C_4  and  C_21 
REMARK       I    between atoms: C_5  and  N_6 
REMARK    5  A    between atoms: N_6  and  C_7 
REMARK    6  A    between atoms: C_14  and  C_15 
REMARK       I    between atoms: C_15  and  N_16 
ROOT
HETATM    1  C   UNL     1      42.589 -16.278   2.082  1.00  0.00     0.035 A 
HETATM    2  C   UNL     1      42.052 -15.019   2.386  1.00  0.00     0.046 A 
HETATM    3  C   UNL     1      41.150 -14.411   1.485  1.00  0.00     0.030 A 
HETATM    4  C   UNL     1      40.829 -15.073   0.307  1.00  0.00     0.063 A 
HETATM    5  N   UNL     1      39.956 -14.249  -0.345  1.00  0.00    -0.277 N 
HETATM    6  H   UNL     1      39.516 -14.411  -1.244  1.00  0.00     0.189 HD
HETATM    7  N   UNL     1      39.665 -13.114   0.309  1.00  0.00    -0.168 NA
HETATM    8  C   UNL     1      40.394 -13.199   1.446  1.00  0.00     0.156 A 
HETATM    9  C   UNL     1      41.350 -16.323  -0.031  1.00  0.00     0.034 A 
HETATM   10  C   UNL     1      42.230 -16.912   0.886  1.00  0.00     0.032 A 
ENDROOT
BRANCH   1  11
HETATM   11  N   UNL     1      43.466 -16.983   2.934  1.00  0.00    -0.327 N 
HETATM   12  C   UNL     1      43.136 -17.843   3.977  1.00  0.00     0.231 C 
HETATM   13  O   UNL     1      42.002 -18.037   4.400  1.00  0.00    -0.272 OA
HETATM   14  H   UNL     1      44.454 -16.886   2.733  1.00  0.00     0.169 HD
BRANCH  12  15
HETATM   15  C   UNL     1      44.383 -18.527   4.585  1.00  0.00     0.115 C 
BRANCH  15  16
HETATM   16  C   UNL     1      44.566 -18.341   6.122  1.00  0.00    -0.001 C 
HETATM   17  C   UNL     1      43.571 -19.147   6.973  1.00  0.00     0.011 C 
BRANCH  16  18
HETATM   18  C   UNL     1      44.552 -16.865   6.582  1.00  0.00     0.001 C 
HETATM   19  C   UNL     1      43.596 -16.581   7.733  1.00  0.00     0.005 C 
ENDBRANCH  16  18
ENDBRANCH  15  16
BRANCH  15  20
HETATM   20  C   UNL     1      44.502 -20.000   4.183  1.00  0.00    -0.045 A 
HETATM   21  C   UNL     1      44.297 -20.370   2.844  1.00  0.00     0.008 A 
HETATM   22  C   UNL     1      44.404 -21.705   2.449  1.00  0.00     0.001 A 
HETATM   23  C   UNL     1      44.720 -22.686   3.386  1.00  0.00     0.000 A 
HETATM   24  C   UNL     1      44.936 -22.334   4.715  1.00  0.00     0.001 A 
HETATM   25  C   UNL     1      44.834 -20.999   5.113  1.00  0.00     0.008 A 
ENDBRANCH  15  20
ENDBRANCH  12  15
ENDBRANCH   1  11
BRANCH   8  26
HETATM   26  C   UNL     1      40.343 -12.140   2.462  1.00  0.00     0.270 C 
HETATM   27  N   UNL     1      41.520 -11.458   2.617  1.00  0.00    -0.365 N 
HETATM   28  H   UNL     1      42.309 -11.714   2.035  1.00  0.00     0.159 HD
HETATM   29  H   UNL     1      41.574 -10.700   3.279  1.00  0.00     0.159 HD
HETATM   30  O   UNL     1      39.354 -11.854   3.128  1.00  0.00    -0.266 OA
ENDBRANCH   8  26
TORSDOF 6
ENDMDL
MODEL 8
REMARK VINA RESULT:      -7.7      2.683      8.459
REMARK  6 active torsions:
REMARK  status: ('A' for Active; 'I' for Inactive)
REMARK    1  A    between atoms: C_2  and  C_3 
REMARK    2  A    between atoms: C_3  and  C_4 
REMARK    3  A    between atoms: C_4  and  C_5 
REMARK    4  A    between atoms: C_4  and  C_21 
REMARK       I    between atoms: C_5  and  N_6 
REMARK    5  A    between atoms: N_6  and  C_7 
REMARK    6  A    between atoms: C_14  and  C_15 
REMARK       I    between atoms: C_15  and  N_16 
ROOT
HETATM    1  C   UNL     1      42.833 -16.937   2.225  1.00  0.00     0.035 A 
HETATM    2  C   UNL     1      43.014 -16.857   3.612  1.00  0.00     0.046 A 
HETATM    3  C   UNL     1      43.648 -17.920   4.295  1.00  0.00     0.030 A 
HETATM    4  C   UNL     1      44.062 -19.030   3.570  1.00  0.00     0.063 A 
HETATM    5  N   UNL     1      44.623 -19.873   4.488  1.00  0.00    -0.277 N 
HETATM    6  H   UNL     1      45.030 -20.785   4.314  1.00  0.00     0.189 HD
HETATM    7  N   UNL     1      44.627 -19.405   5.746  1.00  0.00    -0.168 NA
HETATM    8  C   UNL     1      44.029 -18.195   5.644  1.00  0.00     0.156 A 
HETATM    9  C   UNL     1      43.890 -19.148   2.190  1.00  0.00     0.034 A 
HETATM   10  C   UNL     1      43.274 -18.074   1.535  1.00  0.00     0.032 A 
ENDROOT
BRANCH   1  11
HETATM   11  N   UNL     1      42.248 -15.914   1.450  1.00  0.00    -0.327 N 
HETATM   12  C   UNL     1      40.901 -15.578   1.355  1.00  0.00     0.231 C 
HETATM   13  O   UNL     1      39.979 -16.210   1.857  1.00  0.00    -0.272 OA
HETATM   14  H   UNL     1      42.891 -15.324   0.934  1.00  0.00     0.169 HD
BRANCH  12  15
HETATM   15  C   UNL     1      40.675 -14.307   0.504  1.00  0.00     0.115 C 
BRANCH  15  16
HETATM   16  C   UNL     1      41.823 -13.253   0.557  1.00  0.00    -0.001 C 
HETATM   17  C   UNL     1      42.048 -12.642   1.949  1.00  0.00     0.011 C 
BRANCH  16  18
HETATM   18  C   UNL     1      41.680 -12.117  -0.483  1.00  0.00     0.001 C 
HETATM   19  C   UNL     1      42.810 -12.061  -1.502  1.00  0.00     0.005 C 
ENDBRANCH  16  18
ENDBRANCH  15  16
BRANCH  15  20
HETATM   20  C   UNL     1      40.277 -14.626  -0.941  1.00  0.00    -0.045 A 
HETATM   21  C   UNL     1      39.102 -14.071  -1.472  1.00  0.00     0.008 A 
HETATM   22  C   UNL     1      38.717 -14.341  -2.787  1.00  0.00     0.001 A 
HETATM   23  C   UNL     1      39.502 -15.167  -3.587  1.00  0.00     0.000 A 
HETATM   24  C   UNL     1      40.676 -15.717  -3.078  1.00  0.00     0.001 A 
HETATM   25  C   UNL     1      41.065 -15.445  -1.765  1.00  0.00     0.008 A 
ENDBRANCH  15  20
ENDBRANCH  12  15
ENDBRANCH   1  11
BRANCH   8  26
HETATM   26  C   UNL     1      43.848 -17.335   6.821  1.00  0.00     0.270 C 
HETATM   27  N   UNL     1      43.159 -17.927   7.844  1.00  0.00    -0.365 N 
HETATM   28  H   UNL     1      42.844 -18.883   7.728  1.00  0.00     0.159 HD
HETATM   29  H   UNL     1      43.004 -17.419   8.700  1.00  0.00     0.159 HD
HETATM   30  O   UNL     1      44.268 -16.187   6.921  1.00  0.00    -0.266 OA
ENDBRANCH   8  26
TORSDOF 6
ENDMDL
MODEL 9
REMARK VINA RESULT:      -7.5      4.108      5.901
REMARK  6 active torsions:
REMARK  status: ('A' for Active; 'I' for Inactive)
REMARK    1  A    between atoms: C_2  and  C_3 
REMARK    2  A    between atoms: C_3  and  C_4 
REMARK    3  A    between atoms: C_4  and  C_5 
REMARK    4  A    between atoms: C_4  and  C_21 
REMARK       I    between atoms: C_5  and  N_6 
REMARK    5  A    between atoms: N_6  and  C_7 
REMARK    6  A    between atoms: C_14  and  C_15 
REMARK       I    between atoms: C_15  and  N_16 
ROOT
HETATM    1  C   UNL     1      40.130 -13.969   4.306  1.00  0.00     0.035 A 
HETATM    2  C   UNL     1      40.179 -13.326   5.551  1.00  0.00     0.046 A 
HETATM    3  C   UNL     1      39.641 -12.026   5.685  1.00  0.00     0.030 A 
HETATM    4  C   UNL     1      39.088 -11.410   4.570  1.00  0.00     0.063 A 
HETATM    5  N   UNL     1      38.664 -10.186   5.005  1.00  0.00    -0.277 N 
HETATM    6  H   UNL     1      38.213  -9.463   4.456  1.00  0.00     0.189 HD
HETATM    7  N   UNL     1      38.876  -9.954   6.310  1.00  0.00    -0.168 NA
HETATM    8  C   UNL     1      39.478 -11.084   6.746  1.00  0.00     0.156 A 
HETATM    9  C   UNL     1      39.029 -12.017   3.314  1.00  0.00     0.034 A 
HETATM   10  C   UNL     1      39.555 -13.311   3.211  1.00  0.00     0.032 A 
ENDROOT
BRANCH   1  11
HETATM   11  N   UNL     1      40.605 -15.278   4.080  1.00  0.00    -0.327 N 
HETATM   12  C   UNL     1      41.833 -15.662   3.552  1.00  0.00     0.231 C 
HETATM   13  O   UNL     1      42.670 -14.898   3.084  1.00  0.00    -0.272 OA
HETATM   14  H   UNL     1      39.994 -16.030   4.380  1.00  0.00     0.169 HD
BRANCH  12  15
HETATM   15  C   UNL     1      42.031 -17.195   3.589  1.00  0.00     0.115 C 
BRANCH  15  16
HETATM   16  C   UNL     1      42.258 -17.876   2.205  1.00  0.00    -0.001 C 
HETATM   17  C   UNL     1      43.624 -17.565   1.572  1.00  0.00     0.011 C 
BRANCH  16  18
HETATM   18  C   UNL     1      41.141 -17.590   1.174  1.00  0.00     0.001 C 
HETATM   19  C   UNL     1      41.528 -16.577   0.104  1.00  0.00     0.005 C 
ENDBRANCH  16  18
ENDBRANCH  15  16
BRANCH  15  20
HETATM   20  C   UNL     1      43.092 -17.629   4.605  1.00  0.00    -0.045 A 
HETATM   21  C   UNL     1      43.613 -18.932   4.546  1.00  0.00     0.008 A 
HETATM   22  C   UNL     1      44.584 -19.353   5.457  1.00  0.00     0.001 A 
HETATM   23  C   UNL     1      45.049 -18.477   6.435  1.00  0.00     0.000 A 
HETATM   24  C   UNL     1      44.550 -17.179   6.500  1.00  0.00     0.001 A 
HETATM   25  C   UNL     1      43.581 -16.754   5.588  1.00  0.00     0.008 A 
ENDBRANCH  15  20
ENDBRANCH  12  15
ENDBRANCH   1  11
BRANCH   8  26
HETATM   26  C   UNL     1      39.869 -11.242   8.154  1.00  0.00     0.270 C 
HETATM   27  N   UNL     1      39.068 -12.096   8.864  1.00  0.00    -0.365 N 
HETATM   28  H   UNL     1      38.300 -12.550   8.384  1.00  0.00     0.159 HD
HETATM   29  H   UNL     1      39.272 -12.281   9.832  1.00  0.00     0.159 HD
HETATM   30  O   UNL     1      40.824 -10.683   8.683  1.00  0.00    -0.266 OA
ENDBRANCH   8  26
TORSDOF 6
ENDMDL
MODEL 10
REMARK VINA RESULT:      -7.5      3.080      8.445
REMARK  6 active torsions:
REMARK  status: ('A' for Active; 'I' for Inactive)
REMARK    1  A    between atoms: C_2  and  C_3 
REMARK    2  A    between atoms: C_3  and  C_4 
REMARK    3  A    between atoms: C_4  and  C_5 
REMARK    4  A    between atoms: C_4  and  C_21 
REMARK       I    between atoms: C_5  and  N_6 
REMARK    5  A    between atoms: N_6  and  C_7 
REMARK    6  A    between atoms: C_14  and  C_15 
REMARK       I    between atoms: C_15  and  N_16 
ROOT
HETATM    1  C   UNL     1      42.005 -17.636   3.172  1.00  0.00     0.035 A 
HETATM    2  C   UNL     1      42.430 -18.257   4.354  1.00  0.00     0.046 A 
HETATM    3  C   UNL     1      43.473 -19.209   4.305  1.00  0.00     0.030 A 
HETATM    4  C   UNL     1      44.043 -19.518   3.076  1.00  0.00     0.063 A 
HETATM    5  N   UNL     1      45.001 -20.454   3.345  1.00  0.00    -0.277 N 
HETATM    6  H   UNL     1      45.615 -20.910   2.680  1.00  0.00     0.189 HD
HETATM    7  N   UNL     1      45.120 -20.773   4.644  1.00  0.00    -0.168 NA
HETATM    8  C   UNL     1      44.183 -20.010   5.252  1.00  0.00     0.156 A 
HETATM    9  C   UNL     1      43.639 -18.925   1.878  1.00  0.00     0.034 A 
HETATM   10  C   UNL     1      42.614 -17.973   1.956  1.00  0.00     0.032 A 
ENDROOT
BRANCH   1  11
HETATM   11  N   UNL     1      41.000 -16.647   3.123  1.00  0.00    -0.327 N 
HETATM   12  C   UNL     1      41.161 -15.271   2.997  1.00  0.00     0.231 C 
HETATM   13  O   UNL     1      42.235 -14.680   3.022  1.00  0.00    -0.272 OA
HETATM   14  H   UNL     1      40.044 -16.984   3.138  1.00  0.00     0.169 HD
BRANCH  12  15
HETATM   15  C   UNL     1      39.809 -14.537   2.845  1.00  0.00     0.115 C 
BRANCH  15  16
HETATM   16  C   UNL     1      39.660 -13.226   3.678  1.00  0.00    -0.001 C 
HETATM   17  C   UNL     1      40.394 -12.017   3.077  1.00  0.00     0.011 C 
BRANCH  16  18
HETATM   18  C   UNL     1      40.059 -13.379   5.164  1.00  0.00     0.001 C 
HETATM   19  C   UNL     1      39.153 -12.628   6.131  1.00  0.00     0.005 C 
ENDBRANCH  16  18
ENDBRANCH  15  16
BRANCH  15  20
HETATM   20  C   UNL     1      39.419 -14.314   1.381  1.00  0.00    -0.045 A 
HETATM   21  C   UNL     1      38.090 -13.992   1.061  1.00  0.00     0.008 A 
HETATM   22  C   UNL     1      37.707 -13.780  -0.265  1.00  0.00     0.001 A 
HETATM   23  C   UNL     1      38.648 -13.883  -1.287  1.00  0.00     0.000 A 
HETATM   24  C   UNL     1      39.971 -14.192  -0.985  1.00  0.00     0.001 A 
HETATM   25  C   UNL     1      40.358 -14.401   0.340  1.00  0.00     0.008 A 
ENDBRANCH  15  20
ENDBRANCH  12  15
ENDBRANCH   1  11
BRANCH   8  26
HETATM   26  C   UNL     1      43.997 -20.052   6.708  1.00  0.00     0.270 C 
HETATM   27  N   UNL     1      44.311 -18.883   7.346  1.00  0.00    -0.365 N 
HETATM   28  H   UNL     1      44.627 -18.097   6.789  1.00  0.00     0.159 HD
HETATM   29  H   UNL     1      44.196 -18.812   8.344  1.00  0.00     0.159 HD
HETATM   30  O   UNL     1      43.590 -21.025   7.335  1.00  0.00    -0.266 OA
ENDBRANCH   8  26
TORSDOF 6
ENDMDL
