MODEL 1
REMARK VINA RESULT:      -8.6      0.000      0.000
REMARK  8 active torsions:
REMARK  status: ('A' for Active; 'I' for Inactive)
REMARK    1  A    between atoms: C_3  and  C_4 
REMARK    2  A    between atoms: C_4  and  C_5 
REMARK       I    between atoms: C_5  and  N_6 
REMARK    3  A    between atoms: N_6  and  C_7 
REMARK    4  A    between atoms: C_14  and  N_15 
REMARK       I    between atoms: N_15  and  C_16 
REMARK    5  A    between atoms: C_16  and  C_17 
REMARK    6  A    between atoms: C_26  and  C_27 
REMARK    7  A    between atoms: C_27  and  O_28 
REMARK    8  A    between atoms: C_30  and  O_31 
ROOT
HETATM    1  C   UNL     1      42.938 -20.275   1.890  1.00  0.00     0.216 C 
HETATM    2  C   UNL     1      43.912 -21.360   2.049  1.00  0.00    -0.098 C 
HETATM    3  C   UNL     1      44.706 -22.253   2.166  1.00  0.00     0.014 C 
ENDROOT
BRANCH   1   4
HETATM    4  N   UNL     1      43.134 -19.263   2.895  1.00  0.00    -0.351 N 
HETATM    5  C   UNL     1      43.861 -18.128   2.661  1.00  0.00     0.219 C 
HETATM    6  O   UNL     1      44.382 -17.858   1.582  1.00  0.00    -0.274 OA
HETATM    7  H   UNL     1      42.936 -19.531   3.861  1.00  0.00     0.163 HD
BRANCH   5   8
HETATM    8  C   UNL     1      43.958 -17.173   3.840  1.00  0.00     0.114 C 
BRANCH   8   9
HETATM    9  C   UNL     1      42.612 -17.024   4.581  1.00  0.00     0.056 C 
HETATM   10  C   UNL     1      42.630 -16.430   6.081  1.00  0.00    -0.030 C 
HETATM   11  C   UNL     1      41.692 -17.387   6.899  1.00  0.00     0.016 C 
HETATM   12  C   UNL     1      42.037 -14.957   6.249  1.00  0.00     0.012 C 
HETATM   13  C   UNL     1      44.004 -16.520   6.802  1.00  0.00     0.013 C 
HETATM   14  C   UNL     1      40.658 -14.805   5.555  1.00  0.00     0.055 C 
HETATM   15  C   UNL     1      43.049 -13.766   5.976  1.00  0.00     0.008 C 
HETATM   16  C   UNL     1      40.716 -15.344   4.177  1.00  0.00     0.012 A 
HETATM   17  C   UNL     1      41.591 -16.307   3.721  1.00  0.00     0.056 A 
HETATM   18  S   UNL     1      39.691 -14.817   2.923  1.00  0.00    -0.055 SA
HETATM   19  N   UNL     1      41.505 -16.554   2.361  1.00  0.00    -0.227 NA
HETATM   20  C   UNL     1      40.550 -15.823   1.844  1.00  0.00     0.174 A 
HETATM   21  C   UNL     1      42.423 -12.427   6.464  1.00  0.00     0.020 C 
HETATM   22  C   UNL     1      44.347 -14.007   6.800  1.00  0.00     0.128 C 
HETATM   23  C   UNL     1      44.970 -15.370   6.515  1.00  0.00     0.033 C 
BRANCH  20  24
HETATM   24  N   UNL     1      40.147 -15.709   0.549  1.00  0.00    -0.301 N 
HETATM   25  C   UNL     1      40.789 -14.907  -0.366  1.00  0.00     0.264 C 
HETATM   26  O   UNL     1      41.801 -14.252  -0.127  1.00  0.00    -0.267 OA
HETATM   27  H   UNL     1      39.298 -16.185   0.283  1.00  0.00     0.171 HD
BRANCH  25  28
HETATM   28  C   UNL     1      40.143 -14.860  -1.679  1.00  0.00     0.072 A 
HETATM   29  S   UNL     1      38.753 -13.899  -1.990  1.00  0.00    -0.097 SA
HETATM   30  C   UNL     1      38.699 -14.376  -3.629  1.00  0.00     0.050 A 
HETATM   31  C   UNL     1      39.711 -15.255  -3.945  1.00  0.00     0.009 A 
HETATM   32  C   UNL     1      40.540 -15.536  -2.820  1.00  0.00     0.025 A 
ENDBRANCH  25  28
ENDBRANCH  20  24
BRANCH  15  33
HETATM   33  C   UNL     1      43.402 -13.575   4.482  1.00  0.00     0.176 C 
BRANCH  33  34
HETATM   34  O   UNL     1      42.702 -12.462   3.933  1.00  0.00    -0.400 OA
HETATM   35  H   UNL     1      42.682 -11.772   4.620  1.00  0.00     0.209 HD
ENDBRANCH  33  34
ENDBRANCH  15  33
BRANCH  22  36
HETATM   36  O   UNL     1      44.070 -13.950   8.204  1.00  0.00    -0.395 OA
HETATM   37  H   UNL     1      43.117 -14.111   8.314  1.00  0.00     0.210 HD
ENDBRANCH  22  36
ENDBRANCH   8   9
ENDBRANCH   5   8
ENDBRANCH   1   4
TORSDOF 8
ENDMDL
MODEL 2
REMARK VINA RESULT:      -8.1      1.688      1.781
REMARK  8 active torsions:
REMARK  status: ('A' for Active; 'I' for Inactive)
REMARK    1  A    between atoms: C_3  and  C_4 
REMARK    2  A    between atoms: C_4  and  C_5 
REMARK       I    between atoms: C_5  and  N_6 
REMARK    3  A    between atoms: N_6  and  C_7 
REMARK    4  A    between atoms: C_14  and  N_15 
REMARK       I    between atoms: N_15  and  C_16 
REMARK    5  A    between atoms: C_16  and  C_17 
REMARK    6  A    between atoms: C_26  and  C_27 
REMARK    7  A    between atoms: C_27  and  O_28 
REMARK    8  A    between atoms: C_30  and  O_31 
ROOT
HETATM    1  C   UNL     1      44.596 -21.068   2.878  1.00  0.00     0.216 C 
HETATM    2  C   UNL     1      44.788 -21.832   4.115  1.00  0.00    -0.098 C 
HETATM    3  C   UNL     1      44.950 -22.468   5.120  1.00  0.00     0.014 C 
ENDROOT
BRANCH   1   4
HETATM    4  N   UNL     1      44.421 -19.669   3.164  1.00  0.00    -0.351 N 
HETATM    5  C   UNL     1      43.425 -18.922   2.597  1.00  0.00     0.219 C 
HETATM    6  O   UNL     1      42.585 -19.375   1.824  1.00  0.00    -0.274 OA
HETATM    7  H   UNL     1      45.210 -19.188   3.600  1.00  0.00     0.163 HD
BRANCH   5   8
HETATM    8  C   UNL     1      43.395 -17.462   3.021  1.00  0.00     0.114 C 
BRANCH   8   9
HETATM    9  C   UNL     1      42.047 -17.068   3.660  1.00  0.00     0.056 C 
HETATM   10  C   UNL     1      41.992 -16.870   5.260  1.00  0.00    -0.030 C 
HETATM   11  C   UNL     1      40.700 -17.639   5.712  1.00  0.00     0.016 C 
HETATM   12  C   UNL     1      41.825 -15.363   5.765  1.00  0.00     0.012 C 
HETATM   13  C   UNL     1      43.147 -17.552   6.043  1.00  0.00     0.013 C 
HETATM   14  C   UNL     1      40.678 -14.628   5.025  1.00  0.00     0.055 C 
HETATM   15  C   UNL     1      43.165 -14.526   5.905  1.00  0.00     0.008 C 
HETATM   16  C   UNL     1      40.801 -14.828   3.562  1.00  0.00     0.012 A 
HETATM   17  C   UNL     1      41.426 -15.887   2.941  1.00  0.00     0.056 A 
HETATM   18  S   UNL     1      40.186 -13.731   2.414  1.00  0.00    -0.055 SA
HETATM   19  N   UNL     1      41.493 -15.777   1.563  1.00  0.00    -0.227 NA
HETATM   20  C   UNL     1      40.883 -14.684   1.181  1.00  0.00     0.174 A 
HETATM   21  C   UNL     1      42.877 -13.206   6.679  1.00  0.00     0.020 C 
HETATM   22  C   UNL     1      44.189 -15.348   6.740  1.00  0.00     0.128 C 
HETATM   23  C   UNL     1      44.435 -16.735   6.155  1.00  0.00     0.033 C 
BRANCH  20  24
HETATM   24  N   UNL     1      40.744 -14.155  -0.065  1.00  0.00    -0.301 N 
HETATM   25  C   UNL     1      41.540 -13.138  -0.540  1.00  0.00     0.264 C 
HETATM   26  O   UNL     1      42.471 -12.635   0.086  1.00  0.00    -0.267 OA
HETATM   27  H   UNL     1      39.975 -14.487  -0.627  1.00  0.00     0.171 HD
BRANCH  25  28
HETATM   28  C   UNL     1      41.168 -12.657  -1.871  1.00  0.00     0.072 A 
HETATM   29  S   UNL     1      39.539 -12.340  -2.316  1.00  0.00    -0.097 SA
HETATM   30  C   UNL     1      39.987 -11.832  -3.883  1.00  0.00     0.050 A 
HETATM   31  C   UNL     1      41.348 -11.904  -4.079  1.00  0.00     0.009 A 
HETATM   32  C   UNL     1      42.027 -12.383  -2.921  1.00  0.00     0.025 A 
ENDBRANCH  25  28
ENDBRANCH  20  24
BRANCH  15  33
HETATM   33  C   UNL     1      43.794 -14.122   4.551  1.00  0.00     0.176 C 
BRANCH  33  34
HETATM   34  O   UNL     1      43.344 -12.831   4.147  1.00  0.00    -0.400 OA
HETATM   35  H   UNL     1      43.104 -12.895   3.206  1.00  0.00     0.209 HD
ENDBRANCH  33  34
ENDBRANCH  15  33
BRANCH  22  36
HETATM   36  O   UNL     1      43.718 -15.528   8.081  1.00  0.00    -0.395 OA
HETATM   37  H   UNL     1      43.665 -16.487   8.238  1.00  0.00     0.210 HD
ENDBRANCH  22  36
ENDBRANCH   8   9
ENDBRANCH   5   8
ENDBRANCH   1   4
TORSDOF 8
ENDMDL
MODEL 3
REMARK VINA RESULT:      -8.0      2.605      6.750
REMARK  8 active torsions:
REMARK  status: ('A' for Active; 'I' for Inactive)
REMARK    1  A    between atoms: C_3  and  C_4 
REMARK    2  A    between atoms: C_4  and  C_5 
REMARK       I    between atoms: C_5  and  N_6 
REMARK    3  A    between atoms: N_6  and  C_7 
REMARK    4  A    between atoms: C_14  and  N_15 
REMARK       I    between atoms: N_15  and  C_16 
REMARK    5  A    between atoms: C_16  and  C_17 
REMARK    6  A    between atoms: C_26  and  C_27 
REMARK    7  A    between atoms: C_27  and  O_28 
REMARK    8  A    between atoms: C_30  and  O_31 
ROOT
HETATM    1  C   UNL     1      44.512 -14.365   6.629  1.00  0.00     0.216 C 
HETATM    2  C   UNL     1      43.984 -15.631   7.147  1.00  0.00    -0.098 C 
HETATM    3  C   UNL     1      43.556 -16.665   7.584  1.00  0.00     0.014 C 
ENDROOT
BRANCH   1   4
HETATM    4  N   UNL     1      43.969 -14.081   5.326  1.00  0.00    -0.351 N 
HETATM    5  C   UNL     1      42.919 -13.224   5.139  1.00  0.00     0.219 C 
HETATM    6  O   UNL     1      42.369 -12.607   6.047  1.00  0.00    -0.274 OA
HETATM    7  H   UNL     1      44.218 -14.729   4.575  1.00  0.00     0.163 HD
BRANCH   5   8
HETATM    8  C   UNL     1      42.485 -13.048   3.693  1.00  0.00     0.114 C 
BRANCH   8   9
HETATM    9  C   UNL     1      41.035 -13.523   3.457  1.00  0.00     0.056 C 
HETATM   10  C   UNL     1      40.066 -12.595   2.561  1.00  0.00    -0.030 C 
HETATM   11  C   UNL     1      38.722 -12.528   3.369  1.00  0.00     0.016 C 
HETATM   12  C   UNL     1      39.702 -13.169   1.116  1.00  0.00     0.012 C 
HETATM   13  C   UNL     1      40.518 -11.114   2.430  1.00  0.00     0.013 C 
HETATM   14  C   UNL     1      39.235 -14.646   1.180  1.00  0.00     0.055 C 
HETATM   15  C   UNL     1      40.743 -12.854  -0.039  1.00  0.00     0.008 C 
HETATM   16  C   UNL     1      40.179 -15.447   1.993  1.00  0.00     0.012 A 
HETATM   17  C   UNL     1      41.002 -14.963   2.987  1.00  0.00     0.056 A 
HETATM   18  S   UNL     1      40.397 -17.124   1.791  1.00  0.00    -0.055 SA
HETATM   19  N   UNL     1      41.866 -15.906   3.518  1.00  0.00    -0.227 NA
HETATM   20  C   UNL     1      41.641 -17.068   2.959  1.00  0.00     0.174 A 
HETATM   21  C   UNL     1      40.116 -13.209  -1.419  1.00  0.00     0.020 C 
HETATM   22  C   UNL     1      41.052 -11.329  -0.039  1.00  0.00     0.128 C 
HETATM   23  C   UNL     1      41.532 -10.834   1.322  1.00  0.00     0.033 C 
BRANCH  20  24
HETATM   24  N   UNL     1      42.278 -18.257   3.139  1.00  0.00    -0.301 N 
HETATM   25  C   UNL     1      43.437 -18.593   2.478  1.00  0.00     0.264 C 
HETATM   26  O   UNL     1      44.031 -17.852   1.698  1.00  0.00    -0.267 OA
HETATM   27  H   UNL     1      41.830 -18.938   3.734  1.00  0.00     0.171 HD
BRANCH  25  28
HETATM   28  C   UNL     1      43.910 -19.951   2.749  1.00  0.00     0.072 A 
HETATM   29  S   UNL     1      44.665 -20.387   4.230  1.00  0.00    -0.097 SA
HETATM   30  C   UNL     1      44.845 -22.015   3.745  1.00  0.00     0.050 A 
HETATM   31  C   UNL     1      44.348 -22.234   2.480  1.00  0.00     0.009 A 
HETATM   32  C   UNL     1      43.813 -21.045   1.906  1.00  0.00     0.025 A 
ENDBRANCH  25  28
ENDBRANCH  20  24
BRANCH  15  33
HETATM   33  C   UNL     1      42.061 -13.657   0.072  1.00  0.00     0.176 C 
BRANCH  33  34
HETATM   34  O   UNL     1      42.096 -14.710  -0.887  1.00  0.00    -0.400 OA
HETATM   35  H   UNL     1      41.180 -14.855  -1.184  1.00  0.00     0.209 HD
ENDBRANCH  33  34
ENDBRANCH  15  33
BRANCH  22  36
HETATM   36  O   UNL     1      39.880 -10.577  -0.376  1.00  0.00    -0.395 OA
HETATM   37  H   UNL     1      40.165  -9.846  -0.950  1.00  0.00     0.210 HD
ENDBRANCH  22  36
ENDBRANCH   8   9
ENDBRANCH   5   8
ENDBRANCH   1   4
TORSDOF 8
ENDMDL
MODEL 4
REMARK VINA RESULT:      -7.8      3.012      7.271
REMARK  8 active torsions:
REMARK  status: ('A' for Active; 'I' for Inactive)
REMARK    1  A    between atoms: C_3  and  C_4 
REMARK    2  A    between atoms: C_4  and  C_5 
REMARK       I    between atoms: C_5  and  N_6 
REMARK    3  A    between atoms: N_6  and  C_7 
REMARK    4  A    between atoms: C_14  and  N_15 
REMARK       I    between atoms: N_15  and  C_16 
REMARK    5  A    between atoms: C_16  and  C_17 
REMARK    6  A    between atoms: C_26  and  C_27 
REMARK    7  A    between atoms: C_27  and  O_28 
REMARK    8  A    between atoms: C_30  and  O_31 
ROOT
HETATM    1  C   UNL     1      40.676 -13.129  -1.024  1.00  0.00     0.216 C 
HETATM    2  C   UNL     1      39.248 -13.425  -1.186  1.00  0.00    -0.098 C 
HETATM    3  C   UNL     1      38.080 -13.661  -1.330  1.00  0.00     0.014 C 
ENDROOT
BRANCH   1   4
HETATM    4  N   UNL     1      41.250 -13.937   0.019  1.00  0.00    -0.351 N 
HETATM    5  C   UNL     1      42.146 -13.439   0.925  1.00  0.00     0.219 C 
HETATM    6  O   UNL     1      42.517 -12.269   0.948  1.00  0.00    -0.274 OA
HETATM    7  H   UNL     1      41.170 -14.950  -0.090  1.00  0.00     0.163 HD
BRANCH   5   8
HETATM    8  C   UNL     1      42.642 -14.441   1.955  1.00  0.00     0.114 C 
BRANCH   8   9
HETATM    9  C   UNL     1      41.530 -15.412   2.406  1.00  0.00     0.056 C 
HETATM   10  C   UNL     1      41.710 -16.981   2.076  1.00  0.00    -0.030 C 
HETATM   11  C   UNL     1      40.317 -17.430   1.507  1.00  0.00     0.016 C 
HETATM   12  C   UNL     1      42.014 -17.922   3.331  1.00  0.00     0.012 C 
HETATM   13  C   UNL     1      42.718 -17.298   0.937  1.00  0.00     0.013 C 
HETATM   14  C   UNL     1      41.033 -17.659   4.503  1.00  0.00     0.055 C 
HETATM   15  C   UNL     1      43.537 -18.039   3.757  1.00  0.00     0.008 C 
HETATM   16  C   UNL     1      40.933 -16.205   4.771  1.00  0.00     0.012 A 
HETATM   17  C   UNL     1      41.175 -15.197   3.864  1.00  0.00     0.056 A 
HETATM   18  S   UNL     1      40.513 -15.562   6.291  1.00  0.00    -0.055 SA
HETATM   19  N   UNL     1      41.116 -13.923   4.402  1.00  0.00    -0.227 NA
HETATM   20  C   UNL     1      40.785 -13.998   5.666  1.00  0.00     0.174 A 
HETATM   21  C   UNL     1      43.705 -19.201   4.780  1.00  0.00     0.020 C 
HETATM   22  C   UNL     1      44.388 -18.389   2.502  1.00  0.00     0.128 C 
HETATM   23  C   UNL     1      44.182 -17.393   1.365  1.00  0.00     0.033 C 
BRANCH  20  24
HETATM   24  N   UNL     1      40.656 -13.007   6.591  1.00  0.00    -0.301 N 
HETATM   25  C   UNL     1      39.571 -12.162   6.636  1.00  0.00     0.264 C 
HETATM   26  O   UNL     1      38.602 -12.236   5.885  1.00  0.00    -0.267 OA
HETATM   27  H   UNL     1      41.431 -12.856   7.219  1.00  0.00     0.171 HD
BRANCH  25  28
HETATM   28  C   UNL     1      39.671 -11.113   7.652  1.00  0.00     0.072 A 
HETATM   29  S   UNL     1      40.508  -9.639   7.378  1.00  0.00    -0.097 SA
HETATM   30  C   UNL     1      40.125  -9.045   8.932  1.00  0.00     0.050 A 
HETATM   31  C   UNL     1      39.379  -9.946   9.659  1.00  0.00     0.009 A 
HETATM   32  C   UNL     1      39.121 -11.138   8.922  1.00  0.00     0.025 A 
ENDBRANCH  25  28
ENDBRANCH  20  24
BRANCH  15  33
HETATM   33  C   UNL     1      44.097 -16.765   4.433  1.00  0.00     0.176 C 
BRANCH  33  34
HETATM   34  O   UNL     1      44.182 -16.935   5.845  1.00  0.00    -0.400 OA
HETATM   35  H   UNL     1      44.798 -17.672   6.007  1.00  0.00     0.209 HD
ENDBRANCH  33  34
ENDBRANCH  15  33
BRANCH  22  36
HETATM   36  O   UNL     1      44.037 -19.685   2.001  1.00  0.00    -0.395 OA
HETATM   37  H   UNL     1      44.845 -20.226   2.020  1.00  0.00     0.210 HD
ENDBRANCH  22  36
ENDBRANCH   8   9
ENDBRANCH   5   8
ENDBRANCH   1   4
TORSDOF 8
ENDMDL
MODEL 5
REMARK VINA RESULT:      -7.7      2.864      6.670
REMARK  8 active torsions:
REMARK  status: ('A' for Active; 'I' for Inactive)
REMARK    1  A    between atoms: C_3  and  C_4 
REMARK    2  A    between atoms: C_4  and  C_5 
REMARK       I    between atoms: C_5  and  N_6 
REMARK    3  A    between atoms: N_6  and  C_7 
REMARK    4  A    between atoms: C_14  and  N_15 
REMARK       I    between atoms: N_15  and  C_16 
REMARK    5  A    between atoms: C_16  and  C_17 
REMARK    6  A    between atoms: C_26  and  C_27 
REMARK    7  A    between atoms: C_27  and  O_28 
REMARK    8  A    between atoms: C_30  and  O_31 
ROOT
HETATM    1  C   UNL     1      40.513 -15.273  -2.304  1.00  0.00     0.216 C 
HETATM    2  C   UNL     1      41.148 -14.119  -2.947  1.00  0.00    -0.098 C 
HETATM    3  C   UNL     1      41.663 -13.177  -3.485  1.00  0.00     0.014 C 
ENDROOT
BRANCH   1   4
HETATM    4  N   UNL     1      40.512 -15.124  -0.873  1.00  0.00    -0.351 N 
HETATM    5  C   UNL     1      39.535 -14.437  -0.206  1.00  0.00     0.219 C 
HETATM    6  O   UNL     1      38.569 -13.915  -0.756  1.00  0.00    -0.274 OA
HETATM    7  H   UNL     1      41.392 -15.323  -0.391  1.00  0.00     0.163 HD
BRANCH   5   8
HETATM    8  C   UNL     1      39.701 -14.387   1.304  1.00  0.00     0.114 C 
BRANCH   8   9
HETATM    9  C   UNL     1      40.981 -13.634   1.725  1.00  0.00     0.056 C 
HETATM   10  C   UNL     1      40.824 -12.147   2.332  1.00  0.00    -0.030 C 
HETATM   11  C   UNL     1      41.918 -11.298   1.592  1.00  0.00     0.016 C 
HETATM   12  C   UNL     1      41.117 -12.003   3.896  1.00  0.00     0.012 C 
HETATM   13  C   UNL     1      39.484 -11.440   1.990  1.00  0.00     0.013 C 
HETATM   14  C   UNL     1      42.450 -12.684   4.300  1.00  0.00     0.055 C 
HETATM   15  C   UNL     1      39.897 -12.312   4.861  1.00  0.00     0.008 C 
HETATM   16  C   UNL     1      42.519 -14.051   3.735  1.00  0.00     0.012 A 
HETATM   17  C   UNL     1      41.856 -14.497   2.612  1.00  0.00     0.056 A 
HETATM   18  S   UNL     1      43.441 -15.304   4.429  1.00  0.00    -0.055 SA
HETATM   19  N   UNL     1      42.009 -15.850   2.362  1.00  0.00    -0.227 NA
HETATM   20  C   UNL     1      42.812 -16.371   3.255  1.00  0.00     0.174 A 
HETATM   21  C   UNL     1      40.243 -11.846   6.305  1.00  0.00     0.020 C 
HETATM   22  C   UNL     1      38.658 -11.498   4.387  1.00  0.00     0.128 C 
HETATM   23  C   UNL     1      38.316 -11.762   2.923  1.00  0.00     0.033 C 
BRANCH  20  24
HETATM   24  N   UNL     1      43.204 -17.663   3.422  1.00  0.00    -0.301 N 
HETATM   25  C   UNL     1      43.922 -18.356   2.474  1.00  0.00     0.264 C 
HETATM   26  O   UNL     1      44.312 -17.877   1.411  1.00  0.00    -0.267 OA
HETATM   27  H   UNL     1      42.888 -18.141   4.252  1.00  0.00     0.171 HD
BRANCH  25  28
HETATM   28  C   UNL     1      44.167 -19.759   2.814  1.00  0.00     0.072 A 
HETATM   29  S   UNL     1      44.696 -20.251   4.373  1.00  0.00    -0.097 SA
HETATM   30  C   UNL     1      44.692 -21.902   3.934  1.00  0.00     0.050 A 
HETATM   31  C   UNL     1      44.303 -22.087   2.626  1.00  0.00     0.009 A 
HETATM   32  C   UNL     1      44.004 -20.852   1.981  1.00  0.00     0.025 A 
ENDBRANCH  25  28
ENDBRANCH  20  24
BRANCH  15  33
HETATM   33  C   UNL     1      39.536 -13.814   4.952  1.00  0.00     0.176 C 
BRANCH  33  34
HETATM   34  O   UNL     1      39.921 -14.353   6.213  1.00  0.00    -0.400 OA
HETATM   35  H   UNL     1      39.908 -13.619   6.853  1.00  0.00     0.209 HD
ENDBRANCH  33  34
ENDBRANCH  15  33
BRANCH  22  36
HETATM   36  O   UNL     1      38.897 -10.092   4.522  1.00  0.00    -0.395 OA
HETATM   37  H   UNL     1      38.417  -9.651   3.800  1.00  0.00     0.210 HD
ENDBRANCH  22  36
ENDBRANCH   8   9
ENDBRANCH   5   8
ENDBRANCH   1   4
TORSDOF 8
ENDMDL
MODEL 6
REMARK VINA RESULT:      -7.6      2.484      5.433
REMARK  8 active torsions:
REMARK  status: ('A' for Active; 'I' for Inactive)
REMARK    1  A    between atoms: C_3  and  C_4 
REMARK    2  A    between atoms: C_4  and  C_5 
REMARK       I    between atoms: C_5  and  N_6 
REMARK    3  A    between atoms: N_6  and  C_7 
REMARK    4  A    between atoms: C_14  and  N_15 
REMARK       I    between atoms: N_15  and  C_16 
REMARK    5  A    between atoms: C_16  and  C_17 
REMARK    6  A    between atoms: C_26  and  C_27 
REMARK    7  A    between atoms: C_27  and  O_28 
REMARK    8  A    between atoms: C_30  and  O_31 
ROOT
HETATM    1  C   UNL     1      39.660 -11.588   7.294  1.00  0.00     0.216 C 
HETATM    2  C   UNL     1      40.849 -10.959   7.878  1.00  0.00    -0.098 C 
HETATM    3  C   UNL     1      41.815 -10.437   8.364  1.00  0.00     0.014 C 
ENDROOT
BRANCH   1   4
HETATM    4  N   UNL     1      40.012 -12.797   6.598  1.00  0.00    -0.351 N 
HETATM    5  C   UNL     1      39.663 -13.021   5.294  1.00  0.00     0.219 C 
HETATM    6  O   UNL     1      39.050 -12.214   4.601  1.00  0.00    -0.274 OA
HETATM    7  H   UNL     1      40.305 -13.589   7.174  1.00  0.00     0.163 HD
BRANCH   5   8
HETATM    8  C   UNL     1      40.124 -14.354   4.726  1.00  0.00     0.114 C 
BRANCH   8   9
HETATM    9  C   UNL     1      41.480 -14.239   3.998  1.00  0.00     0.056 C 
HETATM   10  C   UNL     1      42.776 -14.903   4.692  1.00  0.00    -0.030 C 
HETATM   11  C   UNL     1      43.895 -13.808   4.576  1.00  0.00     0.016 C 
HETATM   12  C   UNL     1      43.347 -16.215   3.979  1.00  0.00     0.012 C 
HETATM   13  C   UNL     1      42.639 -15.162   6.217  1.00  0.00     0.013 C 
HETATM   14  C   UNL     1      43.514 -16.017   2.450  1.00  0.00     0.055 C 
HETATM   15  C   UNL     1      42.664 -17.584   4.398  1.00  0.00     0.008 C 
HETATM   16  C   UNL     1      42.283 -15.429   1.872  1.00  0.00     0.012 A 
HETATM   17  C   UNL     1      41.359 -14.662   2.547  1.00  0.00     0.056 A 
HETATM   18  S   UNL     1      41.818 -15.645   0.248  1.00  0.00    -0.055 SA
HETATM   19  N   UNL     1      40.243 -14.328   1.799  1.00  0.00    -0.227 NA
HETATM   20  C   UNL     1      40.376 -14.798   0.584  1.00  0.00     0.174 A 
HETATM   21  C   UNL     1      43.511 -18.775   3.861  1.00  0.00     0.020 C 
HETATM   22  C   UNL     1      42.643 -17.684   5.951  1.00  0.00     0.128 C 
HETATM   23  C   UNL     1      41.967 -16.481   6.601  1.00  0.00     0.033 C 
BRANCH  20  24
HETATM   24  N   UNL     1      39.511 -14.748  -0.466  1.00  0.00    -0.301 N 
HETATM   25  C   UNL     1      39.561 -13.768  -1.430  1.00  0.00     0.264 C 
HETATM   26  O   UNL     1      40.400 -12.871  -1.467  1.00  0.00    -0.267 OA
HETATM   27  H   UNL     1      38.765 -15.427  -0.486  1.00  0.00     0.171 HD
BRANCH  25  28
HETATM   28  C   UNL     1      38.488 -13.849  -2.423  1.00  0.00     0.072 A 
HETATM   29  S   UNL     1      37.591 -12.472  -2.927  1.00  0.00    -0.097 SA
HETATM   30  C   UNL     1      36.658 -13.390  -4.025  1.00  0.00     0.050 A 
HETATM   31  C   UNL     1      37.009 -14.721  -4.012  1.00  0.00     0.009 A 
HETATM   32  C   UNL     1      38.060 -14.985  -3.087  1.00  0.00     0.025 A 
ENDBRANCH  25  28
ENDBRANCH  20  24
BRANCH  15  33
HETATM   33  C   UNL     1      41.233 -17.766   3.840  1.00  0.00     0.176 C 
BRANCH  33  34
HETATM   34  O   UNL     1      40.295 -17.951   4.897  1.00  0.00    -0.400 OA
HETATM   35  H   UNL     1      39.615 -18.566   4.569  1.00  0.00     0.209 HD
ENDBRANCH  33  34
ENDBRANCH  15  33
BRANCH  22  36
HETATM   36  O   UNL     1      43.976 -17.755   6.470  1.00  0.00    -0.395 OA
HETATM   37  H   UNL     1      44.053 -18.600   6.946  1.00  0.00     0.210 HD
ENDBRANCH  22  36
ENDBRANCH   8   9
ENDBRANCH   5   8
ENDBRANCH   1   4
TORSDOF 8
ENDMDL
MODEL 7
REMARK VINA RESULT:      -7.4      3.066      5.966
REMARK  8 active torsions:
REMARK  status: ('A' for Active; 'I' for Inactive)
REMARK    1  A    between atoms: C_3  and  C_4 
REMARK    2  A    between atoms: C_4  and  C_5 
REMARK       I    between atoms: C_5  and  N_6 
REMARK    3  A    between atoms: N_6  and  C_7 
REMARK    4  A    between atoms: C_14  and  N_15 
REMARK       I    between atoms: N_15  and  C_16 
REMARK    5  A    between atoms: C_16  and  C_17 
REMARK    6  A    between atoms: C_26  and  C_27 
REMARK    7  A    between atoms: C_27  and  O_28 
REMARK    8  A    between atoms: C_30  and  O_31 
ROOT
HETATM    1  C   UNL     1      39.271 -11.965   8.151  1.00  0.00     0.216 C 
HETATM    2  C   UNL     1      40.367 -11.002   8.298  1.00  0.00    -0.098 C 
HETATM    3  C   UNL     1      41.259 -10.209   8.431  1.00  0.00     0.014 C 
ENDROOT
BRANCH   1   4
HETATM    4  N   UNL     1      39.617 -12.990   7.201  1.00  0.00    -0.351 N 
HETATM    5  C   UNL     1      39.285 -12.907   5.877  1.00  0.00     0.219 C 
HETATM    6  O   UNL     1      38.693 -11.953   5.378  1.00  0.00    -0.274 OA
HETATM    7  H   UNL     1      39.890 -13.897   7.586  1.00  0.00     0.163 HD
BRANCH   5   8
HETATM    8  C   UNL     1      39.736 -14.083   5.026  1.00  0.00     0.114 C 
BRANCH   8   9
HETATM    9  C   UNL     1      41.136 -13.858   4.417  1.00  0.00     0.056 C 
HETATM   10  C   UNL     1      42.304 -14.910   4.782  1.00  0.00    -0.030 C 
HETATM   11  C   UNL     1      43.547 -14.018   5.132  1.00  0.00     0.016 C 
HETATM   12  C   UNL     1      42.758 -15.878   3.595  1.00  0.00     0.012 C 
HETATM   13  C   UNL     1      42.049 -15.749   6.064  1.00  0.00     0.013 C 
HETATM   14  C   UNL     1      43.035 -15.097   2.284  1.00  0.00     0.055 C 
HETATM   15  C   UNL     1      41.898 -17.198   3.408  1.00  0.00     0.008 C 
HETATM   16  C   UNL     1      41.917 -14.171   1.993  1.00  0.00     0.012 A 
HETATM   17  C   UNL     1      41.051 -13.633   2.920  1.00  0.00     0.056 A 
HETATM   18  S   UNL     1      41.525 -13.643   0.422  1.00  0.00    -0.055 SA
HETATM   19  N   UNL     1      40.027 -12.881   2.370  1.00  0.00    -0.227 NA
HETATM   20  C   UNL     1      40.174 -12.827   1.071  1.00  0.00     0.174 A 
HETATM   21  C   UNL     1      42.630 -18.165   2.432  1.00  0.00     0.020 C 
HETATM   22  C   UNL     1      41.776 -17.920   4.782  1.00  0.00     0.128 C 
HETATM   23  C   UNL     1      41.207 -17.009   5.867  1.00  0.00     0.033 C 
BRANCH  20  24
HETATM   24  N   UNL     1      39.383 -12.241   0.130  1.00  0.00    -0.301 N 
HETATM   25  C   UNL     1      38.308 -12.878  -0.446  1.00  0.00     0.264 C 
HETATM   26  O   UNL     1      37.930 -14.009  -0.149  1.00  0.00    -0.267 OA
HETATM   27  H   UNL     1      39.653 -11.326  -0.198  1.00  0.00     0.171 HD
BRANCH  25  28
HETATM   28  C   UNL     1      37.645 -12.103  -1.496  1.00  0.00     0.072 A 
HETATM   29  S   UNL     1      38.075 -12.240  -3.155  1.00  0.00    -0.097 SA
HETATM   30  C   UNL     1      36.884 -11.113  -3.633  1.00  0.00     0.050 A 
HETATM   31  C   UNL     1      36.171 -10.630  -2.559  1.00  0.00     0.009 A 
HETATM   32  C   UNL     1      36.612 -11.198  -1.329  1.00  0.00     0.025 A 
ENDBRANCH  25  28
ENDBRANCH  20  24
BRANCH  15  33
HETATM   33  C   UNL     1      40.490 -16.949   2.818  1.00  0.00     0.176 C 
BRANCH  33  34
HETATM   34  O   UNL     1      40.429 -17.369   1.457  1.00  0.00    -0.400 OA
HETATM   35  H   UNL     1      39.920 -18.200   1.439  1.00  0.00     0.209 HD
ENDBRANCH  33  34
ENDBRANCH  15  33
BRANCH  22  36
HETATM   36  O   UNL     1      43.059 -18.369   5.232  1.00  0.00    -0.395 OA
HETATM   37  H   UNL     1      43.727 -17.899   4.703  1.00  0.00     0.210 HD
ENDBRANCH  22  36
ENDBRANCH   8   9
ENDBRANCH   5   8
ENDBRANCH   1   4
TORSDOF 8
ENDMDL
MODEL 8
REMARK VINA RESULT:      -7.4      3.203      7.853
REMARK  8 active torsions:
REMARK  status: ('A' for Active; 'I' for Inactive)
REMARK    1  A    between atoms: C_3  and  C_4 
REMARK    2  A    between atoms: C_4  and  C_5 
REMARK       I    between atoms: C_5  and  N_6 
REMARK    3  A    between atoms: N_6  and  C_7 
REMARK    4  A    between atoms: C_14  and  N_15 
REMARK       I    between atoms: N_15  and  C_16 
REMARK    5  A    between atoms: C_16  and  C_17 
REMARK    6  A    between atoms: C_26  and  C_27 
REMARK    7  A    between atoms: C_27  and  O_28 
REMARK    8  A    between atoms: C_30  and  O_31 
ROOT
HETATM    1  C   UNL     1      42.116 -12.700   5.144  1.00  0.00     0.216 C 
HETATM    2  C   UNL     1      42.072 -14.124   5.489  1.00  0.00    -0.098 C 
HETATM    3  C   UNL     1      42.033 -15.288   5.783  1.00  0.00     0.014 C 
ENDROOT
BRANCH   1   4
HETATM    4  N   UNL     1      42.160 -12.521   3.717  1.00  0.00    -0.351 N 
HETATM    5  C   UNL     1      41.282 -11.710   3.050  1.00  0.00     0.219 C 
HETATM    6  O   UNL     1      40.407 -11.049   3.602  1.00  0.00    -0.274 OA
HETATM    7  H   UNL     1      42.696 -13.211   3.185  1.00  0.00     0.163 HD
BRANCH   5   8
HETATM    8  C   UNL     1      41.484 -11.645   1.545  1.00  0.00     0.114 C 
BRANCH   8   9
HETATM    9  C   UNL     1      40.364 -12.376   0.775  1.00  0.00     0.056 C 
HETATM   10  C   UNL     1      39.688 -11.623  -0.482  1.00  0.00    -0.030 C 
HETATM   11  C   UNL     1      38.144 -11.829  -0.284  1.00  0.00     0.016 C 
HETATM   12  C   UNL     1      40.046 -12.219  -1.920  1.00  0.00     0.012 C 
HETATM   13  C   UNL     1      39.878 -10.082  -0.499  1.00  0.00     0.013 C 
HETATM   14  C   UNL     1      39.869 -13.759  -1.970  1.00  0.00     0.055 C 
HETATM   15  C   UNL     1      41.389 -11.687  -2.576  1.00  0.00     0.008 C 
HETATM   16  C   UNL     1      40.532 -14.389  -0.806  1.00  0.00     0.012 A 
HETATM   17  C   UNL     1      40.784 -13.785   0.407  1.00  0.00     0.056 A 
HETATM   18  S   UNL     1      41.112 -15.991  -0.815  1.00  0.00    -0.055 SA
HETATM   19  N   UNL     1      41.515 -14.564   1.288  1.00  0.00    -0.227 NA
HETATM   20  C   UNL     1      41.747 -15.733   0.748  1.00  0.00     0.174 A 
HETATM   21  C   UNL     1      41.446 -12.118  -4.071  1.00  0.00     0.020 C 
HETATM   22  C   UNL     1      41.391 -10.132  -2.534  1.00  0.00     0.128 C 
HETATM   23  C   UNL     1      41.184  -9.589  -1.123  1.00  0.00     0.033 C 
BRANCH  20  24
HETATM   24  N   UNL     1      42.461 -16.787   1.231  1.00  0.00    -0.301 N 
HETATM   25  C   UNL     1      42.069 -17.516   2.329  1.00  0.00     0.264 C 
HETATM   26  O   UNL     1      41.031 -17.322   2.957  1.00  0.00    -0.267 OA
HETATM   27  H   UNL     1      43.349 -16.985   0.794  1.00  0.00     0.171 HD
BRANCH  25  28
HETATM   28  C   UNL     1      43.023 -18.551   2.733  1.00  0.00     0.072 A 
HETATM   29  S   UNL     1      43.712 -18.607   4.306  1.00  0.00    -0.097 SA
HETATM   30  C   UNL     1      44.599 -20.022   3.948  1.00  0.00     0.050 A 
HETATM   31  C   UNL     1      44.388 -20.450   2.656  1.00  0.00     0.009 A 
HETATM   32  C   UNL     1      43.483 -19.600   1.956  1.00  0.00     0.025 A 
ENDBRANCH  25  28
ENDBRANCH  20  24
BRANCH  15  33
HETATM   33  C   UNL     1      42.672 -12.233  -1.905  1.00  0.00     0.176 C 
BRANCH  33  34
HETATM   34  O   UNL     1      43.298 -13.214  -2.728  1.00  0.00    -0.400 OA
HETATM   35  H   UNL     1      43.270 -12.878  -3.642  1.00  0.00     0.209 HD
ENDBRANCH  33  34
ENDBRANCH  15  33
BRANCH  22  36
HETATM   36  O   UNL     1      40.339  -9.604  -3.351  1.00  0.00    -0.395 OA
HETATM   37  H   UNL     1      39.659  -9.255  -2.750  1.00  0.00     0.210 HD
ENDBRANCH  22  36
ENDBRANCH   8   9
ENDBRANCH   5   8
ENDBRANCH   1   4
TORSDOF 8
ENDMDL
MODEL 9
REMARK VINA RESULT:      -7.0      3.622      8.929
REMARK  8 active torsions:
REMARK  status: ('A' for Active; 'I' for Inactive)
REMARK    1  A    between atoms: C_3  and  C_4 
REMARK    2  A    between atoms: C_4  and  C_5 
REMARK       I    between atoms: C_5  and  N_6 
REMARK    3  A    between atoms: N_6  and  C_7 
REMARK    4  A    between atoms: C_14  and  N_15 
REMARK       I    between atoms: N_15  and  C_16 
REMARK    5  A    between atoms: C_16  and  C_17 
REMARK    6  A    between atoms: C_26  and  C_27 
REMARK    7  A    between atoms: C_27  and  O_28 
REMARK    8  A    between atoms: C_30  and  O_31 
ROOT
HETATM    1  C   UNL     1      42.475  -8.241   0.674  1.00  0.00     0.216 C 
HETATM    2  C   UNL     1      41.703  -7.730   1.811  1.00  0.00    -0.098 C 
HETATM    3  C   UNL     1      41.073  -7.300   2.738  1.00  0.00     0.014 C 
ENDROOT
BRANCH   1   4
HETATM    4  N   UNL     1      42.197  -9.636   0.453  1.00  0.00    -0.351 N 
HETATM    5  C   UNL     1      42.995 -10.430  -0.323  1.00  0.00     0.219 C 
HETATM    6  O   UNL     1      44.021 -10.039  -0.874  1.00  0.00    -0.274 OA
HETATM    7  H   UNL     1      41.253  -9.956   0.679  1.00  0.00     0.163 HD
BRANCH   5   8
HETATM    8  C   UNL     1      42.544 -11.877  -0.439  1.00  0.00     0.114 C 
BRANCH   8   9
HETATM    9  C   UNL     1      41.093 -12.076   0.048  1.00  0.00     0.056 C 
HETATM   10  C   UNL     1      39.895 -11.806  -0.998  1.00  0.00    -0.030 C 
HETATM   11  C   UNL     1      38.855 -10.944  -0.199  1.00  0.00     0.016 C 
HETATM   12  C   UNL     1      39.115 -13.105  -1.507  1.00  0.00     0.012 C 
HETATM   13  C   UNL     1      40.279 -10.924  -2.218  1.00  0.00     0.013 C 
HETATM   14  C   UNL     1      38.697 -14.026  -0.331  1.00  0.00     0.055 C 
HETATM   15  C   UNL     1      39.760 -13.862  -2.742  1.00  0.00     0.008 C 
HETATM   16  C   UNL     1      39.845 -14.254   0.576  1.00  0.00     0.012 A 
HETATM   17  C   UNL     1      40.927 -13.415   0.738  1.00  0.00     0.056 A 
HETATM   18  S   UNL     1      40.000 -15.636   1.558  1.00  0.00    -0.055 SA
HETATM   19  N   UNL     1      41.914 -13.916   1.568  1.00  0.00    -0.227 NA
HETATM   20  C   UNL     1      41.537 -15.075   2.046  1.00  0.00     0.174 A 
HETATM   21  C   UNL     1      38.749 -14.906  -3.301  1.00  0.00     0.020 C 
HETATM   22  C   UNL     1      40.047 -12.832  -3.873  1.00  0.00     0.128 C 
HETATM   23  C   UNL     1      40.912 -11.670  -3.393  1.00  0.00     0.033 C 
BRANCH  20  24
HETATM   24  N   UNL     1      42.204 -15.940   2.858  1.00  0.00    -0.301 N 
HETATM   25  C   UNL     1      43.084 -16.886   2.382  1.00  0.00     0.264 C 
HETATM   26  O   UNL     1      43.384 -17.022   1.199  1.00  0.00    -0.267 OA
HETATM   27  H   UNL     1      41.981 -15.919   3.841  1.00  0.00     0.171 HD
BRANCH  25  28
HETATM   28  C   UNL     1      43.627 -17.771   3.414  1.00  0.00     0.072 A 
HETATM   29  S   UNL     1      44.075 -19.398   3.091  1.00  0.00    -0.097 SA
HETATM   30  C   UNL     1      44.592 -19.653   4.699  1.00  0.00     0.050 A 
HETATM   31  C   UNL     1      44.425 -18.530   5.478  1.00  0.00     0.009 A 
HETATM   32  C   UNL     1      43.867 -17.448   4.738  1.00  0.00     0.025 A 
ENDBRANCH  25  28
ENDBRANCH  20  24
BRANCH  15  33
HETATM   33  C   UNL     1      41.054 -14.636  -2.395  1.00  0.00     0.176 C 
BRANCH  33  34
HETATM   34  O   UNL     1      41.802 -14.928  -3.573  1.00  0.00    -0.400 OA
HETATM   35  H   UNL     1      42.214 -14.094  -3.862  1.00  0.00     0.209 HD
ENDBRANCH  33  34
ENDBRANCH  15  33
BRANCH  22  36
HETATM   36  O   UNL     1      38.824 -12.276  -4.370  1.00  0.00    -0.395 OA
HETATM   37  H   UNL     1      38.516 -11.629  -3.712  1.00  0.00     0.210 HD
ENDBRANCH  22  36
ENDBRANCH   8   9
ENDBRANCH   5   8
ENDBRANCH   1   4
TORSDOF 8
ENDMDL
MODEL 10
REMARK VINA RESULT:      -7.0      2.967      6.856
REMARK  8 active torsions:
REMARK  status: ('A' for Active; 'I' for Inactive)
REMARK    1  A    between atoms: C_3  and  C_4 
REMARK    2  A    between atoms: C_4  and  C_5 
REMARK       I    between atoms: C_5  and  N_6 
REMARK    3  A    between atoms: N_6  and  C_7 
REMARK    4  A    between atoms: C_14  and  N_15 
REMARK       I    between atoms: N_15  and  C_16 
REMARK    5  A    between atoms: C_16  and  C_17 
REMARK    6  A    between atoms: C_26  and  C_27 
REMARK    7  A    between atoms: C_27  and  O_28 
REMARK    8  A    between atoms: C_30  and  O_31 
ROOT
HETATM    1  C   UNL     1      43.780 -11.981   9.456  1.00  0.00     0.216 C 
HETATM    2  C   UNL     1      45.122 -11.390   9.492  1.00  0.00    -0.098 C 
HETATM    3  C   UNL     1      46.222 -10.910   9.533  1.00  0.00     0.014 C 
ENDROOT
BRANCH   1   4
HETATM    4  N   UNL     1      43.341 -12.169   8.099  1.00  0.00    -0.351 N 
HETATM    5  C   UNL     1      43.734 -13.239   7.342  1.00  0.00     0.219 C 
HETATM    6  O   UNL     1      44.464 -14.137   7.752  1.00  0.00    -0.274 OA
HETATM    7  H   UNL     1      42.937 -11.355   7.631  1.00  0.00     0.163 HD
BRANCH   5   8
HETATM    8  C   UNL     1      43.167 -13.270   5.932  1.00  0.00     0.114 C 
BRANCH   8   9
HETATM    9  C   UNL     1      41.684 -13.701   5.909  1.00  0.00     0.056 C 
HETATM   10  C   UNL     1      40.577 -12.597   5.513  1.00  0.00    -0.030 C 
HETATM   11  C   UNL     1      39.444 -12.767   6.586  1.00  0.00     0.016 C 
HETATM   12  C   UNL     1      39.885 -12.793   4.086  1.00  0.00     0.012 C 
HETATM   13  C   UNL     1      41.041 -11.123   5.664  1.00  0.00     0.013 C 
HETATM   14  C   UNL     1      39.391 -14.248   3.876  1.00  0.00     0.055 C 
HETATM   15  C   UNL     1      40.660 -12.173   2.848  1.00  0.00     0.008 C 
HETATM   16  C   UNL     1      40.461 -15.209   4.233  1.00  0.00     0.012 A 
HETATM   17  C   UNL     1      41.498 -14.975   5.109  1.00  0.00     0.056 A 
HETATM   18  S   UNL     1      40.570 -16.774   3.571  1.00  0.00    -0.055 SA
HETATM   19  N   UNL     1      42.423 -16.003   5.181  1.00  0.00    -0.227 NA
HETATM   20  C   UNL     1      42.040 -16.990   4.412  1.00  0.00     0.174 A 
HETATM   21  C   UNL     1      39.734 -12.179   1.597  1.00  0.00     0.020 C 
HETATM   22  C   UNL     1      41.015 -10.691   3.165  1.00  0.00     0.128 C 
HETATM   23  C   UNL     1      41.798 -10.548   4.467  1.00  0.00     0.033 C 
BRANCH  20  24
HETATM   24  N   UNL     1      42.658 -18.172   4.141  1.00  0.00    -0.301 N 
HETATM   25  C   UNL     1      43.341 -18.408   2.970  1.00  0.00     0.264 C 
HETATM   26  O   UNL     1      43.497 -17.578   2.077  1.00  0.00    -0.267 OA
HETATM   27  H   UNL     1      42.542 -18.920   4.807  1.00  0.00     0.171 HD
BRANCH  25  28
HETATM   28  C   UNL     1      43.857 -19.772   2.841  1.00  0.00     0.072 A 
HETATM   29  S   UNL     1      44.754 -20.541   4.089  1.00  0.00    -0.097 SA
HETATM   30  C   UNL     1      44.911 -21.983   3.189  1.00  0.00     0.050 A 
HETATM   31  C   UNL     1      44.302 -21.892   1.958  1.00  0.00     0.009 A 
HETATM   32  C   UNL     1      43.699 -20.617   1.757  1.00  0.00     0.025 A 
ENDBRANCH  25  28
ENDBRANCH  20  24
BRANCH  15  33
HETATM   33  C   UNL     1      41.940 -12.949   2.460  1.00  0.00     0.176 C 
BRANCH  33  34
HETATM   34  O   UNL     1      42.669 -12.254   1.452  1.00  0.00    -0.400 OA
HETATM   35  H   UNL     1      43.488 -12.757   1.295  1.00  0.00     0.209 HD
ENDBRANCH  33  34
ENDBRANCH  15  33
BRANCH  22  36
HETATM   36  O   UNL     1      39.825  -9.905   3.295  1.00  0.00    -0.395 OA
HETATM   37  H   UNL     1      39.696  -9.440   2.450  1.00  0.00     0.210 HD
ENDBRANCH  22  36
ENDBRANCH   8   9
ENDBRANCH   5   8
ENDBRANCH   1   4
TORSDOF 8
ENDMDL
