MODEL 1
REMARK VINA RESULT:      -8.5      0.000      0.000
REMARK  9 active torsions:
REMARK  status: ('A' for Active; 'I' for Inactive)
REMARK    1  A    between atoms: C_2  and  N_3 
REMARK    2  A    between atoms: C_2  and  C_23 
REMARK       I    between atoms: N_3  and  C_4 
REMARK       I    between atoms: C_4  and  N_5 
REMARK    3  A    between atoms: N_5  and  C_6 
REMARK    4  A    between atoms: C_6  and  C_7 
REMARK    5  A    between atoms: C_7  and  N_8 
REMARK    6  A    between atoms: C_7  and  C_14 
REMARK    7  A    between atoms: C_15  and  O_16 
REMARK    8  A    between atoms: C_23  and  C_24 
REMARK    9  A    between atoms: C_27  and  O_28 
ROOT
HETATM    1  N   UNL     1      41.114 -14.584   0.829  1.00  0.00    -0.339 N 
HETATM    2  C   UNL     1      41.641 -15.839   0.957  1.00  0.00     0.316 C 
HETATM    3  N   UNL     1      43.012 -15.812   1.050  1.00  0.00    -0.341 N 
HETATM    4  O   UNL     1      41.006 -16.880   0.877  1.00  0.00    -0.248 OA
HETATM    5  H   UNL     1      41.599 -13.851   1.326  1.00  0.00     0.164 HD
HETATM    6  H   UNL     1      43.377 -14.949   1.430  1.00  0.00     0.164 HD
ENDROOT
BRANCH   3   7
HETATM    7  C   UNL     1      43.733 -17.022   1.423  1.00  0.00     0.162 C 
BRANCH   7   8
HETATM    8  C   UNL     1      43.714 -17.462   2.931  1.00  0.00     0.241 C 
BRANCH   8   9
HETATM    9  N   UNL     1      42.461 -16.982   3.704  1.00  0.00    -0.061 N 
HETATM   10  H   UNL     1      41.817 -16.691   2.959  1.00  0.00     0.280 HD
HETATM   11  C   UNL     1      42.605 -15.824   4.660  1.00  0.00     0.236 C 
HETATM   12  C   UNL     1      42.265 -16.395   6.020  1.00  0.00     0.029 C 
HETATM   13  C   UNL     1      41.195 -17.416   5.703  1.00  0.00     0.029 C 
HETATM   14  C   UNL     1      41.700 -18.077   4.433  1.00  0.00     0.236 C 
ENDBRANCH   8   9
BRANCH   8  15
HETATM   15  C   UNL     1      43.949 -18.977   3.034  1.00  0.00     0.007 A 
HETATM   16  C   UNL     1      44.581 -19.493   4.192  1.00  0.00     0.076 A 
HETATM   17  C   UNL     1      44.811 -20.866   4.322  1.00  0.00     0.037 A 
HETATM   18  C   UNL     1      44.432 -21.742   3.309  1.00  0.00     0.003 A 
HETATM   19  C   UNL     1      43.825 -21.253   2.159  1.00  0.00     0.001 A 
HETATM   20  C   UNL     1      43.588 -19.883   2.019  1.00  0.00     0.012 A 
BRANCH  16  21
HETATM   21  O   UNL     1      44.916 -18.570   5.148  1.00  0.00    -0.355 OA
HETATM   22  C   UNL     1      44.656 -18.915   6.508  1.00  0.00     0.210 C 
ENDBRANCH  16  21
ENDBRANCH   8  15
ENDBRANCH   7   8
ENDBRANCH   3   7
BRANCH   1  23
HETATM   23  C   UNL     1      39.683 -14.332   0.625  1.00  0.00     0.086 C 
HETATM   24  C   UNL     1      39.059 -13.685   1.862  1.00  0.00     0.032 C 
BRANCH  23  25
HETATM   25  C   UNL     1      39.355 -13.518  -0.645  1.00  0.00     0.063 C 
BRANCH  25  26
HETATM   26  C   UNL     1      39.237 -14.364  -1.892  1.00  0.00    -0.056 A 
HETATM   27  C   UNL     1      40.334 -15.093  -2.374  1.00  0.00     0.010 A 
HETATM   28  C   UNL     1      40.217 -15.862  -3.534  1.00  0.00     0.037 A 
HETATM   29  C   UNL     1      39.003 -15.901  -4.211  1.00  0.00     0.065 A 
HETATM   30  C   UNL     1      37.906 -15.186  -3.747  1.00  0.00     0.037 A 
HETATM   31  C   UNL     1      38.021 -14.421  -2.588  1.00  0.00     0.010 A 
BRANCH  29  32
HETATM   32  O   UNL     1      38.844 -16.637  -5.347  1.00  0.00    -0.361 OA
HETATM   33  H   UNL     1      38.135 -16.241  -5.881  1.00  0.00     0.217 HD
ENDBRANCH  29  32
ENDBRANCH  25  26
ENDBRANCH  23  25
ENDBRANCH   1  23
TORSDOF 9
ENDMDL
MODEL 2
REMARK VINA RESULT:      -8.2      2.983      7.365
REMARK  9 active torsions:
REMARK  status: ('A' for Active; 'I' for Inactive)
REMARK    1  A    between atoms: C_2  and  N_3 
REMARK    2  A    between atoms: C_2  and  C_23 
REMARK       I    between atoms: N_3  and  C_4 
REMARK       I    between atoms: C_4  and  N_5 
REMARK    3  A    between atoms: N_5  and  C_6 
REMARK    4  A    between atoms: C_6  and  C_7 
REMARK    5  A    between atoms: C_7  and  N_8 
REMARK    6  A    between atoms: C_7  and  C_14 
REMARK    7  A    between atoms: C_15  and  O_16 
REMARK    8  A    between atoms: C_23  and  C_24 
REMARK    9  A    between atoms: C_27  and  O_28 
ROOT
HETATM    1  N   UNL     1      42.675 -18.560   5.992  1.00  0.00    -0.339 N 
HETATM    2  C   UNL     1      42.468 -17.210   5.946  1.00  0.00     0.316 C 
HETATM    3  N   UNL     1      41.297 -16.893   5.300  1.00  0.00    -0.341 N 
HETATM    4  O   UNL     1      43.268 -16.362   6.314  1.00  0.00    -0.248 OA
HETATM    5  H   UNL     1      41.847 -19.129   6.085  1.00  0.00     0.164 HD
HETATM    6  H   UNL     1      40.598 -17.622   5.345  1.00  0.00     0.164 HD
ENDROOT
BRANCH   3   7
HETATM    7  C   UNL     1      40.790 -15.527   5.354  1.00  0.00     0.162 C 
BRANCH   7   8
HETATM    8  C   UNL     1      40.962 -14.621   4.083  1.00  0.00     0.241 C 
BRANCH   8   9
HETATM    9  N   UNL     1      41.737 -13.308   4.355  1.00  0.00    -0.061 N 
HETATM   10  H   UNL     1      42.588 -13.410   3.790  1.00  0.00     0.280 HD
HETATM   11  C   UNL     1      42.162 -13.003   5.770  1.00  0.00     0.236 C 
HETATM   12  C   UNL     1      41.429 -11.731   6.135  1.00  0.00     0.029 C 
HETATM   13  C   UNL     1      41.388 -10.974   4.825  1.00  0.00     0.029 C 
HETATM   14  C   UNL     1      41.082 -12.052   3.801  1.00  0.00     0.236 C 
ENDBRANCH   8   9
BRANCH   8  15
HETATM   15  C   UNL     1      41.553 -15.448   2.930  1.00  0.00     0.007 A 
HETATM   16  C   UNL     1      40.672 -16.025   1.984  1.00  0.00     0.076 A 
HETATM   17  C   UNL     1      41.171 -16.784   0.920  1.00  0.00     0.037 A 
HETATM   18  C   UNL     1      42.542 -16.991   0.787  1.00  0.00     0.003 A 
HETATM   19  C   UNL     1      43.420 -16.445   1.714  1.00  0.00     0.001 A 
HETATM   20  C   UNL     1      42.933 -15.684   2.780  1.00  0.00     0.012 A 
BRANCH  16  21
HETATM   21  O   UNL     1      39.339 -15.770   2.177  1.00  0.00    -0.355 OA
HETATM   22  C   UNL     1      38.752 -14.735   1.391  1.00  0.00     0.210 C 
ENDBRANCH  16  21
ENDBRANCH   8  15
ENDBRANCH   7   8
ENDBRANCH   3   7
BRANCH   1  23
HETATM   23  C   UNL     1      43.890 -19.166   6.548  1.00  0.00     0.086 C 
HETATM   24  C   UNL     1      43.578 -20.507   7.214  1.00  0.00     0.032 C 
BRANCH  23  25
HETATM   25  C   UNL     1      45.048 -19.312   5.537  1.00  0.00     0.063 C 
BRANCH  25  26
HETATM   26  C   UNL     1      44.698 -20.159   4.334  1.00  0.00    -0.056 A 
HETATM   27  C   UNL     1      44.894 -21.547   4.351  1.00  0.00     0.010 A 
HETATM   28  C   UNL     1      44.579 -22.319   3.230  1.00  0.00     0.037 A 
HETATM   29  C   UNL     1      44.066 -21.701   2.094  1.00  0.00     0.065 A 
HETATM   30  C   UNL     1      43.864 -20.327   2.062  1.00  0.00     0.037 A 
HETATM   31  C   UNL     1      44.176 -19.557   3.181  1.00  0.00     0.010 A 
BRANCH  29  32
HETATM   32  O   UNL     1      43.744 -22.414   0.979  1.00  0.00    -0.361 OA
HETATM   33  H   UNL     1      42.804 -22.272   0.777  1.00  0.00     0.217 HD
ENDBRANCH  29  32
ENDBRANCH  25  26
ENDBRANCH  23  25
ENDBRANCH   1  23
TORSDOF 9
ENDMDL
MODEL 3
REMARK VINA RESULT:      -8.2      3.489      7.294
REMARK  9 active torsions:
REMARK  status: ('A' for Active; 'I' for Inactive)
REMARK    1  A    between atoms: C_2  and  N_3 
REMARK    2  A    between atoms: C_2  and  C_23 
REMARK       I    between atoms: N_3  and  C_4 
REMARK       I    between atoms: C_4  and  N_5 
REMARK    3  A    between atoms: N_5  and  C_6 
REMARK    4  A    between atoms: C_6  and  C_7 
REMARK    5  A    between atoms: C_7  and  N_8 
REMARK    6  A    between atoms: C_7  and  C_14 
REMARK    7  A    between atoms: C_15  and  O_16 
REMARK    8  A    between atoms: C_23  and  C_24 
REMARK    9  A    between atoms: C_27  and  O_28 
ROOT
HETATM    1  N   UNL     1      42.582 -18.226   6.193  1.00  0.00    -0.339 N 
HETATM    2  C   UNL     1      42.346 -16.905   5.938  1.00  0.00     0.316 C 
HETATM    3  N   UNL     1      41.109 -16.704   5.374  1.00  0.00    -0.341 N 
HETATM    4  O   UNL     1      43.164 -16.005   6.069  1.00  0.00    -0.248 OA
HETATM    5  H   UNL     1      41.779 -18.771   6.469  1.00  0.00     0.164 HD
HETATM    6  H   UNL     1      40.432 -17.415   5.616  1.00  0.00     0.164 HD
ENDROOT
BRANCH   3   7
HETATM    7  C   UNL     1      40.585 -15.351   5.246  1.00  0.00     0.162 C 
BRANCH   7   8
HETATM    8  C   UNL     1      40.084 -14.879   3.833  1.00  0.00     0.241 C 
BRANCH   8   9
HETATM    9  N   UNL     1      40.135 -13.344   3.636  1.00  0.00    -0.061 N 
HETATM   10  H   UNL     1      41.054 -13.188   3.205  1.00  0.00     0.280 HD
HETATM   11  C   UNL     1      40.046 -12.458   4.854  1.00  0.00     0.236 C 
HETATM   12  C   UNL     1      38.776 -11.658   4.664  1.00  0.00     0.029 C 
HETATM   13  C   UNL     1      38.723 -11.454   3.166  1.00  0.00     0.029 C 
HETATM   14  C   UNL     1      39.156 -12.798   2.610  1.00  0.00     0.236 C 
ENDBRANCH   8   9
BRANCH   8  15
HETATM   15  C   UNL     1      40.822 -15.659   2.733  1.00  0.00     0.007 A 
HETATM   16  C   UNL     1      42.086 -15.194   2.299  1.00  0.00     0.076 A 
HETATM   17  C   UNL     1      42.788 -15.878   1.300  1.00  0.00     0.037 A 
HETATM   18  C   UNL     1      42.246 -17.018   0.714  1.00  0.00     0.003 A 
HETATM   19  C   UNL     1      41.000 -17.480   1.118  1.00  0.00     0.001 A 
HETATM   20  C   UNL     1      40.290 -16.807   2.115  1.00  0.00     0.012 A 
BRANCH  16  21
HETATM   21  O   UNL     1      42.557 -14.072   2.928  1.00  0.00    -0.355 OA
HETATM   22  C   UNL     1      43.887 -14.121   3.442  1.00  0.00     0.210 C 
ENDBRANCH  16  21
ENDBRANCH   8  15
ENDBRANCH   7   8
ENDBRANCH   3   7
BRANCH   1  23
HETATM   23  C   UNL     1      43.860 -18.726   6.714  1.00  0.00     0.086 C 
HETATM   24  C   UNL     1      43.679 -20.082   7.399  1.00  0.00     0.032 C 
BRANCH  23  25
HETATM   25  C   UNL     1      44.994 -18.787   5.667  1.00  0.00     0.063 C 
BRANCH  25  26
HETATM   26  C   UNL     1      44.689 -19.696   4.498  1.00  0.00    -0.056 A 
HETATM   27  C   UNL     1      44.095 -19.192   3.332  1.00  0.00     0.010 A 
HETATM   28  C   UNL     1      43.806 -20.043   2.262  1.00  0.00     0.037 A 
HETATM   29  C   UNL     1      44.112 -21.396   2.360  1.00  0.00     0.065 A 
HETATM   30  C   UNL     1      44.702 -21.911   3.507  1.00  0.00     0.037 A 
HETATM   31  C   UNL     1      44.993 -21.062   4.574  1.00  0.00     0.010 A 
BRANCH  29  32
HETATM   32  O   UNL     1      43.848 -22.262   1.341  1.00  0.00    -0.361 OA
HETATM   33  H   UNL     1      43.869 -21.773   0.502  1.00  0.00     0.217 HD
ENDBRANCH  29  32
ENDBRANCH  25  26
ENDBRANCH  23  25
ENDBRANCH   1  23
TORSDOF 9
ENDMDL
MODEL 4
REMARK VINA RESULT:      -8.1      1.805      3.619
REMARK  9 active torsions:
REMARK  status: ('A' for Active; 'I' for Inactive)
REMARK    1  A    between atoms: C_2  and  N_3 
REMARK    2  A    between atoms: C_2  and  C_23 
REMARK       I    between atoms: N_3  and  C_4 
REMARK       I    between atoms: C_4  and  N_5 
REMARK    3  A    between atoms: N_5  and  C_6 
REMARK    4  A    between atoms: C_6  and  C_7 
REMARK    5  A    between atoms: C_7  and  N_8 
REMARK    6  A    between atoms: C_7  and  C_14 
REMARK    7  A    between atoms: C_15  and  O_16 
REMARK    8  A    between atoms: C_23  and  C_24 
REMARK    9  A    between atoms: C_27  and  O_28 
ROOT
HETATM    1  N   UNL     1      38.254 -14.613   1.142  1.00  0.00    -0.339 N 
HETATM    2  C   UNL     1      39.158 -14.231   2.094  1.00  0.00     0.316 C 
HETATM    3  N   UNL     1      39.424 -15.243   2.984  1.00  0.00    -0.341 N 
HETATM    4  O   UNL     1      39.596 -13.098   2.233  1.00  0.00    -0.248 OA
HETATM    5  H   UNL     1      38.306 -15.578   0.850  1.00  0.00     0.164 HD
HETATM    6  H   UNL     1      39.289 -16.169   2.601  1.00  0.00     0.164 HD
ENDROOT
BRANCH   3   7
HETATM    7  C   UNL     1      40.528 -15.105   3.925  1.00  0.00     0.162 C 
BRANCH   7   8
HETATM    8  C   UNL     1      41.606 -16.247   3.977  1.00  0.00     0.241 C 
BRANCH   8   9
HETATM    9  N   UNL     1      42.180 -16.625   2.590  1.00  0.00    -0.061 N 
HETATM   10  H   UNL     1      41.640 -16.042   1.940  1.00  0.00     0.280 HD
HETATM   11  C   UNL     1      42.061 -18.055   2.126  1.00  0.00     0.236 C 
HETATM   12  C   UNL     1      43.488 -18.541   1.982  1.00  0.00     0.029 C 
HETATM   13  C   UNL     1      44.222 -17.304   1.514  1.00  0.00     0.029 C 
HETATM   14  C   UNL     1      43.619 -16.193   2.353  1.00  0.00     0.236 C 
ENDBRANCH   8   9
BRANCH   8  15
HETATM   15  C   UNL     1      42.689 -15.893   5.009  1.00  0.00     0.007 A 
HETATM   16  C   UNL     1      43.325 -16.942   5.716  1.00  0.00     0.076 A 
HETATM   17  C   UNL     1      44.316 -16.660   6.663  1.00  0.00     0.037 A 
HETATM   18  C   UNL     1      44.681 -15.343   6.928  1.00  0.00     0.003 A 
HETATM   19  C   UNL     1      44.057 -14.300   6.254  1.00  0.00     0.001 A 
HETATM   20  C   UNL     1      43.067 -14.570   5.306  1.00  0.00     0.012 A 
BRANCH  16  21
HETATM   21  O   UNL     1      42.919 -18.211   5.394  1.00  0.00    -0.355 OA
HETATM   22  C   UNL     1      43.554 -19.292   6.074  1.00  0.00     0.210 C 
ENDBRANCH  16  21
ENDBRANCH   8  15
ENDBRANCH   7   8
ENDBRANCH   3   7
BRANCH   1  23
HETATM   23  C   UNL     1      37.730 -13.699   0.122  1.00  0.00     0.086 C 
HETATM   24  C   UNL     1      37.079 -12.474   0.767  1.00  0.00     0.032 C 
BRANCH  23  25
HETATM   25  C   UNL     1      38.762 -13.274  -0.945  1.00  0.00     0.063 C 
BRANCH  25  26
HETATM   26  C   UNL     1      38.832 -14.216  -2.126  1.00  0.00    -0.056 A 
HETATM   27  C   UNL     1      40.027 -14.871  -2.453  1.00  0.00     0.010 A 
HETATM   28  C   UNL     1      40.085 -15.729  -3.554  1.00  0.00     0.037 A 
HETATM   29  C   UNL     1      38.945 -15.929  -4.327  1.00  0.00     0.065 A 
HETATM   30  C   UNL     1      37.753 -15.289  -4.016  1.00  0.00     0.037 A 
HETATM   31  C   UNL     1      37.695 -14.435  -2.916  1.00  0.00     0.010 A 
BRANCH  29  32
HETATM   32  O   UNL     1      38.956 -16.758  -5.409  1.00  0.00    -0.361 OA
HETATM   33  H   UNL     1      38.689 -17.648  -5.125  1.00  0.00     0.217 HD
ENDBRANCH  29  32
ENDBRANCH  25  26
ENDBRANCH  23  25
ENDBRANCH   1  23
TORSDOF 9
ENDMDL
MODEL 5
REMARK VINA RESULT:      -8.0      1.943      8.759
REMARK  9 active torsions:
REMARK  status: ('A' for Active; 'I' for Inactive)
REMARK    1  A    between atoms: C_2  and  N_3 
REMARK    2  A    between atoms: C_2  and  C_23 
REMARK       I    between atoms: N_3  and  C_4 
REMARK       I    between atoms: C_4  and  N_5 
REMARK    3  A    between atoms: N_5  and  C_6 
REMARK    4  A    between atoms: C_6  and  C_7 
REMARK    5  A    between atoms: C_7  and  N_8 
REMARK    6  A    between atoms: C_7  and  C_14 
REMARK    7  A    between atoms: C_15  and  O_16 
REMARK    8  A    between atoms: C_23  and  C_24 
REMARK    9  A    between atoms: C_27  and  O_28 
ROOT
HETATM    1  N   UNL     1      43.609 -18.861   1.645  1.00  0.00    -0.339 N 
HETATM    2  C   UNL     1      42.939 -17.702   1.919  1.00  0.00     0.316 C 
HETATM    3  N   UNL     1      43.183 -16.733   0.976  1.00  0.00    -0.341 N 
HETATM    4  O   UNL     1      42.294 -17.485   2.935  1.00  0.00    -0.248 OA
HETATM    5  H   UNL     1      43.716 -19.086   0.667  1.00  0.00     0.164 HD
HETATM    6  H   UNL     1      43.428 -17.102   0.067  1.00  0.00     0.164 HD
ENDROOT
BRANCH   3   7
HETATM    7  C   UNL     1      42.382 -15.515   0.968  1.00  0.00     0.162 C 
BRANCH   7   8
HETATM    8  C   UNL     1      41.247 -15.381  -0.110  1.00  0.00     0.241 C 
BRANCH   8   9
HETATM    9  N   UNL     1      39.840 -15.147   0.494  1.00  0.00    -0.061 N 
HETATM   10  H   UNL     1      39.355 -16.036   0.320  1.00  0.00     0.280 HD
HETATM   11  C   UNL     1      38.987 -14.042  -0.076  1.00  0.00     0.236 C 
HETATM   12  C   UNL     1      38.785 -13.073   1.069  1.00  0.00     0.029 C 
HETATM   13  C   UNL     1      38.722 -13.982   2.276  1.00  0.00     0.029 C 
HETATM   14  C   UNL     1      39.809 -15.007   2.007  1.00  0.00     0.236 C 
ENDBRANCH   8   9
BRANCH   8  15
HETATM   15  C   UNL     1      41.644 -14.326  -1.155  1.00  0.00     0.007 A 
HETATM   16  C   UNL     1      41.345 -14.570  -2.517  1.00  0.00     0.076 A 
HETATM   17  C   UNL     1      41.690 -13.633  -3.498  1.00  0.00     0.037 A 
HETATM   18  C   UNL     1      42.343 -12.455  -3.146  1.00  0.00     0.003 A 
HETATM   19  C   UNL     1      42.658 -12.206  -1.816  1.00  0.00     0.001 A 
HETATM   20  C   UNL     1      42.316 -13.133  -0.828  1.00  0.00     0.012 A 
BRANCH  16  21
HETATM   21  O   UNL     1      40.694 -15.746  -2.783  1.00  0.00    -0.355 OA
HETATM   22  C   UNL     1      39.539 -15.679  -3.617  1.00  0.00     0.210 C 
ENDBRANCH  16  21
ENDBRANCH   8  15
ENDBRANCH   7   8
ENDBRANCH   3   7
BRANCH   1  23
HETATM   23  C   UNL     1      43.594 -20.026   2.536  1.00  0.00     0.086 C 
HETATM   24  C   UNL     1      43.437 -21.323   1.739  1.00  0.00     0.032 C 
BRANCH  23  25
HETATM   25  C   UNL     1      44.803 -20.113   3.493  1.00  0.00     0.063 C 
BRANCH  25  26
HETATM   26  C   UNL     1      44.496 -19.646   4.898  1.00  0.00    -0.056 A 
HETATM   27  C   UNL     1      43.978 -20.533   5.853  1.00  0.00     0.010 A 
HETATM   28  C   UNL     1      43.686 -20.089   7.145  1.00  0.00     0.037 A 
HETATM   29  C   UNL     1      43.913 -18.758   7.479  1.00  0.00     0.065 A 
HETATM   30  C   UNL     1      44.427 -17.867   6.546  1.00  0.00     0.037 A 
HETATM   31  C   UNL     1      44.720 -18.310   5.258  1.00  0.00     0.010 A 
BRANCH  29  32
HETATM   32  O   UNL     1      43.643 -18.281   8.727  1.00  0.00    -0.361 OA
HETATM   33  H   UNL     1      43.764 -19.000   9.370  1.00  0.00     0.217 HD
ENDBRANCH  29  32
ENDBRANCH  25  26
ENDBRANCH  23  25
ENDBRANCH   1  23
TORSDOF 9
ENDMDL
MODEL 6
REMARK VINA RESULT:      -8.0      2.189      7.961
REMARK  9 active torsions:
REMARK  status: ('A' for Active; 'I' for Inactive)
REMARK    1  A    between atoms: C_2  and  N_3 
REMARK    2  A    between atoms: C_2  and  C_23 
REMARK       I    between atoms: N_3  and  C_4 
REMARK       I    between atoms: C_4  and  N_5 
REMARK    3  A    between atoms: N_5  and  C_6 
REMARK    4  A    between atoms: C_6  and  C_7 
REMARK    5  A    between atoms: C_7  and  N_8 
REMARK    6  A    between atoms: C_7  and  C_14 
REMARK    7  A    between atoms: C_15  and  O_16 
REMARK    8  A    between atoms: C_23  and  C_24 
REMARK    9  A    between atoms: C_27  and  O_28 
ROOT
HETATM    1  N   UNL     1      43.348 -18.107   1.664  1.00  0.00    -0.339 N 
HETATM    2  C   UNL     1      42.216 -17.456   1.261  1.00  0.00     0.316 C 
HETATM    3  N   UNL     1      42.469 -16.573   0.238  1.00  0.00    -0.341 N 
HETATM    4  O   UNL     1      41.124 -17.538   1.805  1.00  0.00    -0.248 OA
HETATM    5  H   UNL     1      44.019 -18.312   0.940  1.00  0.00     0.164 HD
HETATM    6  H   UNL     1      43.270 -16.823  -0.325  1.00  0.00     0.164 HD
ENDROOT
BRANCH   3   7
HETATM    7  C   UNL     1      41.358 -15.962  -0.479  1.00  0.00     0.162 C 
BRANCH   7   8
HETATM    8  C   UNL     1      41.281 -14.393  -0.531  1.00  0.00     0.241 C 
BRANCH   8   9
HETATM    9  N   UNL     1      40.390 -13.852  -1.676  1.00  0.00    -0.061 N 
HETATM   10  H   UNL     1      41.014 -13.213  -2.183  1.00  0.00     0.280 HD
HETATM   11  C   UNL     1      39.143 -13.082  -1.315  1.00  0.00     0.236 C 
HETATM   12  C   UNL     1      38.001 -13.907  -1.867  1.00  0.00     0.029 C 
HETATM   13  C   UNL     1      38.586 -14.498  -3.130  1.00  0.00     0.029 C 
HETATM   14  C   UNL     1      39.997 -14.881  -2.723  1.00  0.00     0.236 C 
ENDBRANCH   8   9
BRANCH   8  15
HETATM   15  C   UNL     1      40.895 -13.846   0.852  1.00  0.00     0.007 A 
HETATM   16  C   UNL     1      41.546 -12.683   1.331  1.00  0.00     0.076 A 
HETATM   17  C   UNL     1      41.221 -12.154   2.584  1.00  0.00     0.037 A 
HETATM   18  C   UNL     1      40.262 -12.772   3.382  1.00  0.00     0.003 A 
HETATM   19  C   UNL     1      39.623 -13.922   2.935  1.00  0.00     0.001 A 
HETATM   20  C   UNL     1      39.938 -14.458   1.683  1.00  0.00     0.012 A 
BRANCH  16  21
HETATM   21  O   UNL     1      42.471 -12.127   0.486  1.00  0.00    -0.355 OA
HETATM   22  C   UNL     1      42.181 -10.834  -0.040  1.00  0.00     0.210 C 
ENDBRANCH  16  21
ENDBRANCH   8  15
ENDBRANCH   7   8
ENDBRANCH   3   7
BRANCH   1  23
HETATM   23  C   UNL     1      43.375 -19.040   2.796  1.00  0.00     0.086 C 
HETATM   24  C   UNL     1      44.164 -20.303   2.446  1.00  0.00     0.032 C 
BRANCH  23  25
HETATM   25  C   UNL     1      43.884 -18.424   4.118  1.00  0.00     0.063 C 
BRANCH  25  26
HETATM   26  C   UNL     1      42.905 -17.462   4.753  1.00  0.00    -0.056 A 
HETATM   27  C   UNL     1      41.711 -17.925   5.324  1.00  0.00     0.010 A 
HETATM   28  C   UNL     1      40.808 -17.027   5.897  1.00  0.00     0.037 A 
HETATM   29  C   UNL     1      41.101 -15.667   5.898  1.00  0.00     0.065 A 
HETATM   30  C   UNL     1      42.280 -15.192   5.339  1.00  0.00     0.037 A 
HETATM   31  C   UNL     1      43.182 -16.088   4.769  1.00  0.00     0.010 A 
BRANCH  29  32
HETATM   32  O   UNL     1      40.249 -14.755   6.447  1.00  0.00    -0.361 OA
HETATM   33  H   UNL     1      39.871 -15.130   7.260  1.00  0.00     0.217 HD
ENDBRANCH  29  32
ENDBRANCH  25  26
ENDBRANCH  23  25
ENDBRANCH   1  23
TORSDOF 9
ENDMDL
MODEL 7
REMARK VINA RESULT:      -7.9      2.693      8.621
REMARK  9 active torsions:
REMARK  status: ('A' for Active; 'I' for Inactive)
REMARK    1  A    between atoms: C_2  and  N_3 
REMARK    2  A    between atoms: C_2  and  C_23 
REMARK       I    between atoms: N_3  and  C_4 
REMARK       I    between atoms: C_4  and  N_5 
REMARK    3  A    between atoms: N_5  and  C_6 
REMARK    4  A    between atoms: C_6  and  C_7 
REMARK    5  A    between atoms: C_7  and  N_8 
REMARK    6  A    between atoms: C_7  and  C_14 
REMARK    7  A    between atoms: C_15  and  O_16 
REMARK    8  A    between atoms: C_23  and  C_24 
REMARK    9  A    between atoms: C_27  and  O_28 
ROOT
HETATM    1  N   UNL     1      42.977 -17.790   1.245  1.00  0.00    -0.339 N 
HETATM    2  C   UNL     1      41.868 -17.072   0.892  1.00  0.00     0.316 C 
HETATM    3  N   UNL     1      42.146 -16.145  -0.084  1.00  0.00    -0.341 N 
HETATM    4  O   UNL     1      40.781 -17.139   1.446  1.00  0.00    -0.248 OA
HETATM    5  H   UNL     1      43.631 -17.982   0.501  1.00  0.00     0.164 HD
HETATM    6  H   UNL     1      42.930 -16.396  -0.671  1.00  0.00     0.164 HD
ENDROOT
BRANCH   3   7
HETATM    7  C   UNL     1      41.053 -15.451  -0.752  1.00  0.00     0.162 C 
BRANCH   7   8
HETATM    8  C   UNL     1      41.411 -14.412  -1.876  1.00  0.00     0.241 C 
BRANCH   8   9
HETATM    9  N   UNL     1      40.318 -14.274  -2.965  1.00  0.00    -0.061 N 
HETATM   10  H   UNL     1      40.818 -13.841  -3.751  1.00  0.00     0.280 HD
HETATM   11  C   UNL     1      39.109 -13.423  -2.667  1.00  0.00     0.236 C 
HETATM   12  C   UNL     1      37.936 -14.379  -2.717  1.00  0.00     0.029 C 
HETATM   13  C   UNL     1      38.339 -15.356  -3.800  1.00  0.00     0.029 C 
HETATM   14  C   UNL     1      39.815 -15.590  -3.537  1.00  0.00     0.236 C 
ENDBRANCH   8   9
BRANCH   8  15
HETATM   15  C   UNL     1      41.808 -13.072  -1.237  1.00  0.00     0.007 A 
HETATM   16  C   UNL     1      42.486 -12.114  -2.030  1.00  0.00     0.076 A 
HETATM   17  C   UNL     1      42.863 -10.882  -1.485  1.00  0.00     0.037 A 
HETATM   18  C   UNL     1      42.586 -10.588  -0.153  1.00  0.00     0.003 A 
HETATM   19  C   UNL     1      41.934 -11.521   0.644  1.00  0.00     0.001 A 
HETATM   20  C   UNL     1      41.551 -12.754   0.110  1.00  0.00     0.012 A 
BRANCH  16  21
HETATM   21  O   UNL     1      42.715 -12.473  -3.332  1.00  0.00    -0.355 OA
HETATM   22  C   UNL     1      42.323 -11.547  -4.344  1.00  0.00     0.210 C 
ENDBRANCH  16  21
ENDBRANCH   8  15
ENDBRANCH   7   8
ENDBRANCH   3   7
BRANCH   1  23
HETATM   23  C   UNL     1      42.978 -18.783   2.324  1.00  0.00     0.086 C 
HETATM   24  C   UNL     1      43.623 -20.092   1.863  1.00  0.00     0.032 C 
BRANCH  23  25
HETATM   25  C   UNL     1      43.615 -18.292   3.642  1.00  0.00     0.063 C 
BRANCH  25  26
HETATM   26  C   UNL     1      42.726 -17.359   4.432  1.00  0.00    -0.056 A 
HETATM   27  C   UNL     1      41.643 -17.852   5.173  1.00  0.00     0.010 A 
HETATM   28  C   UNL     1      40.821 -16.979   5.889  1.00  0.00     0.037 A 
HETATM   29  C   UNL     1      41.083 -15.614   5.863  1.00  0.00     0.065 A 
HETATM   30  C   UNL     1      42.153 -15.108   5.136  1.00  0.00     0.037 A 
HETATM   31  C   UNL     1      42.975 -15.979   4.423  1.00  0.00     0.010 A 
BRANCH  29  32
HETATM   32  O   UNL     1      40.308 -14.726   6.547  1.00  0.00    -0.361 OA
HETATM   33  H   UNL     1      39.790 -15.211   7.213  1.00  0.00     0.217 HD
ENDBRANCH  29  32
ENDBRANCH  25  26
ENDBRANCH  23  25
ENDBRANCH   1  23
TORSDOF 9
ENDMDL
MODEL 8
REMARK VINA RESULT:      -7.9      5.538      9.624
REMARK  9 active torsions:
REMARK  status: ('A' for Active; 'I' for Inactive)
REMARK    1  A    between atoms: C_2  and  N_3 
REMARK    2  A    between atoms: C_2  and  C_23 
REMARK       I    between atoms: N_3  and  C_4 
REMARK       I    between atoms: C_4  and  N_5 
REMARK    3  A    between atoms: N_5  and  C_6 
REMARK    4  A    between atoms: C_6  and  C_7 
REMARK    5  A    between atoms: C_7  and  N_8 
REMARK    6  A    between atoms: C_7  and  C_14 
REMARK    7  A    between atoms: C_15  and  O_16 
REMARK    8  A    between atoms: C_23  and  C_24 
REMARK    9  A    between atoms: C_27  and  O_28 
ROOT
HETATM    1  N   UNL     1      44.008 -12.766   8.492  1.00  0.00    -0.339 N 
HETATM    2  C   UNL     1      44.331 -13.480   7.372  1.00  0.00     0.316 C 
HETATM    3  N   UNL     1      43.238 -13.689   6.564  1.00  0.00    -0.341 N 
HETATM    4  O   UNL     1      45.420 -13.987   7.150  1.00  0.00    -0.248 OA
HETATM    5  H   UNL     1      43.291 -12.065   8.375  1.00  0.00     0.164 HD
HETATM    6  H   UNL     1      42.521 -12.983   6.659  1.00  0.00     0.164 HD
ENDROOT
BRANCH   3   7
HETATM    7  C   UNL     1      43.425 -14.223   5.221  1.00  0.00     0.162 C 
BRANCH   7   8
HETATM    8  C   UNL     1      42.331 -15.196   4.651  1.00  0.00     0.241 C 
BRANCH   8   9
HETATM    9  N   UNL     1      41.667 -14.690   3.347  1.00  0.00    -0.061 N 
HETATM   10  H   UNL     1      42.201 -15.161   2.607  1.00  0.00     0.280 HD
HETATM   11  C   UNL     1      41.690 -13.210   3.055  1.00  0.00     0.236 C 
HETATM   12  C   UNL     1      40.236 -12.791   3.037  1.00  0.00     0.029 C 
HETATM   13  C   UNL     1      39.541 -14.003   2.456  1.00  0.00     0.029 C 
HETATM   14  C   UNL     1      40.242 -15.170   3.126  1.00  0.00     0.236 C 
ENDBRANCH   8   9
BRANCH   8  15
HETATM   15  C   UNL     1      42.910 -16.615   4.528  1.00  0.00     0.007 A 
HETATM   16  C   UNL     1      42.974 -17.427   5.686  1.00  0.00     0.076 A 
HETATM   17  C   UNL     1      43.493 -18.724   5.615  1.00  0.00     0.037 A 
HETATM   18  C   UNL     1      43.965 -19.227   4.405  1.00  0.00     0.003 A 
HETATM   19  C   UNL     1      43.924 -18.439   3.262  1.00  0.00     0.001 A 
HETATM   20  C   UNL     1      43.405 -17.143   3.321  1.00  0.00     0.012 A 
BRANCH  16  21
HETATM   21  O   UNL     1      42.483 -16.866   6.836  1.00  0.00    -0.355 OA
HETATM   22  C   UNL     1      43.248 -17.043   8.027  1.00  0.00     0.210 C 
ENDBRANCH  16  21
ENDBRANCH   8  15
ENDBRANCH   7   8
ENDBRANCH   3   7
BRANCH   1  23
HETATM   23  C   UNL     1      44.968 -12.478   9.563  1.00  0.00     0.086 C 
HETATM   24  C   UNL     1      45.756 -11.202   9.263  1.00  0.00     0.032 C 
BRANCH  23  25
HETATM   25  C   UNL     1      44.348 -12.421  10.976  1.00  0.00     0.063 C 
BRANCH  25  26
HETATM   26  C   UNL     1      43.514 -11.183  11.220  1.00  0.00    -0.056 A 
HETATM   27  C   UNL     1      43.896 -10.237  12.182  1.00  0.00     0.010 A 
HETATM   28  C   UNL     1      43.112  -9.103  12.409  1.00  0.00     0.037 A 
HETATM   29  C   UNL     1      41.947  -8.918  11.672  1.00  0.00     0.065 A 
HETATM   30  C   UNL     1      41.555  -9.844  10.714  1.00  0.00     0.037 A 
HETATM   31  C   UNL     1      42.338 -10.974  10.486  1.00  0.00     0.010 A 
BRANCH  29  32
HETATM   32  O   UNL     1      41.152  -7.827  11.859  1.00  0.00    -0.361 OA
HETATM   33  H   UNL     1      41.627  -7.037  11.550  1.00  0.00     0.217 HD
ENDBRANCH  29  32
ENDBRANCH  25  26
ENDBRANCH  23  25
ENDBRANCH   1  23
TORSDOF 9
ENDMDL
MODEL 9
REMARK VINA RESULT:      -7.9      4.134      8.642
REMARK  9 active torsions:
REMARK  status: ('A' for Active; 'I' for Inactive)
REMARK    1  A    between atoms: C_2  and  N_3 
REMARK    2  A    between atoms: C_2  and  C_23 
REMARK       I    between atoms: N_3  and  C_4 
REMARK       I    between atoms: C_4  and  N_5 
REMARK    3  A    between atoms: N_5  and  C_6 
REMARK    4  A    between atoms: C_6  and  C_7 
REMARK    5  A    between atoms: C_7  and  N_8 
REMARK    6  A    between atoms: C_7  and  C_14 
REMARK    7  A    between atoms: C_15  and  O_16 
REMARK    8  A    between atoms: C_23  and  C_24 
REMARK    9  A    between atoms: C_27  and  O_28 
ROOT
HETATM    1  N   UNL     1      44.024 -14.136   5.295  1.00  0.00    -0.339 N 
HETATM    2  C   UNL     1      42.871 -13.963   4.581  1.00  0.00     0.316 C 
HETATM    3  N   UNL     1      43.111 -13.896   3.229  1.00  0.00    -0.341 N 
HETATM    4  O   UNL     1      41.766 -13.766   5.064  1.00  0.00    -0.248 OA
HETATM    5  H   UNL     1      44.735 -14.699   4.853  1.00  0.00     0.164 HD
HETATM    6  H   UNL     1      43.947 -14.384   2.940  1.00  0.00     0.164 HD
ENDROOT
BRANCH   3   7
HETATM    7  C   UNL     1      41.994 -13.949   2.295  1.00  0.00     0.162 C 
BRANCH   7   8
HETATM    8  C   UNL     1      41.134 -15.262   2.239  1.00  0.00     0.241 C 
BRANCH   8   9
HETATM    9  N   UNL     1      40.020 -15.232   1.164  1.00  0.00    -0.061 N 
HETATM   10  H   UNL     1      39.947 -16.212   0.866  1.00  0.00     0.280 HD
HETATM   11  C   UNL     1      40.235 -14.393  -0.072  1.00  0.00     0.236 C 
HETATM   12  C   UNL     1      39.143 -13.345  -0.029  1.00  0.00     0.029 C 
HETATM   13  C   UNL     1      37.981 -14.090   0.591  1.00  0.00     0.029 C 
HETATM   14  C   UNL     1      38.631 -14.909   1.691  1.00  0.00     0.236 C 
ENDBRANCH   8   9
BRANCH   8  15
HETATM   15  C   UNL     1      42.058 -16.485   2.123  1.00  0.00     0.007 A 
HETATM   16  C   UNL     1      42.034 -17.457   3.152  1.00  0.00     0.076 A 
HETATM   17  C   UNL     1      42.860 -18.584   3.082  1.00  0.00     0.037 A 
HETATM   18  C   UNL     1      43.725 -18.756   2.004  1.00  0.00     0.003 A 
HETATM   19  C   UNL     1      43.773 -17.805   0.993  1.00  0.00     0.001 A 
HETATM   20  C   UNL     1      42.951 -16.676   1.052  1.00  0.00     0.012 A 
BRANCH  16  21
HETATM   21  O   UNL     1      41.152 -17.222   4.174  1.00  0.00    -0.355 OA
HETATM   22  C   UNL     1      41.508 -17.706   5.468  1.00  0.00     0.210 C 
ENDBRANCH  16  21
ENDBRANCH   8  15
ENDBRANCH   7   8
ENDBRANCH   3   7
BRANCH   1  23
HETATM   23  C   UNL     1      44.062 -14.153   6.761  1.00  0.00     0.086 C 
HETATM   24  C   UNL     1      43.983 -15.585   7.294  1.00  0.00     0.032 C 
BRANCH  23  25
HETATM   25  C   UNL     1      45.266 -13.405   7.376  1.00  0.00     0.063 C 
BRANCH  25  26
HETATM   26  C   UNL     1      44.879 -12.427   8.461  1.00  0.00    -0.056 A 
HETATM   27  C   UNL     1      45.754 -12.143   9.519  1.00  0.00     0.010 A 
HETATM   28  C   UNL     1      45.382 -11.247  10.524  1.00  0.00     0.037 A 
HETATM   29  C   UNL     1      44.134 -10.635  10.468  1.00  0.00     0.065 A 
HETATM   30  C   UNL     1      43.255 -10.904   9.427  1.00  0.00     0.037 A 
HETATM   31  C   UNL     1      43.628 -11.796   8.423  1.00  0.00     0.010 A 
BRANCH  29  32
HETATM   32  O   UNL     1      43.729  -9.754  11.426  1.00  0.00    -0.361 OA
HETATM   33  H   UNL     1      43.152 -10.219  12.055  1.00  0.00     0.217 HD
ENDBRANCH  29  32
ENDBRANCH  25  26
ENDBRANCH  23  25
ENDBRANCH   1  23
TORSDOF 9
ENDMDL
MODEL 10
REMARK VINA RESULT:      -7.8      2.372      8.356
REMARK  9 active torsions:
REMARK  status: ('A' for Active; 'I' for Inactive)
REMARK    1  A    between atoms: C_2  and  N_3 
REMARK    2  A    between atoms: C_2  and  C_23 
REMARK       I    between atoms: N_3  and  C_4 
REMARK       I    between atoms: C_4  and  N_5 
REMARK    3  A    between atoms: N_5  and  C_6 
REMARK    4  A    between atoms: C_6  and  C_7 
REMARK    5  A    between atoms: C_7  and  N_8 
REMARK    6  A    between atoms: C_7  and  C_14 
REMARK    7  A    between atoms: C_15  and  O_16 
REMARK    8  A    between atoms: C_23  and  C_24 
REMARK    9  A    between atoms: C_27  and  O_28 
ROOT
HETATM    1  N   UNL     1      43.316 -18.401   1.458  1.00  0.00    -0.339 N 
HETATM    2  C   UNL     1      42.286 -17.510   1.347  1.00  0.00     0.316 C 
HETATM    3  N   UNL     1      42.517 -16.580   0.361  1.00  0.00    -0.341 N 
HETATM    4  O   UNL     1      41.324 -17.449   2.098  1.00  0.00    -0.248 OA
HETATM    5  H   UNL     1      43.782 -18.645   0.597  1.00  0.00     0.164 HD
HETATM    6  H   UNL     1      43.128 -16.909  -0.373  1.00  0.00     0.164 HD
ENDROOT
BRANCH   3   7
HETATM    7  C   UNL     1      41.439 -15.696  -0.064  1.00  0.00     0.162 C 
BRANCH   7   8
HETATM    8  C   UNL     1      41.640 -14.147   0.103  1.00  0.00     0.241 C 
BRANCH   8   9
HETATM    9  N   UNL     1      41.270 -13.332  -1.161  1.00  0.00    -0.061 N 
HETATM   10  H   UNL     1      40.822 -12.490  -0.780  1.00  0.00     0.280 HD
HETATM   11  C   UNL     1      40.319 -13.945  -2.159  1.00  0.00     0.236 C 
HETATM   12  C   UNL     1      41.123 -14.081  -3.434  1.00  0.00     0.029 C 
HETATM   13  C   UNL     1      42.028 -12.869  -3.397  1.00  0.00     0.029 C 
HETATM   14  C   UNL     1      42.456 -12.790  -1.942  1.00  0.00     0.236 C 
ENDBRANCH   8   9
BRANCH   8  15
HETATM   15  C   UNL     1      40.922 -13.662   1.372  1.00  0.00     0.007 A 
HETATM   16  C   UNL     1      41.609 -13.724   2.609  1.00  0.00     0.076 A 
HETATM   17  C   UNL     1      40.989 -13.291   3.786  1.00  0.00     0.037 A 
HETATM   18  C   UNL     1      39.684 -12.805   3.757  1.00  0.00     0.003 A 
HETATM   19  C   UNL     1      38.990 -12.752   2.554  1.00  0.00     0.001 A 
HETATM   20  C   UNL     1      39.600 -13.180   1.372  1.00  0.00     0.012 A 
BRANCH  16  21
HETATM   21  O   UNL     1      42.891 -14.205   2.556  1.00  0.00    -0.355 OA
HETATM   22  C   UNL     1      43.735 -13.936   3.674  1.00  0.00     0.210 C 
ENDBRANCH  16  21
ENDBRANCH   8  15
ENDBRANCH   7   8
ENDBRANCH   3   7
BRANCH   1  23
HETATM   23  C   UNL     1      43.366 -19.444   2.488  1.00  0.00     0.086 C 
HETATM   24  C   UNL     1      43.289 -20.838   1.861  1.00  0.00     0.032 C 
BRANCH  23  25
HETATM   25  C   UNL     1      44.574 -19.339   3.445  1.00  0.00     0.063 C 
BRANCH  25  26
HETATM   26  C   UNL     1      44.217 -18.801   4.812  1.00  0.00    -0.056 A 
HETATM   27  C   UNL     1      45.194 -18.663   5.808  1.00  0.00     0.010 A 
HETATM   28  C   UNL     1      44.851 -18.176   7.072  1.00  0.00     0.037 A 
HETATM   29  C   UNL     1      43.531 -17.829   7.337  1.00  0.00     0.065 A 
HETATM   30  C   UNL     1      42.550 -17.959   6.362  1.00  0.00     0.037 A 
HETATM   31  C   UNL     1      42.893 -18.441   5.100  1.00  0.00     0.010 A 
BRANCH  29  32
HETATM   32  O   UNL     1      43.151 -17.351   8.556  1.00  0.00    -0.361 OA
HETATM   33  H   UNL     1      43.841 -16.750   8.884  1.00  0.00     0.217 HD
ENDBRANCH  29  32
ENDBRANCH  25  26
ENDBRANCH  23  25
ENDBRANCH   1  23
TORSDOF 9
ENDMDL
