MODEL 1
REMARK VINA RESULT:      -8.1      0.000      0.000
REMARK  9 active torsions:
REMARK  status: ('A' for Active; 'I' for Inactive)
REMARK    1  A    between atoms: C_4  and  C_5 
REMARK    2  A    between atoms: C_7  and  C_8 
REMARK    3  A    between atoms: C_8  and  C_9 
REMARK       I    between atoms: C_9  and  N_10 
REMARK    4  A    between atoms: N_10  and  C_11 
REMARK    5  A    between atoms: C_11  and  C_12 
REMARK    6  A    between atoms: C_12  and  N_13 
REMARK    7  A    between atoms: C_27  and  C_28 
REMARK    8  A    between atoms: C_28  and  O_29 
REMARK    9  A    between atoms: O_29  and  C_30 
ROOT
HETATM    1  C   UNL     1      41.075 -14.490   4.332  1.00  0.00     0.166 C 
HETATM    2  N   UNL     1      40.755 -13.054   4.229  1.00  0.00    -0.319 N 
HETATM    3  C   UNL     1      40.184 -12.202   5.012  1.00  0.00     0.011 C 
HETATM    4  C   UNL     1      41.284 -12.387   2.941  1.00  0.00     0.170 C 
HETATM    5  S   UNL     1      41.178 -10.661   3.025  1.00  0.00    -0.086 SA
HETATM    6  C   UNL     1      40.156 -10.772   4.521  1.00  0.00     0.135 C 
HETATM    7  N   UNL     1      41.709 -13.016   1.905  1.00  0.00    -0.229 NA
HETATM    8  C   UNL     1      41.581 -14.390   1.877  1.00  0.00     0.048 C 
HETATM    9  C   UNL     1      41.737 -14.971   0.489  1.00  0.00     0.071 C 
HETATM   10  C   UNL     1      41.258 -15.114   2.972  1.00  0.00     0.069 C 
ENDROOT
BRANCH   3  11
HETATM   11  C   UNL     1      39.528 -12.604   6.300  1.00  0.00     0.156 C 
BRANCH  11  12
HETATM   12  C   UNL     1      39.683 -11.551   7.383  1.00  0.00     0.223 C 
HETATM   13  N   UNL     1      40.932 -11.467   7.937  1.00  0.00    -0.359 N 
HETATM   14  H   UNL     1      41.599 -12.200   7.700  1.00  0.00     0.162 HD
HETATM   15  O   UNL     1      38.749 -10.821   7.704  1.00  0.00    -0.273 OA
BRANCH  13  16
HETATM   16  C   UNL     1      41.317 -10.687   9.119  1.00  0.00     0.150 C 
BRANCH  16  17
HETATM   17  C   UNL     1      40.695 -11.044  10.487  1.00  0.00     0.254 C 
BRANCH  17  18
HETATM   18  N   UNL     1      41.648 -10.889  11.661  1.00  0.00    -0.070 N 
HETATM   19  H   UNL     1      42.014 -11.844  11.853  1.00  0.00     0.279 HD
HETATM   20  C   UNL     1      42.830  -9.986  11.380  1.00  0.00     0.235 C 
HETATM   21  C   UNL     1      43.765  -9.961  12.581  1.00  0.00     0.028 C 
HETATM   22  C   UNL     1      43.042  -9.529  13.848  1.00  0.00     0.003 C 
HETATM   23  C   UNL     1      41.827 -10.410  14.101  1.00  0.00     0.028 C 
HETATM   24  C   UNL     1      40.894 -10.441  12.899  1.00  0.00     0.235 C 
ENDBRANCH  17  18
ENDBRANCH  16  17
ENDBRANCH  13  16
ENDBRANCH  11  12
ENDBRANCH   3  11
BRANCH   1  25
HETATM   25  C   UNL     1      42.285 -14.726   5.242  1.00  0.00    -0.030 A 
HETATM   26  C   UNL     1      42.306 -15.704   6.260  1.00  0.00     0.016 A 
HETATM   27  C   UNL     1      43.441 -15.893   7.064  1.00  0.00    -0.061 A 
HETATM   28  C   UNL     1      43.458 -16.938   8.144  1.00  0.00     0.048 C 
HETATM   29  C   UNL     1      44.542 -15.050   6.899  1.00  0.00     0.007 A 
HETATM   30  C   UNL     1      44.526 -14.055   5.924  1.00  0.00     0.001 A 
HETATM   31  C   UNL     1      43.413 -13.899   5.097  1.00  0.00     0.009 A 
ENDBRANCH   1  25
BRANCH  10  32
HETATM   32  C   UNL     1      40.895 -16.555   2.957  1.00  0.00     0.294 C 
HETATM   33  O   UNL     1      39.881 -16.921   2.382  1.00  0.00    -0.259 OA
BRANCH  32  34
HETATM   34  O   UNL     1      41.773 -17.317   3.629  1.00  0.00    -0.313 OA
BRANCH  34  35
HETATM   35  C   UNL     1      43.094 -17.554   3.081  1.00  0.00     0.124 C 
HETATM   36  C   UNL     1      44.024 -18.203   4.098  1.00  0.00     0.040 C 
HETATM   37  C   UNL     1      43.035 -18.311   1.756  1.00  0.00     0.040 C 
ENDBRANCH  34  35
ENDBRANCH  32  34
ENDBRANCH  10  32
TORSDOF 9
ENDMDL
MODEL 2
REMARK VINA RESULT:      -8.0      2.602      4.636
REMARK  9 active torsions:
REMARK  status: ('A' for Active; 'I' for Inactive)
REMARK    1  A    between atoms: C_4  and  C_5 
REMARK    2  A    between atoms: C_7  and  C_8 
REMARK    3  A    between atoms: C_8  and  C_9 
REMARK       I    between atoms: C_9  and  N_10 
REMARK    4  A    between atoms: N_10  and  C_11 
REMARK    5  A    between atoms: C_11  and  C_12 
REMARK    6  A    between atoms: C_12  and  N_13 
REMARK    7  A    between atoms: C_27  and  C_28 
REMARK    8  A    between atoms: C_28  and  O_29 
REMARK    9  A    between atoms: O_29  and  C_30 
ROOT
HETATM    1  C   UNL     1      42.326 -14.000   4.631  1.00  0.00     0.166 C 
HETATM    2  N   UNL     1      42.879 -14.910   5.652  1.00  0.00    -0.319 N 
HETATM    3  C   UNL     1      43.799 -14.800   6.550  1.00  0.00     0.011 C 
HETATM    4  C   UNL     1      42.156 -16.272   5.733  1.00  0.00     0.170 C 
HETATM    5  S   UNL     1      42.617 -17.156   7.148  1.00  0.00    -0.086 SA
HETATM    6  C   UNL     1      43.969 -15.989   7.468  1.00  0.00     0.135 C 
HETATM    7  N   UNL     1      41.348 -16.732   4.847  1.00  0.00    -0.229 NA
HETATM    8  C   UNL     1      41.192 -16.023   3.673  1.00  0.00     0.048 C 
HETATM    9  C   UNL     1      40.549 -16.835   2.571  1.00  0.00     0.071 C 
HETATM   10  C   UNL     1      41.657 -14.762   3.516  1.00  0.00     0.069 C 
ENDROOT
BRANCH   3  11
HETATM   11  C   UNL     1      44.693 -13.599   6.645  1.00  0.00     0.156 C 
BRANCH  11  12
HETATM   12  C   UNL     1      44.746 -13.026   8.051  1.00  0.00     0.223 C 
HETATM   13  N   UNL     1      43.665 -12.266   8.410  1.00  0.00    -0.359 N 
HETATM   14  H   UNL     1      43.002 -12.021   7.676  1.00  0.00     0.162 HD
HETATM   15  O   UNL     1      45.689 -13.261   8.802  1.00  0.00    -0.273 OA
BRANCH  13  16
HETATM   16  C   UNL     1      43.534 -11.441   9.615  1.00  0.00     0.150 C 
BRANCH  16  17
HETATM   17  C   UNL     1      42.162 -10.813   9.948  1.00  0.00     0.254 C 
BRANCH  17  18
HETATM   18  N   UNL     1      42.037 -10.319  11.381  1.00  0.00    -0.070 N 
HETATM   19  H   UNL     1      41.521  -9.418  11.323  1.00  0.00     0.279 HD
HETATM   20  C   UNL     1      41.256 -11.246  12.286  1.00  0.00     0.235 C 
HETATM   21  C   UNL     1      41.115 -10.628  13.670  1.00  0.00     0.028 C 
HETATM   22  C   UNL     1      42.470 -10.294  14.277  1.00  0.00     0.003 C 
HETATM   23  C   UNL     1      43.273  -9.400  13.341  1.00  0.00     0.028 C 
HETATM   24  C   UNL     1      43.408 -10.013  11.956  1.00  0.00     0.235 C 
ENDBRANCH  17  18
ENDBRANCH  16  17
ENDBRANCH  13  16
ENDBRANCH  11  12
ENDBRANCH   3  11
BRANCH   1  25
HETATM   25  C   UNL     1      41.393 -12.961   5.260  1.00  0.00    -0.030 A 
HETATM   26  C   UNL     1      41.742 -11.602   5.414  1.00  0.00     0.016 A 
HETATM   27  C   UNL     1      40.850 -10.682   5.987  1.00  0.00    -0.061 A 
HETATM   28  C   UNL     1      41.228  -9.236   6.145  1.00  0.00     0.048 C 
HETATM   29  C   UNL     1      39.624 -11.135   6.477  1.00  0.00     0.007 A 
HETATM   30  C   UNL     1      39.276 -12.479   6.367  1.00  0.00     0.001 A 
HETATM   31  C   UNL     1      40.146 -13.383   5.757  1.00  0.00     0.009 A 
ENDBRANCH   1  25
BRANCH  10  32
HETATM   32  C   UNL     1      41.713 -14.037   2.221  1.00  0.00     0.294 C 
HETATM   33  O   UNL     1      42.742 -13.469   1.885  1.00  0.00    -0.259 OA
BRANCH  32  34
HETATM   34  O   UNL     1      40.551 -14.088   1.549  1.00  0.00    -0.313 OA
BRANCH  34  35
HETATM   35  C   UNL     1      39.381 -13.415   2.075  1.00  0.00     0.124 C 
HETATM   36  C   UNL     1      39.594 -11.911   2.193  1.00  0.00     0.040 C 
HETATM   37  C   UNL     1      38.115 -13.781   1.303  1.00  0.00     0.040 C 
ENDBRANCH  34  35
ENDBRANCH  32  34
ENDBRANCH  10  32
TORSDOF 9
ENDMDL
MODEL 3
REMARK VINA RESULT:      -7.8      4.818      8.188
REMARK  9 active torsions:
REMARK  status: ('A' for Active; 'I' for Inactive)
REMARK    1  A    between atoms: C_4  and  C_5 
REMARK    2  A    between atoms: C_7  and  C_8 
REMARK    3  A    between atoms: C_8  and  C_9 
REMARK       I    between atoms: C_9  and  N_10 
REMARK    4  A    between atoms: N_10  and  C_11 
REMARK    5  A    between atoms: C_11  and  C_12 
REMARK    6  A    between atoms: C_12  and  N_13 
REMARK    7  A    between atoms: C_27  and  C_28 
REMARK    8  A    between atoms: C_28  and  O_29 
REMARK    9  A    between atoms: O_29  and  C_30 
ROOT
HETATM    1  C   UNL     1      40.451 -14.301   0.614  1.00  0.00     0.166 C 
HETATM    2  N   UNL     1      41.433 -14.546   1.687  1.00  0.00    -0.319 N 
HETATM    3  C   UNL     1      42.310 -15.466   1.909  1.00  0.00     0.011 C 
HETATM    4  C   UNL     1      41.497 -13.423   2.745  1.00  0.00     0.170 C 
HETATM    5  S   UNL     1      42.876 -13.596   3.777  1.00  0.00    -0.086 SA
HETATM    6  C   UNL     1      43.191 -15.258   3.120  1.00  0.00     0.135 C 
HETATM    7  N   UNL     1      40.621 -12.496   2.890  1.00  0.00    -0.229 NA
HETATM    8  C   UNL     1      39.470 -12.559   2.130  1.00  0.00     0.048 C 
HETATM    9  C   UNL     1      38.364 -11.670   2.655  1.00  0.00     0.071 C 
HETATM   10  C   UNL     1      39.334 -13.403   1.082  1.00  0.00     0.069 C 
ENDROOT
BRANCH   3  11
HETATM   11  C   UNL     1      42.414 -16.702   1.065  1.00  0.00     0.156 C 
BRANCH  11  12
HETATM   12  C   UNL     1      43.613 -17.557   1.434  1.00  0.00     0.223 C 
HETATM   13  N   UNL     1      43.317 -18.719   2.096  1.00  0.00    -0.359 N 
HETATM   14  H   UNL     1      42.359 -18.841   2.420  1.00  0.00     0.162 HD
HETATM   15  O   UNL     1      44.755 -17.224   1.127  1.00  0.00    -0.273 OA
BRANCH  13  16
HETATM   16  C   UNL     1      44.270 -19.631   2.737  1.00  0.00     0.150 C 
BRANCH  16  17
HETATM   17  C   UNL     1      44.283 -19.740   4.278  1.00  0.00     0.254 C 
BRANCH  17  18
HETATM   18  N   UNL     1      43.875 -18.461   4.992  1.00  0.00    -0.070 N 
HETATM   19  H   UNL     1      43.967 -17.704   4.286  1.00  0.00     0.279 HD
HETATM   20  C   UNL     1      42.446 -18.463   5.491  1.00  0.00     0.235 C 
HETATM   21  C   UNL     1      42.109 -17.116   6.114  1.00  0.00     0.028 C 
HETATM   22  C   UNL     1      43.073 -16.758   7.236  1.00  0.00     0.003 C 
HETATM   23  C   UNL     1      44.513 -16.805   6.742  1.00  0.00     0.028 C 
HETATM   24  C   UNL     1      44.849 -18.148   6.113  1.00  0.00     0.235 C 
ENDBRANCH  17  18
ENDBRANCH  16  17
ENDBRANCH  13  16
ENDBRANCH  11  12
ENDBRANCH   3  11
BRANCH   1  25
HETATM   25  C   UNL     1      41.131 -13.763  -0.649  1.00  0.00    -0.030 A 
HETATM   26  C   UNL     1      41.787 -12.514  -0.699  1.00  0.00     0.016 A 
HETATM   27  C   UNL     1      42.407 -12.064  -1.876  1.00  0.00    -0.061 A 
HETATM   28  C   UNL     1      43.106 -10.734  -1.921  1.00  0.00     0.048 C 
HETATM   29  C   UNL     1      42.311 -12.836  -3.036  1.00  0.00     0.007 A 
HETATM   30  C   UNL     1      41.637 -14.055  -3.015  1.00  0.00     0.001 A 
HETATM   31  C   UNL     1      41.060 -14.519  -1.832  1.00  0.00     0.009 A 
ENDBRANCH   1  25
BRANCH  10  32
HETATM   32  C   UNL     1      38.057 -13.669   0.371  1.00  0.00     0.294 C 
HETATM   33  O   UNL     1      37.190 -14.341   0.909  1.00  0.00    -0.259 OA
BRANCH  32  34
HETATM   34  O   UNL     1      38.022 -13.117  -0.852  1.00  0.00    -0.313 OA
BRANCH  34  35
HETATM   35  C   UNL     1      37.921 -11.678  -0.993  1.00  0.00     0.124 C 
HETATM   36  C   UNL     1      38.747 -11.162  -2.165  1.00  0.00     0.040 C 
HETATM   37  C   UNL     1      36.469 -11.208  -1.032  1.00  0.00     0.040 C 
ENDBRANCH  34  35
ENDBRANCH  32  34
ENDBRANCH  10  32
TORSDOF 9
ENDMDL
MODEL 4
REMARK VINA RESULT:      -7.6      3.682      6.222
REMARK  9 active torsions:
REMARK  status: ('A' for Active; 'I' for Inactive)
REMARK    1  A    between atoms: C_4  and  C_5 
REMARK    2  A    between atoms: C_7  and  C_8 
REMARK    3  A    between atoms: C_8  and  C_9 
REMARK       I    between atoms: C_9  and  N_10 
REMARK    4  A    between atoms: N_10  and  C_11 
REMARK    5  A    between atoms: C_11  and  C_12 
REMARK    6  A    between atoms: C_12  and  N_13 
REMARK    7  A    between atoms: C_27  and  C_28 
REMARK    8  A    between atoms: C_28  and  O_29 
REMARK    9  A    between atoms: O_29  and  C_30 
ROOT
HETATM    1  C   UNL     1      40.008 -13.678   2.788  1.00  0.00     0.166 C 
HETATM    2  N   UNL     1      40.156 -12.815   3.975  1.00  0.00    -0.319 N 
HETATM    3  C   UNL     1      40.066 -13.013   5.247  1.00  0.00     0.011 C 
HETATM    4  C   UNL     1      40.594 -11.371   3.647  1.00  0.00     0.170 C 
HETATM    5  S   UNL     1      41.072 -10.510   5.071  1.00  0.00    -0.086 SA
HETATM    6  C   UNL     1      40.402 -11.828   6.124  1.00  0.00     0.135 C 
HETATM    7  N   UNL     1      40.569 -10.840   2.479  1.00  0.00    -0.229 NA
HETATM    8  C   UNL     1      40.000 -11.558   1.446  1.00  0.00     0.048 C 
HETATM    9  C   UNL     1      39.670 -10.704   0.242  1.00  0.00     0.071 C 
HETATM   10  C   UNL     1      39.694 -12.871   1.554  1.00  0.00     0.069 C 
ENDROOT
BRANCH   3  11
HETATM   11  C   UNL     1      39.596 -14.314   5.829  1.00  0.00     0.156 C 
BRANCH  11  12
HETATM   12  C   UNL     1      40.732 -15.301   6.034  1.00  0.00     0.223 C 
HETATM   13  N   UNL     1      41.931 -14.742   6.386  1.00  0.00    -0.359 N 
HETATM   14  H   UNL     1      42.008 -13.728   6.331  1.00  0.00     0.162 HD
HETATM   15  O   UNL     1      40.557 -16.511   5.913  1.00  0.00    -0.273 OA
BRANCH  13  16
HETATM   16  C   UNL     1      43.229 -15.423   6.459  1.00  0.00     0.150 C 
BRANCH  16  17
HETATM   17  C   UNL     1      43.379 -16.652   7.383  1.00  0.00     0.254 C 
BRANCH  17  18
HETATM   18  N   UNL     1      43.361 -17.984   6.651  1.00  0.00    -0.070 N 
HETATM   19  H   UNL     1      42.358 -18.193   6.474  1.00  0.00     0.279 HD
HETATM   20  C   UNL     1      44.074 -17.964   5.316  1.00  0.00     0.235 C 
HETATM   21  C   UNL     1      43.929 -19.313   4.626  1.00  0.00     0.028 C 
HETATM   22  C   UNL     1      44.444 -20.449   5.498  1.00  0.00     0.003 C 
HETATM   23  C   UNL     1      43.758 -20.436   6.857  1.00  0.00     0.028 C 
HETATM   24  C   UNL     1      43.897 -19.087   7.545  1.00  0.00     0.235 C 
ENDBRANCH  17  18
ENDBRANCH  16  17
ENDBRANCH  13  16
ENDBRANCH  11  12
ENDBRANCH   3  11
BRANCH   1  25
HETATM   25  C   UNL     1      41.237 -14.572   2.595  1.00  0.00    -0.030 A 
HETATM   26  C   UNL     1      41.151 -15.932   2.227  1.00  0.00     0.016 A 
HETATM   27  C   UNL     1      42.305 -16.712   2.050  1.00  0.00    -0.061 A 
HETATM   28  C   UNL     1      42.206 -18.159   1.656  1.00  0.00     0.048 C 
HETATM   29  C   UNL     1      43.556 -16.149   2.312  1.00  0.00     0.007 A 
HETATM   30  C   UNL     1      43.659 -14.819   2.710  1.00  0.00     0.001 A 
HETATM   31  C   UNL     1      42.512 -14.034   2.843  1.00  0.00     0.009 A 
ENDBRANCH   1  25
BRANCH  10  32
HETATM   32  C   UNL     1      38.890 -13.636   0.566  1.00  0.00     0.294 C 
HETATM   33  O   UNL     1      37.929 -14.292   0.941  1.00  0.00    -0.259 OA
BRANCH  32  34
HETATM   34  O   UNL     1      39.357 -13.514  -0.686  1.00  0.00    -0.313 OA
BRANCH  34  35
HETATM   35  C   UNL     1      40.300 -14.484  -1.205  1.00  0.00     0.124 C 
HETATM   36  C   UNL     1      39.987 -14.869  -2.645  1.00  0.00     0.040 C 
HETATM   37  C   UNL     1      41.747 -14.038  -1.006  1.00  0.00     0.040 C 
ENDBRANCH  34  35
ENDBRANCH  32  34
ENDBRANCH  10  32
TORSDOF 9
ENDMDL
MODEL 5
REMARK VINA RESULT:      -7.6      3.855      9.135
REMARK  9 active torsions:
REMARK  status: ('A' for Active; 'I' for Inactive)
REMARK    1  A    between atoms: C_4  and  C_5 
REMARK    2  A    between atoms: C_7  and  C_8 
REMARK    3  A    between atoms: C_8  and  C_9 
REMARK       I    between atoms: C_9  and  N_10 
REMARK    4  A    between atoms: N_10  and  C_11 
REMARK    5  A    between atoms: C_11  and  C_12 
REMARK    6  A    between atoms: C_12  and  N_13 
REMARK    7  A    between atoms: C_27  and  C_28 
REMARK    8  A    between atoms: C_28  and  O_29 
REMARK    9  A    between atoms: O_29  and  C_30 
ROOT
HETATM    1  C   UNL     1      41.563 -13.496   3.317  1.00  0.00     0.166 C 
HETATM    2  N   UNL     1      40.767 -12.494   2.582  1.00  0.00    -0.319 N 
HETATM    3  C   UNL     1      40.927 -11.858   1.471  1.00  0.00     0.011 C 
HETATM    4  C   UNL     1      39.401 -12.183   3.231  1.00  0.00     0.170 C 
HETATM    5  S   UNL     1      38.383 -11.270   2.169  1.00  0.00    -0.086 SA
HETATM    6  C   UNL     1      39.777 -10.973   1.047  1.00  0.00     0.135 C 
HETATM    7  N   UNL     1      39.059 -12.510   4.425  1.00  0.00    -0.229 NA
HETATM    8  C   UNL     1      40.013 -13.077   5.245  1.00  0.00     0.048 C 
HETATM    9  C   UNL     1      39.628 -13.051   6.708  1.00  0.00     0.071 C 
HETATM   10  C   UNL     1      41.203 -13.522   4.780  1.00  0.00     0.069 C 
ENDROOT
BRANCH   3  11
HETATM   11  C   UNL     1      42.196 -11.935   0.674  1.00  0.00     0.156 C 
BRANCH  11  12
HETATM   12  C   UNL     1      42.011 -12.667  -0.643  1.00  0.00     0.223 C 
HETATM   13  N   UNL     1      42.085 -11.880  -1.761  1.00  0.00    -0.359 N 
HETATM   14  H   UNL     1      42.101 -10.871  -1.622  1.00  0.00     0.162 HD
HETATM   15  O   UNL     1      41.834 -13.882  -0.680  1.00  0.00    -0.273 OA
BRANCH  13  16
HETATM   16  C   UNL     1      41.757 -12.275  -3.135  1.00  0.00     0.150 C 
BRANCH  16  17
HETATM   17  C   UNL     1      41.586 -13.775  -3.464  1.00  0.00     0.254 C 
BRANCH  17  18
HETATM   18  N   UNL     1      40.167 -14.170  -3.840  1.00  0.00    -0.070 N 
HETATM   19  H   UNL     1      40.074 -13.950  -4.852  1.00  0.00     0.279 HD
HETATM   20  C   UNL     1      39.866 -15.641  -3.653  1.00  0.00     0.235 C 
HETATM   21  C   UNL     1      38.456 -15.951  -4.133  1.00  0.00     0.028 C 
HETATM   22  C   UNL     1      37.419 -15.092  -3.423  1.00  0.00     0.003 C 
HETATM   23  C   UNL     1      37.752 -13.614  -3.572  1.00  0.00     0.028 C 
HETATM   24  C   UNL     1      39.164 -13.304  -3.100  1.00  0.00     0.235 C 
ENDBRANCH  17  18
ENDBRANCH  16  17
ENDBRANCH  13  16
ENDBRANCH  11  12
ENDBRANCH   3  11
BRANCH   1  25
HETATM   25  C   UNL     1      41.446 -14.880   2.671  1.00  0.00    -0.030 A 
HETATM   26  C   UNL     1      42.552 -15.582   2.147  1.00  0.00     0.016 A 
HETATM   27  C   UNL     1      42.401 -16.855   1.572  1.00  0.00    -0.061 A 
HETATM   28  C   UNL     1      43.584 -17.598   1.019  1.00  0.00     0.048 C 
HETATM   29  C   UNL     1      41.122 -17.402   1.454  1.00  0.00     0.007 A 
HETATM   30  C   UNL     1      40.013 -16.708   1.932  1.00  0.00     0.001 A 
HETATM   31  C   UNL     1      40.172 -15.463   2.543  1.00  0.00     0.009 A 
ENDBRANCH   1  25
BRANCH  10  32
HETATM   32  C   UNL     1      42.344 -13.936   5.637  1.00  0.00     0.294 C 
HETATM   33  O   UNL     1      43.273 -13.165   5.828  1.00  0.00    -0.259 OA
BRANCH  32  34
HETATM   34  O   UNL     1      42.209 -15.185   6.110  1.00  0.00    -0.313 OA
BRANCH  34  35
HETATM   35  C   UNL     1      43.144 -16.216   5.707  1.00  0.00     0.124 C 
HETATM   36  C   UNL     1      44.223 -16.448   6.758  1.00  0.00     0.040 C 
HETATM   37  C   UNL     1      42.433 -17.500   5.286  1.00  0.00     0.040 C 
ENDBRANCH  34  35
ENDBRANCH  32  34
ENDBRANCH  10  32
TORSDOF 9
ENDMDL
MODEL 6
REMARK VINA RESULT:      -7.5      4.347      6.586
REMARK  9 active torsions:
REMARK  status: ('A' for Active; 'I' for Inactive)
REMARK    1  A    between atoms: C_4  and  C_5 
REMARK    2  A    between atoms: C_7  and  C_8 
REMARK    3  A    between atoms: C_8  and  C_9 
REMARK       I    between atoms: C_9  and  N_10 
REMARK    4  A    between atoms: N_10  and  C_11 
REMARK    5  A    between atoms: C_11  and  C_12 
REMARK    6  A    between atoms: C_12  and  N_13 
REMARK    7  A    between atoms: C_27  and  C_28 
REMARK    8  A    between atoms: C_28  and  O_29 
REMARK    9  A    between atoms: O_29  and  C_30 
ROOT
HETATM    1  C   UNL     1      39.121 -12.495  -0.237  1.00  0.00     0.166 C 
HETATM    2  N   UNL     1      39.676 -11.269   0.368  1.00  0.00    -0.319 N 
HETATM    3  C   UNL     1      39.395 -10.581   1.423  1.00  0.00     0.011 C 
HETATM    4  C   UNL     1      40.919 -10.718  -0.363  1.00  0.00     0.170 C 
HETATM    5  S   UNL     1      41.717  -9.495   0.567  1.00  0.00    -0.086 SA
HETATM    6  C   UNL     1      40.315  -9.417   1.715  1.00  0.00     0.135 C 
HETATM    7  N   UNL     1      41.303 -11.073  -1.536  1.00  0.00    -0.229 NA
HETATM    8  C   UNL     1      40.491 -11.922  -2.260  1.00  0.00     0.048 C 
HETATM    9  C   UNL     1      40.830 -11.953  -3.734  1.00  0.00     0.071 C 
HETATM   10  C   UNL     1      39.447 -12.581  -1.706  1.00  0.00     0.069 C 
ENDROOT
BRANCH   3  11
HETATM   11  C   UNL     1      38.195 -10.869   2.277  1.00  0.00     0.156 C 
BRANCH  11  12
HETATM   12  C   UNL     1      38.567 -11.170   3.717  1.00  0.00     0.223 C 
HETATM   13  N   UNL     1      39.561 -12.098   3.879  1.00  0.00    -0.359 N 
HETATM   14  H   UNL     1      39.856 -12.615   3.052  1.00  0.00     0.162 HD
HETATM   15  O   UNL     1      38.021 -10.592   4.654  1.00  0.00    -0.273 OA
BRANCH  13  16
HETATM   16  C   UNL     1      39.986 -12.719   5.139  1.00  0.00     0.150 C 
BRANCH  16  17
HETATM   17  C   UNL     1      41.478 -13.066   5.337  1.00  0.00     0.254 C 
BRANCH  17  18
HETATM   18  N   UNL     1      41.741 -14.539   5.606  1.00  0.00    -0.070 N 
HETATM   19  H   UNL     1      42.214 -14.576   6.531  1.00  0.00     0.279 HD
HETATM   20  C   UNL     1      40.488 -15.384   5.690  1.00  0.00     0.235 C 
HETATM   21  C   UNL     1      40.848 -16.819   6.043  1.00  0.00     0.028 C 
HETATM   22  C   UNL     1      41.835 -17.412   5.047  1.00  0.00     0.003 C 
HETATM   23  C   UNL     1      43.073 -16.535   4.930  1.00  0.00     0.028 C 
HETATM   24  C   UNL     1      42.714 -15.098   4.584  1.00  0.00     0.235 C 
ENDBRANCH  17  18
ENDBRANCH  16  17
ENDBRANCH  13  16
ENDBRANCH  11  12
ENDBRANCH   3  11
BRANCH   1  25
HETATM   25  C   UNL     1      39.570 -13.744   0.527  1.00  0.00    -0.030 A 
HETATM   26  C   UNL     1      40.854 -14.314   0.387  1.00  0.00     0.016 A 
HETATM   27  C   UNL     1      41.228 -15.454   1.116  1.00  0.00    -0.061 A 
HETATM   28  C   UNL     1      42.598 -16.053   0.964  1.00  0.00     0.048 C 
HETATM   29  C   UNL     1      40.287 -16.075   1.940  1.00  0.00     0.007 A 
HETATM   30  C   UNL     1      39.004 -15.549   2.063  1.00  0.00     0.001 A 
HETATM   31  C   UNL     1      38.649 -14.390   1.371  1.00  0.00     0.009 A 
ENDBRANCH   1  25
BRANCH  10  32
HETATM   32  C   UNL     1      38.417 -13.329  -2.472  1.00  0.00     0.294 C 
HETATM   33  O   UNL     1      37.475 -12.730  -2.971  1.00  0.00    -0.259 OA
BRANCH  32  34
HETATM   34  O   UNL     1      38.658 -14.649  -2.510  1.00  0.00    -0.313 OA
BRANCH  34  35
HETATM   35  C   UNL     1      39.520 -15.198  -3.538  1.00  0.00     0.124 C 
HETATM   36  C   UNL     1      40.828 -15.725  -2.962  1.00  0.00     0.040 C 
HETATM   37  C   UNL     1      38.794 -16.222  -4.407  1.00  0.00     0.040 C 
ENDBRANCH  34  35
ENDBRANCH  32  34
ENDBRANCH  10  32
TORSDOF 9
ENDMDL
MODEL 7
REMARK VINA RESULT:      -7.4      4.660      8.348
REMARK  9 active torsions:
REMARK  status: ('A' for Active; 'I' for Inactive)
REMARK    1  A    between atoms: C_4  and  C_5 
REMARK    2  A    between atoms: C_7  and  C_8 
REMARK    3  A    between atoms: C_8  and  C_9 
REMARK       I    between atoms: C_9  and  N_10 
REMARK    4  A    between atoms: N_10  and  C_11 
REMARK    5  A    between atoms: C_11  and  C_12 
REMARK    6  A    between atoms: C_12  and  N_13 
REMARK    7  A    between atoms: C_27  and  C_28 
REMARK    8  A    between atoms: C_28  and  O_29 
REMARK    9  A    between atoms: O_29  and  C_30 
ROOT
HETATM    1  C   UNL     1      40.811 -12.498   0.896  1.00  0.00     0.166 C 
HETATM    2  N   UNL     1      40.744 -12.504   2.370  1.00  0.00    -0.319 N 
HETATM    3  C   UNL     1      41.573 -12.821   3.306  1.00  0.00     0.011 C 
HETATM    4  C   UNL     1      39.427 -11.932   2.938  1.00  0.00     0.170 C 
HETATM    5  S   UNL     1      39.535 -11.654   4.643  1.00  0.00    -0.086 SA
HETATM    6  C   UNL     1      41.099 -12.571   4.719  1.00  0.00     0.135 C 
HETATM    7  N   UNL     1      38.358 -11.726   2.258  1.00  0.00    -0.229 NA
HETATM    8  C   UNL     1      38.326 -12.151   0.945  1.00  0.00     0.048 C 
HETATM    9  C   UNL     1      36.925 -12.220   0.378  1.00  0.00     0.071 C 
HETATM   10  C   UNL     1      39.435 -12.548   0.281  1.00  0.00     0.069 C 
ENDROOT
BRANCH   3  11
HETATM   11  C   UNL     1      42.901 -13.460   3.023  1.00  0.00     0.156 C 
BRANCH  11  12
HETATM   12  C   UNL     1      43.157 -14.676   3.896  1.00  0.00     0.223 C 
HETATM   13  N   UNL     1      42.711 -15.864   3.383  1.00  0.00    -0.359 N 
HETATM   14  H   UNL     1      42.120 -15.822   2.554  1.00  0.00     0.162 HD
HETATM   15  O   UNL     1      43.747 -14.580   4.969  1.00  0.00    -0.273 OA
BRANCH  13  16
HETATM   16  C   UNL     1      42.648 -17.153   4.081  1.00  0.00     0.150 C 
BRANCH  16  17
HETATM   17  C   UNL     1      43.929 -18.011   4.186  1.00  0.00     0.254 C 
BRANCH  17  18
HETATM   18  N   UNL     1      43.765 -19.434   3.674  1.00  0.00    -0.070 N 
HETATM   19  H   UNL     1      42.875 -19.779   4.087  1.00  0.00     0.279 HD
HETATM   20  C   UNL     1      43.651 -19.538   2.169  1.00  0.00     0.235 C 
HETATM   21  C   UNL     1      43.407 -20.985   1.763  1.00  0.00     0.028 C 
HETATM   22  C   UNL     1      44.496 -21.908   2.289  1.00  0.00     0.003 C 
HETATM   23  C   UNL     1      44.640 -21.764   3.798  1.00  0.00     0.028 C 
HETATM   24  C   UNL     1      44.877 -20.318   4.205  1.00  0.00     0.235 C 
ENDBRANCH  17  18
ENDBRANCH  16  17
ENDBRANCH  13  16
ENDBRANCH  11  12
ENDBRANCH   3  11
BRANCH   1  25
HETATM   25  C   UNL     1      41.628 -11.309   0.382  1.00  0.00    -0.030 A 
HETATM   26  C   UNL     1      41.394  -9.978   0.789  1.00  0.00     0.016 A 
HETATM   27  C   UNL     1      42.176  -8.919   0.300  1.00  0.00    -0.061 A 
HETATM   28  C   UNL     1      41.922  -7.505   0.740  1.00  0.00     0.048 C 
HETATM   29  C   UNL     1      43.156  -9.181  -0.660  1.00  0.00     0.007 A 
HETATM   30  C   UNL     1      43.378 -10.483  -1.101  1.00  0.00     0.001 A 
HETATM   31  C   UNL     1      42.629 -11.540  -0.580  1.00  0.00     0.009 A 
ENDBRANCH   1  25
BRANCH  10  32
HETATM   32  C   UNL     1      39.433 -13.216  -1.046  1.00  0.00     0.294 C 
HETATM   33  O   UNL     1      39.249 -12.557  -2.059  1.00  0.00    -0.259 OA
BRANCH  32  34
HETATM   34  O   UNL     1      39.631 -14.541  -0.959  1.00  0.00    -0.313 OA
BRANCH  34  35
HETATM   35  C   UNL     1      40.910 -15.108  -1.339  1.00  0.00     0.124 C 
HETATM   36  C   UNL     1      41.436 -16.079  -0.290  1.00  0.00     0.040 C 
HETATM   37  C   UNL     1      40.876 -15.704  -2.744  1.00  0.00     0.040 C 
ENDBRANCH  34  35
ENDBRANCH  32  34
ENDBRANCH  10  32
TORSDOF 9
ENDMDL
MODEL 8
REMARK VINA RESULT:      -7.3      2.721      4.690
REMARK  9 active torsions:
REMARK  status: ('A' for Active; 'I' for Inactive)
REMARK    1  A    between atoms: C_4  and  C_5 
REMARK    2  A    between atoms: C_7  and  C_8 
REMARK    3  A    between atoms: C_8  and  C_9 
REMARK       I    between atoms: C_9  and  N_10 
REMARK    4  A    between atoms: N_10  and  C_11 
REMARK    5  A    between atoms: C_11  and  C_12 
REMARK    6  A    between atoms: C_12  and  N_13 
REMARK    7  A    between atoms: C_27  and  C_28 
REMARK    8  A    between atoms: C_28  and  O_29 
REMARK    9  A    between atoms: O_29  and  C_30 
ROOT
HETATM    1  C   UNL     1      41.890 -13.244   3.952  1.00  0.00     0.166 C 
HETATM    2  N   UNL     1      42.298 -14.607   4.344  1.00  0.00    -0.319 N 
HETATM    3  C   UNL     1      43.240 -15.084   5.086  1.00  0.00     0.011 C 
HETATM    4  C   UNL     1      41.354 -15.715   3.829  1.00  0.00     0.170 C 
HETATM    5  S   UNL     1      41.683 -17.237   4.586  1.00  0.00    -0.086 SA
HETATM    6  C   UNL     1      43.221 -16.582   5.291  1.00  0.00     0.135 C 
HETATM    7  N   UNL     1      40.462 -15.560   2.919  1.00  0.00    -0.229 NA
HETATM    8  C   UNL     1      40.407 -14.350   2.257  1.00  0.00     0.048 C 
HETATM    9  C   UNL     1      39.613 -14.414   0.971  1.00  0.00     0.071 C 
HETATM   10  C   UNL     1      41.078 -13.255   2.682  1.00  0.00     0.069 C 
ENDROOT
BRANCH   3  11
HETATM   11  C   UNL     1      44.329 -14.225   5.659  1.00  0.00     0.156 C 
BRANCH  11  12
HETATM   12  C   UNL     1      44.302 -14.191   7.176  1.00  0.00     0.223 C 
HETATM   13  N   UNL     1      44.218 -12.941   7.729  1.00  0.00    -0.359 N 
HETATM   14  H   UNL     1      44.336 -12.145   7.103  1.00  0.00     0.162 HD
HETATM   15  O   UNL     1      44.328 -15.225   7.840  1.00  0.00    -0.273 OA
BRANCH  13  16
HETATM   16  C   UNL     1      44.367 -12.596   9.147  1.00  0.00     0.150 C 
BRANCH  16  17
HETATM   17  C   UNL     1      43.897 -11.207   9.633  1.00  0.00     0.254 C 
BRANCH  17  18
HETATM   18  N   UNL     1      43.091 -11.242  10.922  1.00  0.00    -0.070 N 
HETATM   19  H   UNL     1      43.139 -12.225  11.256  1.00  0.00     0.279 HD
HETATM   20  C   UNL     1      43.640 -10.352  12.017  1.00  0.00     0.235 C 
HETATM   21  C   UNL     1      42.818 -10.519  13.286  1.00  0.00     0.028 C 
HETATM   22  C   UNL     1      41.344 -10.232  13.044  1.00  0.00     0.003 C 
HETATM   23  C   UNL     1      40.808 -11.095  11.910  1.00  0.00     0.028 C 
HETATM   24  C   UNL     1      41.632 -10.934  10.642  1.00  0.00     0.235 C 
ENDBRANCH  17  18
ENDBRANCH  16  17
ENDBRANCH  13  16
ENDBRANCH  11  12
ENDBRANCH   3  11
BRANCH   1  25
HETATM   25  C   UNL     1      41.160 -12.533   5.096  1.00  0.00    -0.030 A 
HETATM   26  C   UNL     1      41.604 -11.315   5.655  1.00  0.00     0.016 A 
HETATM   27  C   UNL     1      40.897 -10.691   6.696  1.00  0.00    -0.061 A 
HETATM   28  C   UNL     1      41.374  -9.393   7.283  1.00  0.00     0.048 C 
HETATM   29  C   UNL     1      39.776 -11.325   7.234  1.00  0.00     0.007 A 
HETATM   30  C   UNL     1      39.343 -12.545   6.721  1.00  0.00     0.001 A 
HETATM   31  C   UNL     1      40.022 -13.141   5.656  1.00  0.00     0.009 A 
ENDBRANCH   1  25
BRANCH  10  32
HETATM   32  C   UNL     1      41.232 -12.001   1.901  1.00  0.00     0.294 C 
HETATM   33  O   UNL     1      40.420 -11.097   2.034  1.00  0.00    -0.259 OA
BRANCH  32  34
HETATM   34  O   UNL     1      42.301 -12.026   1.089  1.00  0.00    -0.313 OA
BRANCH  34  35
HETATM   35  C   UNL     1      42.159 -11.662  -0.307  1.00  0.00     0.124 C 
HETATM   36  C   UNL     1      43.107 -10.536  -0.700  1.00  0.00     0.040 C 
HETATM   37  C   UNL     1      42.255 -12.876  -1.228  1.00  0.00     0.040 C 
ENDBRANCH  34  35
ENDBRANCH  32  34
ENDBRANCH  10  32
TORSDOF 9
ENDMDL
MODEL 9
REMARK VINA RESULT:      -7.3      1.673      2.212
REMARK  9 active torsions:
REMARK  status: ('A' for Active; 'I' for Inactive)
REMARK    1  A    between atoms: C_4  and  C_5 
REMARK    2  A    between atoms: C_7  and  C_8 
REMARK    3  A    between atoms: C_8  and  C_9 
REMARK       I    between atoms: C_9  and  N_10 
REMARK    4  A    between atoms: N_10  and  C_11 
REMARK    5  A    between atoms: C_11  and  C_12 
REMARK    6  A    between atoms: C_12  and  N_13 
REMARK    7  A    between atoms: C_27  and  C_28 
REMARK    8  A    between atoms: C_28  and  O_29 
REMARK    9  A    between atoms: O_29  and  C_30 
ROOT
HETATM    1  C   UNL     1      40.695 -13.307   4.769  1.00  0.00     0.166 C 
HETATM    2  N   UNL     1      40.575 -11.921   5.258  1.00  0.00    -0.319 N 
HETATM    3  C   UNL     1      40.102 -11.385   6.333  1.00  0.00     0.011 C 
HETATM    4  C   UNL     1      41.224 -10.872   4.330  1.00  0.00     0.170 C 
HETATM    5  S   UNL     1      41.348  -9.327   5.102  1.00  0.00    -0.086 SA
HETATM    6  C   UNL     1      40.280  -9.889   6.456  1.00  0.00     0.135 C 
HETATM    7  N   UNL     1      41.589 -11.084   3.118  1.00  0.00    -0.229 NA
HETATM    8  C   UNL     1      41.278 -12.301   2.546  1.00  0.00     0.048 C 
HETATM    9  C   UNL     1      41.393 -12.294   1.037  1.00  0.00     0.071 C 
HETATM   10  C   UNL     1      40.830 -13.353   3.268  1.00  0.00     0.069 C 
ENDROOT
BRANCH   3  11
HETATM   11  C   UNL     1      39.362 -12.177   7.370  1.00  0.00     0.156 C 
BRANCH  11  12
HETATM   12  C   UNL     1      39.180 -11.408   8.667  1.00  0.00     0.223 C 
HETATM   13  N   UNL     1      40.139 -11.635   9.617  1.00  0.00    -0.359 N 
HETATM   14  H   UNL     1      40.793 -12.398   9.448  1.00  0.00     0.162 HD
HETATM   15  O   UNL     1      38.247 -10.623   8.820  1.00  0.00    -0.273 OA
BRANCH  13  16
HETATM   16  C   UNL     1      40.115 -11.186  11.014  1.00  0.00     0.150 C 
BRANCH  16  17
HETATM   17  C   UNL     1      41.447 -11.078  11.789  1.00  0.00     0.254 C 
BRANCH  17  18
HETATM   18  N   UNL     1      42.668 -11.491  10.984  1.00  0.00    -0.070 N 
HETATM   19  H   UNL     1      42.326 -12.190  10.293  1.00  0.00     0.279 HD
HETATM   20  C   UNL     1      43.314 -10.357  10.217  1.00  0.00     0.235 C 
HETATM   21  C   UNL     1      44.471 -10.885   9.380  1.00  0.00     0.028 C 
HETATM   22  C   UNL     1      45.497 -11.613  10.236  1.00  0.00     0.003 C 
HETATM   23  C   UNL     1      44.835 -12.723  11.042  1.00  0.00     0.028 C 
HETATM   24  C   UNL     1      43.674 -12.198  11.873  1.00  0.00     0.235 C 
ENDBRANCH  17  18
ENDBRANCH  16  17
ENDBRANCH  13  16
ENDBRANCH  11  12
ENDBRANCH   3  11
BRANCH   1  25
HETATM   25  C   UNL     1      41.836 -14.047   5.473  1.00  0.00    -0.030 A 
HETATM   26  C   UNL     1      41.676 -15.309   6.086  1.00  0.00     0.016 A 
HETATM   27  C   UNL     1      42.753 -15.957   6.711  1.00  0.00    -0.061 A 
HETATM   28  C   UNL     1      42.576 -17.301   7.359  1.00  0.00     0.048 C 
HETATM   29  C   UNL     1      43.987 -15.308   6.789  1.00  0.00     0.007 A 
HETATM   30  C   UNL     1      44.156 -14.047   6.223  1.00  0.00     0.001 A 
HETATM   31  C   UNL     1      43.094 -13.425   5.563  1.00  0.00     0.009 A 
ENDBRANCH   1  25
BRANCH  10  32
HETATM   32  C   UNL     1      40.278 -14.604   2.688  1.00  0.00     0.294 C 
HETATM   33  O   UNL     1      39.102 -14.889   2.864  1.00  0.00    -0.259 OA
BRANCH  32  34
HETATM   34  O   UNL     1      41.198 -15.313   2.015  1.00  0.00    -0.313 OA
BRANCH  34  35
HETATM   35  C   UNL     1      42.032 -16.267   2.719  1.00  0.00     0.124 C 
HETATM   36  C   UNL     1      41.654 -17.706   2.389  1.00  0.00     0.040 C 
HETATM   37  C   UNL     1      43.519 -15.980   2.523  1.00  0.00     0.040 C 
ENDBRANCH  34  35
ENDBRANCH  32  34
ENDBRANCH  10  32
TORSDOF 9
ENDMDL
MODEL 10
REMARK VINA RESULT:      -7.2      2.898      8.409
REMARK  9 active torsions:
REMARK  status: ('A' for Active; 'I' for Inactive)
REMARK    1  A    between atoms: C_4  and  C_5 
REMARK    2  A    between atoms: C_7  and  C_8 
REMARK    3  A    between atoms: C_8  and  C_9 
REMARK       I    between atoms: C_9  and  N_10 
REMARK    4  A    between atoms: N_10  and  C_11 
REMARK    5  A    between atoms: C_11  and  C_12 
REMARK    6  A    between atoms: C_12  and  N_13 
REMARK    7  A    between atoms: C_27  and  C_28 
REMARK    8  A    between atoms: C_28  and  O_29 
REMARK    9  A    between atoms: O_29  and  C_30 
ROOT
HETATM    1  C   UNL     1      43.101 -13.607   5.802  1.00  0.00     0.166 C 
HETATM    2  N   UNL     1      42.442 -13.007   4.626  1.00  0.00    -0.319 N 
HETATM    3  C   UNL     1      42.501 -13.223   3.355  1.00  0.00     0.011 C 
HETATM    4  C   UNL     1      41.386 -11.937   4.979  1.00  0.00     0.170 C 
HETATM    5  S   UNL     1      40.421 -11.515   3.605  1.00  0.00    -0.086 SA
HETATM    6  C   UNL     1      41.550 -12.412   2.504  1.00  0.00     0.135 C 
HETATM    7  N   UNL     1      41.254 -11.381   6.129  1.00  0.00    -0.229 NA
HETATM    8  C   UNL     1      42.192 -11.662   7.101  1.00  0.00     0.048 C 
HETATM    9  C   UNL     1      42.171 -10.675   8.247  1.00  0.00     0.071 C 
HETATM   10  C   UNL     1      43.090 -12.666   6.980  1.00  0.00     0.069 C 
ENDROOT
BRANCH   3  11
HETATM   11  C   UNL     1      43.491 -14.170   2.744  1.00  0.00     0.156 C 
BRANCH  11  12
HETATM   12  C   UNL     1      42.842 -15.452   2.254  1.00  0.00     0.223 C 
HETATM   13  N   UNL     1      43.009 -16.538   3.072  1.00  0.00    -0.359 N 
HETATM   14  H   UNL     1      43.669 -16.445   3.842  1.00  0.00     0.162 HD
HETATM   15  O   UNL     1      42.195 -15.484   1.210  1.00  0.00    -0.273 OA
BRANCH  13  16
HETATM   16  C   UNL     1      42.664 -17.930   2.764  1.00  0.00     0.150 C 
BRANCH  16  17
HETATM   17  C   UNL     1      43.588 -18.743   1.831  1.00  0.00     0.254 C 
BRANCH  17  18
HETATM   18  N   UNL     1      44.303 -19.896   2.517  1.00  0.00    -0.070 N 
HETATM   19  H   UNL     1      45.300 -19.817   2.233  1.00  0.00     0.279 HD
HETATM   20  C   UNL     1      44.244 -19.846   4.028  1.00  0.00     0.235 C 
HETATM   21  C   UNL     1      45.054 -20.990   4.621  1.00  0.00     0.028 C 
HETATM   22  C   UNL     1      44.580 -22.341   4.105  1.00  0.00     0.003 C 
HETATM   23  C   UNL     1      44.596 -22.371   2.582  1.00  0.00     0.028 C 
HETATM   24  C   UNL     1      43.792 -21.224   1.989  1.00  0.00     0.235 C 
ENDBRANCH  17  18
ENDBRANCH  16  17
ENDBRANCH  13  16
ENDBRANCH  11  12
ENDBRANCH   3  11
BRANCH   1  25
HETATM   25  C   UNL     1      42.489 -14.968   6.146  1.00  0.00    -0.030 A 
HETATM   26  C   UNL     1      43.248 -16.055   6.631  1.00  0.00     0.016 A 
HETATM   27  C   UNL     1      42.644 -17.283   6.945  1.00  0.00    -0.061 A 
HETATM   28  C   UNL     1      43.459 -18.434   7.464  1.00  0.00     0.048 C 
HETATM   29  C   UNL     1      41.279 -17.453   6.705  1.00  0.00     0.007 A 
HETATM   30  C   UNL     1      40.520 -16.404   6.193  1.00  0.00     0.001 A 
HETATM   31  C   UNL     1      41.115 -15.170   5.924  1.00  0.00     0.009 A 
ENDBRANCH   1  25
BRANCH  10  32
HETATM   32  C   UNL     1      44.252 -12.876   7.882  1.00  0.00     0.294 C 
HETATM   33  O   UNL     1      44.774 -13.979   7.955  1.00  0.00    -0.259 OA
BRANCH  32  34
HETATM   34  O   UNL     1      44.593 -11.764   8.553  1.00  0.00    -0.313 OA
BRANCH  34  35
HETATM   35  C   UNL     1      45.145 -11.867   9.889  1.00  0.00     0.124 C 
HETATM   36  C   UNL     1      45.778 -10.558  10.345  1.00  0.00     0.040 C 
HETATM   37  C   UNL     1      44.130 -12.419  10.887  1.00  0.00     0.040 C 
ENDBRANCH  34  35
ENDBRANCH  32  34
ENDBRANCH  10  32
TORSDOF 9
ENDMDL
