MODEL 1
REMARK VINA RESULT:      -8.9      0.000      0.000
REMARK  5 active torsions:
REMARK  status: ('A' for Active; 'I' for Inactive)
REMARK    1  A    between atoms: C_5  and  C_6 
REMARK    2  A    between atoms: C_11  and  C_12 
REMARK       I    between atoms: C_12  and  N_13 
REMARK    3  A    between atoms: N_13  and  C_14 
REMARK    4  A    between atoms: C_16  and  O_17 
REMARK    5  A    between atoms: C_23  and  C_24 
ROOT
HETATM    1  C   UNL     1      41.177 -16.483   4.747  1.00  0.00     0.118 C 
HETATM    2  N   UNL     1      40.362 -15.604   3.917  1.00  0.00    -0.366 N 
HETATM    3  C   UNL     1      40.483 -15.546   2.576  1.00  0.00     0.123 A 
HETATM    4  N   UNL     1      41.359 -16.343   1.896  1.00  0.00    -0.240 N 
HETATM    5  N   UNL     1      41.305 -16.197   0.557  1.00  0.00    -0.165 NA
HETATM    6  C   UNL     1      40.387 -15.217   0.385  1.00  0.00     0.148 A 
HETATM    7  C   UNL     1      39.851 -14.787   1.628  1.00  0.00     0.089 A 
HETATM    8  C   UNL     1      42.238 -17.306   2.526  1.00  0.00     0.221 C 
HETATM    9  C   UNL     1      41.724 -17.668   3.931  1.00  0.00     0.066 C 
HETATM   10  H   UNL     1      39.792 -14.929   4.427  1.00  0.00     0.161 HD
ENDROOT
BRANCH   6  11
HETATM   11  C   UNL     1      40.028 -14.704  -0.951  1.00  0.00     0.276 C 
HETATM   12  N   UNL     1      38.692 -14.362  -1.031  1.00  0.00    -0.322 N 
HETATM   13  H   UNL     1      38.181 -14.527  -0.166  1.00  0.00     0.169 HD
HETATM   14  O   UNL     1      40.861 -14.621  -1.846  1.00  0.00    -0.266 OA
BRANCH  12  15
HETATM   15  C   UNL     1      37.986 -13.849  -2.132  1.00  0.00     0.037 A 
HETATM   16  C   UNL     1      37.637 -14.606  -3.252  1.00  0.00     0.066 A 
HETATM   17  C   UNL     1      36.934 -14.012  -4.300  1.00  0.00     0.067 A 
HETATM   18  C   UNL     1      36.572 -12.672  -4.252  1.00  0.00     0.036 A 
HETATM   19  C   UNL     1      36.916 -11.910  -3.139  1.00  0.00     0.005 A 
HETATM   20  C   UNL     1      37.622 -12.496  -2.085  1.00  0.00     0.029 A 
BRANCH  17  21
HETATM   21  O   UNL     1      36.579 -14.726  -5.408  1.00  0.00    -0.361 OA
HETATM   22  H   UNL     1      35.613 -14.676  -5.507  1.00  0.00     0.217 HD
ENDBRANCH  17  21
ENDBRANCH  12  15
ENDBRANCH   6  11
BRANCH   8  23
HETATM   23  C   UNL     1      43.666 -16.808   2.498  1.00  0.00     0.409 C 
HETATM   24  F   UNL     1      43.783 -15.473   2.604  1.00  0.00    -0.169 F 
HETATM   25  F   UNL     1      44.373 -17.357   3.519  1.00  0.00    -0.169 F 
HETATM   26  F   UNL     1      44.301 -17.178   1.360  1.00  0.00    -0.169 F 
ENDBRANCH   8  23
BRANCH   1  27
HETATM   27  C   UNL     1      42.215 -15.730   5.559  1.00  0.00    -0.035 A 
HETATM   28  C   UNL     1      42.329 -14.338   5.398  1.00  0.00     0.010 A 
HETATM   29  C   UNL     1      43.288 -13.604   6.102  1.00  0.00     0.007 A 
HETATM   30  C   UNL     1      44.163 -14.244   6.984  1.00  0.00    -0.062 A 
HETATM   31  C   UNL     1      45.178 -13.465   7.767  1.00  0.00     0.048 C 
HETATM   32  C   UNL     1      44.050 -15.625   7.162  1.00  0.00     0.007 A 
HETATM   33  C   UNL     1      43.095 -16.360   6.451  1.00  0.00     0.010 A 
ENDBRANCH   1  27
TORSDOF 5
ENDMDL
MODEL 2
REMARK VINA RESULT:      -8.6      2.397      3.982
REMARK  5 active torsions:
REMARK  status: ('A' for Active; 'I' for Inactive)
REMARK    1  A    between atoms: C_5  and  C_6 
REMARK    2  A    between atoms: C_11  and  C_12 
REMARK       I    between atoms: C_12  and  N_13 
REMARK    3  A    between atoms: N_13  and  C_14 
REMARK    4  A    between atoms: C_16  and  O_17 
REMARK    5  A    between atoms: C_23  and  C_24 
ROOT
HETATM    1  C   UNL     1      44.073 -16.880   2.355  1.00  0.00     0.118 C 
HETATM    2  N   UNL     1      43.327 -16.577   1.139  1.00  0.00    -0.366 N 
HETATM    3  C   UNL     1      42.111 -15.995   1.153  1.00  0.00     0.123 A 
HETATM    4  N   UNL     1      41.509 -15.611   2.318  1.00  0.00    -0.240 N 
HETATM    5  N   UNL     1      40.326 -14.990   2.143  1.00  0.00    -0.165 NA
HETATM    6  C   UNL     1      40.144 -15.033   0.802  1.00  0.00     0.148 A 
HETATM    7  C   UNL     1      41.243 -15.654   0.151  1.00  0.00     0.089 A 
HETATM    8  C   UNL     1      42.092 -15.792   3.632  1.00  0.00     0.221 C 
HETATM    9  C   UNL     1      43.615 -15.990   3.524  1.00  0.00     0.066 C 
HETATM   10  H   UNL     1      43.718 -16.963   0.280  1.00  0.00     0.161 HD
ENDROOT
BRANCH   6  11
HETATM   11  C   UNL     1      38.937 -14.484   0.156  1.00  0.00     0.276 C 
HETATM   12  N   UNL     1      39.120 -14.287  -1.198  1.00  0.00    -0.322 N 
HETATM   13  H   UNL     1      40.052 -14.542  -1.521  1.00  0.00     0.169 HD
HETATM   14  O   UNL     1      37.922 -14.246   0.801  1.00  0.00    -0.266 OA
BRANCH  12  15
HETATM   15  C   UNL     1      38.208 -13.778  -2.138  1.00  0.00     0.037 A 
HETATM   16  C   UNL     1      37.773 -14.486  -3.261  1.00  0.00     0.066 A 
HETATM   17  C   UNL     1      36.865 -13.901  -4.142  1.00  0.00     0.067 A 
HETATM   18  C   UNL     1      36.380 -12.618  -3.925  1.00  0.00     0.036 A 
HETATM   19  C   UNL     1      36.807 -11.905  -2.808  1.00  0.00     0.005 A 
HETATM   20  C   UNL     1      37.720 -12.482  -1.920  1.00  0.00     0.029 A 
BRANCH  17  21
HETATM   21  O   UNL     1      36.422 -14.567  -5.248  1.00  0.00    -0.361 OA
HETATM   22  H   UNL     1      36.207 -13.912  -5.933  1.00  0.00     0.217 HD
ENDBRANCH  17  21
ENDBRANCH  12  15
ENDBRANCH   6  11
BRANCH   8  23
HETATM   23  C   UNL     1      41.374 -16.897   4.374  1.00  0.00     0.409 C 
HETATM   24  F   UNL     1      42.136 -17.535   5.280  1.00  0.00    -0.169 F 
HETATM   25  F   UNL     1      40.298 -16.396   5.033  1.00  0.00    -0.169 F 
HETATM   26  F   UNL     1      40.891 -17.835   3.525  1.00  0.00    -0.169 F 
ENDBRANCH   8  23
BRANCH   1  27
HETATM   27  C   UNL     1      44.121 -18.366   2.661  1.00  0.00    -0.035 A 
HETATM   28  C   UNL     1      44.643 -18.792   3.895  1.00  0.00     0.010 A 
HETATM   29  C   UNL     1      44.735 -20.151   4.211  1.00  0.00     0.007 A 
HETATM   30  C   UNL     1      44.312 -21.121   3.299  1.00  0.00    -0.062 A 
HETATM   31  C   UNL     1      44.379 -22.580   3.637  1.00  0.00     0.048 C 
HETATM   32  C   UNL     1      43.780 -20.708   2.075  1.00  0.00     0.007 A 
HETATM   33  C   UNL     1      43.696 -19.349   1.756  1.00  0.00     0.010 A 
ENDBRANCH   1  27
TORSDOF 5
ENDMDL
MODEL 3
REMARK VINA RESULT:      -8.5      4.836      7.969
REMARK  5 active torsions:
REMARK  status: ('A' for Active; 'I' for Inactive)
REMARK    1  A    between atoms: C_5  and  C_6 
REMARK    2  A    between atoms: C_11  and  C_12 
REMARK       I    between atoms: C_12  and  N_13 
REMARK    3  A    between atoms: N_13  and  C_14 
REMARK    4  A    between atoms: C_16  and  O_17 
REMARK    5  A    between atoms: C_23  and  C_24 
ROOT
HETATM    1  C   UNL     1      41.209 -16.830   2.604  1.00  0.00     0.118 C 
HETATM    2  N   UNL     1      40.301 -16.339   3.634  1.00  0.00    -0.366 N 
HETATM    3  C   UNL     1      40.377 -15.093   4.143  1.00  0.00     0.123 A 
HETATM    4  N   UNL     1      41.296 -14.187   3.695  1.00  0.00    -0.240 N 
HETATM    5  N   UNL     1      41.191 -12.972   4.271  1.00  0.00    -0.165 NA
HETATM    6  C   UNL     1      40.190 -13.135   5.169  1.00  0.00     0.148 A 
HETATM    7  C   UNL     1      39.657 -14.451   5.114  1.00  0.00     0.089 A 
HETATM    8  C   UNL     1      42.270 -14.461   2.658  1.00  0.00     0.221 C 
HETATM    9  C   UNL     1      41.828 -15.666   1.809  1.00  0.00     0.066 C 
HETATM   10  H   UNL     1      39.692 -17.044   4.050  1.00  0.00     0.161 HD
ENDROOT
BRANCH   6  11
HETATM   11  C   UNL     1      39.752 -12.046   6.061  1.00  0.00     0.276 C 
HETATM   12  N   UNL     1      40.540 -11.955   7.191  1.00  0.00    -0.322 N 
HETATM   13  H   UNL     1      41.279 -12.655   7.225  1.00  0.00     0.169 HD
HETATM   14  O   UNL     1      38.789 -11.341   5.780  1.00  0.00    -0.266 OA
BRANCH  12  15
HETATM   15  C   UNL     1      40.429 -11.055   8.264  1.00  0.00     0.037 A 
HETATM   16  C   UNL     1      39.266 -10.887   9.021  1.00  0.00     0.066 A 
HETATM   17  C   UNL     1      39.247  -9.968  10.069  1.00  0.00     0.067 A 
HETATM   18  C   UNL     1      40.369  -9.210  10.379  1.00  0.00     0.036 A 
HETATM   19  C   UNL     1      41.532  -9.370   9.630  1.00  0.00     0.005 A 
HETATM   20  C   UNL     1      41.560 -10.288   8.575  1.00  0.00     0.029 A 
BRANCH  17  21
HETATM   21  O   UNL     1      38.127  -9.782  10.826  1.00  0.00    -0.361 OA
HETATM   22  H   UNL     1      38.380  -9.833  11.763  1.00  0.00     0.217 HD
ENDBRANCH  17  21
ENDBRANCH  12  15
ENDBRANCH   6  11
BRANCH   8  23
HETATM   23  C   UNL     1      43.650 -14.600   3.261  1.00  0.00     0.409 C 
HETATM   24  F   UNL     1      44.322 -13.440   3.366  1.00  0.00    -0.169 F 
HETATM   25  F   UNL     1      43.565 -15.132   4.507  1.00  0.00    -0.169 F 
HETATM   26  F   UNL     1      44.423 -15.449   2.543  1.00  0.00    -0.169 F 
ENDBRANCH   8  23
BRANCH   1  27
HETATM   27  C   UNL     1      42.205 -17.846   3.134  1.00  0.00    -0.035 A 
HETATM   28  C   UNL     1      42.305 -18.043   4.522  1.00  0.00     0.010 A 
HETATM   29  C   UNL     1      43.226 -18.948   5.060  1.00  0.00     0.007 A 
HETATM   30  C   UNL     1      44.076 -19.674   4.223  1.00  0.00    -0.062 A 
HETATM   31  C   UNL     1      45.049 -20.668   4.785  1.00  0.00     0.048 C 
HETATM   32  C   UNL     1      43.976 -19.495   2.841  1.00  0.00     0.007 A 
HETATM   33  C   UNL     1      43.060 -18.585   2.304  1.00  0.00     0.010 A 
ENDBRANCH   1  27
TORSDOF 5
ENDMDL
MODEL 4
REMARK VINA RESULT:      -8.4      2.540      3.846
REMARK  5 active torsions:
REMARK  status: ('A' for Active; 'I' for Inactive)
REMARK    1  A    between atoms: C_5  and  C_6 
REMARK    2  A    between atoms: C_11  and  C_12 
REMARK       I    between atoms: C_12  and  N_13 
REMARK    3  A    between atoms: N_13  and  C_14 
REMARK    4  A    between atoms: C_16  and  O_17 
REMARK    5  A    between atoms: C_23  and  C_24 
ROOT
HETATM    1  C   UNL     1      44.013 -16.628   3.695  1.00  0.00     0.118 C 
HETATM    2  N   UNL     1      43.428 -16.337   2.391  1.00  0.00    -0.366 N 
HETATM    3  C   UNL     1      42.167 -15.885   2.240  1.00  0.00     0.123 A 
HETATM    4  N   UNL     1      41.359 -15.632   3.312  1.00  0.00    -0.240 N 
HETATM    5  N   UNL     1      40.154 -15.127   2.982  1.00  0.00    -0.165 NA
HETATM    6  C   UNL     1      40.179 -15.114   1.628  1.00  0.00     0.148 A 
HETATM    7  C   UNL     1      41.426 -15.581   1.130  1.00  0.00     0.089 A 
HETATM    8  C   UNL     1      41.756 -15.824   4.693  1.00  0.00     0.221 C 
HETATM    9  C   UNL     1      43.290 -15.857   4.813  1.00  0.00     0.066 C 
HETATM   10  H   UNL     1      43.984 -16.632   1.588  1.00  0.00     0.161 HD
ENDROOT
BRANCH   6  11
HETATM   11  C   UNL     1      39.029 -14.658   0.826  1.00  0.00     0.276 C 
HETATM   12  N   UNL     1      39.388 -14.373  -0.476  1.00  0.00    -0.322 N 
HETATM   13  H   UNL     1      40.379 -14.514  -0.662  1.00  0.00     0.169 HD
HETATM   14  O   UNL     1      37.910 -14.559   1.316  1.00  0.00    -0.266 OA
BRANCH  12  15
HETATM   15  C   UNL     1      38.575 -13.911  -1.526  1.00  0.00     0.037 A 
HETATM   16  C   UNL     1      38.285 -14.658  -2.670  1.00  0.00     0.066 A 
HETATM   17  C   UNL     1      37.467 -14.118  -3.663  1.00  0.00     0.067 A 
HETATM   18  C   UNL     1      36.932 -12.842  -3.535  1.00  0.00     0.036 A 
HETATM   19  C   UNL     1      37.216 -12.091  -2.398  1.00  0.00     0.005 A 
HETATM   20  C   UNL     1      38.036 -12.623  -1.399  1.00  0.00     0.029 A 
BRANCH  17  21
HETATM   21  O   UNL     1      37.167 -14.822  -4.792  1.00  0.00    -0.361 OA
HETATM   22  H   UNL     1      37.876 -15.468  -4.946  1.00  0.00     0.217 HD
ENDBRANCH  17  21
ENDBRANCH  12  15
ENDBRANCH   6  11
BRANCH   8  23
HETATM   23  C   UNL     1      41.063 -17.037   5.271  1.00  0.00     0.409 C 
HETATM   24  F   UNL     1      40.785 -17.994   4.368  1.00  0.00    -0.169 F 
HETATM   25  F   UNL     1      41.836 -17.603   6.234  1.00  0.00    -0.169 F 
HETATM   26  F   UNL     1      39.897 -16.704   5.874  1.00  0.00    -0.169 F 
ENDBRANCH   8  23
BRANCH   1  27
HETATM   27  C   UNL     1      44.180 -18.116   3.945  1.00  0.00    -0.035 A 
HETATM   28  C   UNL     1      44.549 -18.554   5.229  1.00  0.00     0.010 A 
HETATM   29  C   UNL     1      44.742 -19.911   5.503  1.00  0.00     0.007 A 
HETATM   30  C   UNL     1      44.578 -20.867   4.497  1.00  0.00    -0.062 A 
HETATM   31  C   UNL     1      44.755 -22.329   4.784  1.00  0.00     0.048 C 
HETATM   32  C   UNL     1      44.198 -20.444   3.221  1.00  0.00     0.007 A 
HETATM   33  C   UNL     1      44.013 -19.085   2.946  1.00  0.00     0.010 A 
ENDBRANCH   1  27
TORSDOF 5
ENDMDL
MODEL 5
REMARK VINA RESULT:      -8.4      2.102      2.380
REMARK  5 active torsions:
REMARK  status: ('A' for Active; 'I' for Inactive)
REMARK    1  A    between atoms: C_5  and  C_6 
REMARK    2  A    between atoms: C_11  and  C_12 
REMARK       I    between atoms: C_12  and  N_13 
REMARK    3  A    between atoms: N_13  and  C_14 
REMARK    4  A    between atoms: C_16  and  O_17 
REMARK    5  A    between atoms: C_23  and  C_24 
ROOT
HETATM    1  C   UNL     1      41.094 -16.341   4.301  1.00  0.00     0.118 C 
HETATM    2  N   UNL     1      40.463 -15.414   3.368  1.00  0.00    -0.366 N 
HETATM    3  C   UNL     1      40.734 -15.408   2.048  1.00  0.00     0.123 A 
HETATM    4  N   UNL     1      41.598 -16.304   1.485  1.00  0.00    -0.240 N 
HETATM    5  N   UNL     1      41.704 -16.194   0.146  1.00  0.00    -0.165 NA
HETATM    6  C   UNL     1      40.910 -15.137  -0.147  1.00  0.00     0.148 A 
HETATM    7  C   UNL     1      40.286 -14.621   1.021  1.00  0.00     0.089 A 
HETATM    8  C   UNL     1      42.306 -17.327   2.228  1.00  0.00     0.221 C 
HETATM    9  C   UNL     1      41.609 -17.596   3.574  1.00  0.00     0.066 C 
HETATM   10  H   UNL     1      39.909 -14.673   3.798  1.00  0.00     0.161 HD
ENDROOT
BRANCH   6  11
HETATM   11  C   UNL     1      40.750 -14.633  -1.523  1.00  0.00     0.276 C 
HETATM   12  N   UNL     1      41.111 -13.305  -1.633  1.00  0.00    -0.322 N 
HETATM   13  H   UNL     1      41.416 -12.896  -0.751  1.00  0.00     0.169 HD
HETATM   14  O   UNL     1      40.334 -15.356  -2.422  1.00  0.00    -0.266 OA
BRANCH  12  15
HETATM   15  C   UNL     1      41.089 -12.484  -2.773  1.00  0.00     0.037 A 
HETATM   16  C   UNL     1      39.916 -12.054  -3.399  1.00  0.00     0.066 A 
HETATM   17  C   UNL     1      39.991 -11.240  -4.528  1.00  0.00     0.067 A 
HETATM   18  C   UNL     1      41.216 -10.844  -5.048  1.00  0.00     0.036 A 
HETATM   19  C   UNL     1      42.390 -11.268  -4.431  1.00  0.00     0.005 A 
HETATM   20  C   UNL     1      42.326 -12.087  -3.299  1.00  0.00     0.029 A 
BRANCH  17  21
HETATM   21  O   UNL     1      38.863 -10.805  -5.161  1.00  0.00    -0.361 OA
HETATM   22  H   UNL     1      39.123 -10.412  -6.012  1.00  0.00     0.217 HD
ENDBRANCH  17  21
ENDBRANCH  12  15
ENDBRANCH   6  11
BRANCH   8  23
HETATM   23  C   UNL     1      43.769 -16.966   2.349  1.00  0.00     0.409 C 
HETATM   24  F   UNL     1      44.510 -17.312   1.281  1.00  0.00    -0.169 F 
HETATM   25  F   UNL     1      43.909 -15.626   2.520  1.00  0.00    -0.169 F 
HETATM   26  F   UNL     1      44.336 -17.543   3.435  1.00  0.00    -0.169 F 
ENDBRANCH   8  23
BRANCH   1  27
HETATM   27  C   UNL     1      42.106 -15.665   5.208  1.00  0.00    -0.035 A 
HETATM   28  C   UNL     1      42.299 -14.276   5.100  1.00  0.00     0.010 A 
HETATM   29  C   UNL     1      43.239 -13.613   5.894  1.00  0.00     0.007 A 
HETATM   30  C   UNL     1      44.015 -14.321   6.815  1.00  0.00    -0.062 A 
HETATM   31  C   UNL     1      45.007 -13.617   7.693  1.00  0.00     0.048 C 
HETATM   32  C   UNL     1      43.822 -15.699   6.940  1.00  0.00     0.007 A 
HETATM   33  C   UNL     1      42.887 -16.363   6.140  1.00  0.00     0.010 A 
ENDBRANCH   1  27
TORSDOF 5
ENDMDL
MODEL 6
REMARK VINA RESULT:      -8.3      4.154      8.577
REMARK  5 active torsions:
REMARK  status: ('A' for Active; 'I' for Inactive)
REMARK    1  A    between atoms: C_5  and  C_6 
REMARK    2  A    between atoms: C_11  and  C_12 
REMARK       I    between atoms: C_12  and  N_13 
REMARK    3  A    between atoms: N_13  and  C_14 
REMARK    4  A    between atoms: C_16  and  O_17 
REMARK    5  A    between atoms: C_23  and  C_24 
ROOT
HETATM    1  C   UNL     1      40.426 -13.907  -1.683  1.00  0.00     0.118 C 
HETATM    2  N   UNL     1      41.334 -14.971  -1.272  1.00  0.00    -0.366 N 
HETATM    3  C   UNL     1      41.279 -15.549  -0.055  1.00  0.00     0.123 A 
HETATM    4  N   UNL     1      40.335 -15.198   0.867  1.00  0.00    -0.240 N 
HETATM    5  N   UNL     1      40.388 -15.920   2.005  1.00  0.00    -0.165 NA
HETATM    6  C   UNL     1      41.457 -16.729   1.815  1.00  0.00     0.148 A 
HETATM    7  C   UNL     1      42.037 -16.525   0.534  1.00  0.00     0.089 A 
HETATM    8  C   UNL     1      39.321 -14.187   0.649  1.00  0.00     0.221 C 
HETATM    9  C   UNL     1      39.127 -13.934  -0.857  1.00  0.00     0.066 C 
HETATM   10  H   UNL     1      42.108 -15.155  -1.910  1.00  0.00     0.161 HD
ENDROOT
BRANCH   6  11
HETATM   11  C   UNL     1      41.910 -17.685   2.842  1.00  0.00     0.276 C 
HETATM   12  N   UNL     1      42.948 -18.475   2.391  1.00  0.00    -0.322 N 
HETATM   13  H   UNL     1      43.220 -18.274   1.430  1.00  0.00     0.169 HD
HETATM   14  O   UNL     1      41.382 -17.730   3.948  1.00  0.00    -0.266 OA
BRANCH  12  15
HETATM   15  C   UNL     1      43.632 -19.494   3.075  1.00  0.00     0.037 A 
HETATM   16  C   UNL     1      43.833 -20.777   2.559  1.00  0.00     0.066 A 
HETATM   17  C   UNL     1      44.525 -21.726   3.310  1.00  0.00     0.067 A 
HETATM   18  C   UNL     1      45.022 -21.421   4.570  1.00  0.00     0.036 A 
HETATM   19  C   UNL     1      44.827 -20.145   5.092  1.00  0.00     0.005 A 
HETATM   20  C   UNL     1      44.133 -19.187   4.347  1.00  0.00     0.029 A 
BRANCH  17  21
HETATM   21  O   UNL     1      44.737 -22.987   2.833  1.00  0.00    -0.361 OA
HETATM   22  H   UNL     1      44.057 -23.573   3.208  1.00  0.00     0.217 HD
ENDBRANCH  17  21
ENDBRANCH  12  15
ENDBRANCH   6  11
BRANCH   8  23
HETATM   23  C   UNL     1      39.641 -12.945   1.450  1.00  0.00     0.409 C 
HETATM   24  F   UNL     1      40.955 -12.678   1.548  1.00  0.00    -0.169 F 
HETATM   25  F   UNL     1      39.050 -11.860   0.886  1.00  0.00    -0.169 F 
HETATM   26  F   UNL     1      39.151 -13.025   2.710  1.00  0.00    -0.169 F 
ENDBRANCH   8  23
BRANCH   1  27
HETATM   27  C   UNL     1      41.106 -12.553  -1.766  1.00  0.00    -0.035 A 
HETATM   28  C   UNL     1      42.484 -12.464  -1.501  1.00  0.00     0.010 A 
HETATM   29  C   UNL     1      43.149 -11.235  -1.537  1.00  0.00     0.007 A 
HETATM   30  C   UNL     1      42.453 -10.061  -1.833  1.00  0.00    -0.062 A 
HETATM   31  C   UNL     1      43.161  -8.740  -1.903  1.00  0.00     0.048 C 
HETATM   32  C   UNL     1      41.086 -10.139  -2.111  1.00  0.00     0.007 A 
HETATM   33  C   UNL     1      40.420 -11.368  -2.067  1.00  0.00     0.010 A 
ENDBRANCH   1  27
TORSDOF 5
ENDMDL
MODEL 7
REMARK VINA RESULT:      -8.1      3.959      8.783
REMARK  5 active torsions:
REMARK  status: ('A' for Active; 'I' for Inactive)
REMARK    1  A    between atoms: C_5  and  C_6 
REMARK    2  A    between atoms: C_11  and  C_12 
REMARK       I    between atoms: C_12  and  N_13 
REMARK    3  A    between atoms: N_13  and  C_14 
REMARK    4  A    between atoms: C_16  and  O_17 
REMARK    5  A    between atoms: C_23  and  C_24 
ROOT
HETATM    1  C   UNL     1      38.511 -13.306   0.738  1.00  0.00     0.118 C 
HETATM    2  N   UNL     1      38.889 -14.692   0.989  1.00  0.00    -0.366 N 
HETATM    3  C   UNL     1      40.169 -15.084   1.144  1.00  0.00     0.123 A 
HETATM    4  N   UNL     1      41.204 -14.193   1.114  1.00  0.00    -0.240 N 
HETATM    5  N   UNL     1      42.410 -14.748   1.347  1.00  0.00    -0.165 NA
HETATM    6  C   UNL     1      42.130 -16.067   1.475  1.00  0.00     0.148 A 
HETATM    7  C   UNL     1      40.735 -16.312   1.355  1.00  0.00     0.089 A 
HETATM    8  C   UNL     1      41.045 -12.768   0.909  1.00  0.00     0.221 C 
HETATM    9  C   UNL     1      39.602 -12.336   1.227  1.00  0.00     0.066 C 
HETATM   10  H   UNL     1      38.135 -15.372   0.898  1.00  0.00     0.161 HD
ENDROOT
BRANCH   6  11
HETATM   11  C   UNL     1      43.181 -17.073   1.712  1.00  0.00     0.276 C 
HETATM   12  N   UNL     1      42.733 -18.111   2.504  1.00  0.00    -0.322 N 
HETATM   13  H   UNL     1      41.764 -18.006   2.797  1.00  0.00     0.169 HD
HETATM   14  O   UNL     1      44.305 -16.944   1.239  1.00  0.00    -0.266 OA
BRANCH  12  15
HETATM   15  C   UNL     1      43.441 -19.242   2.947  1.00  0.00     0.037 A 
HETATM   16  C   UNL     1      43.666 -20.375   2.162  1.00  0.00     0.066 A 
HETATM   17  C   UNL     1      44.381 -21.452   2.685  1.00  0.00     0.067 A 
HETATM   18  C   UNL     1      44.878 -21.420   3.982  1.00  0.00     0.036 A 
HETATM   19  C   UNL     1      44.659 -20.295   4.772  1.00  0.00     0.005 A 
HETATM   20  C   UNL     1      43.942 -19.211   4.256  1.00  0.00     0.029 A 
BRANCH  17  21
HETATM   21  O   UNL     1      44.616 -22.572   1.943  1.00  0.00    -0.361 OA
HETATM   22  H   UNL     1      43.906 -23.211   2.123  1.00  0.00     0.217 HD
ENDBRANCH  17  21
ENDBRANCH  12  15
ENDBRANCH   6  11
BRANCH   8  23
HETATM   23  C   UNL     1      41.516 -12.383  -0.475  1.00  0.00     0.409 C 
HETATM   24  F   UNL     1      42.806 -12.006  -0.531  1.00  0.00    -0.169 F 
HETATM   25  F   UNL     1      41.365 -13.428  -1.329  1.00  0.00    -0.169 F 
HETATM   26  F   UNL     1      40.779 -11.369  -0.989  1.00  0.00    -0.169 F 
ENDBRANCH   8  23
BRANCH   1  27
HETATM   27  C   UNL     1      38.035 -13.073  -0.684  1.00  0.00    -0.035 A 
HETATM   28  C   UNL     1      37.427 -11.848  -1.008  1.00  0.00     0.010 A 
HETATM   29  C   UNL     1      36.947 -11.597  -2.297  1.00  0.00     0.007 A 
HETATM   30  C   UNL     1      37.058 -12.568  -3.296  1.00  0.00    -0.062 A 
HETATM   31  C   UNL     1      36.573 -12.302  -4.690  1.00  0.00     0.048 C 
HETATM   32  C   UNL     1      37.672 -13.785  -2.988  1.00  0.00     0.007 A 
HETATM   33  C   UNL     1      38.145 -14.037  -1.696  1.00  0.00     0.010 A 
ENDBRANCH   1  27
TORSDOF 5
ENDMDL
MODEL 8
REMARK VINA RESULT:      -8.1      3.927      9.032
REMARK  5 active torsions:
REMARK  status: ('A' for Active; 'I' for Inactive)
REMARK    1  A    between atoms: C_5  and  C_6 
REMARK    2  A    between atoms: C_11  and  C_12 
REMARK       I    between atoms: C_12  and  N_13 
REMARK    3  A    between atoms: N_13  and  C_14 
REMARK    4  A    between atoms: C_16  and  O_17 
REMARK    5  A    between atoms: C_23  and  C_24 
ROOT
HETATM    1  C   UNL     1      39.648 -14.273  -2.439  1.00  0.00     0.118 C 
HETATM    2  N   UNL     1      40.510 -15.304  -1.872  1.00  0.00    -0.366 N 
HETATM    3  C   UNL     1      40.651 -15.490  -0.544  1.00  0.00     0.123 A 
HETATM    4  N   UNL     1      39.959 -14.743   0.366  1.00  0.00    -0.240 N 
HETATM    5  N   UNL     1      40.174 -15.104   1.647  1.00  0.00    -0.165 NA
HETATM    6  C   UNL     1      41.093 -16.093   1.544  1.00  0.00     0.148 A 
HETATM    7  C   UNL     1      41.413 -16.361   0.186  1.00  0.00     0.089 A 
HETATM    8  C   UNL     1      39.028 -13.690   0.013  1.00  0.00     0.221 C 
HETATM    9  C   UNL     1      38.553 -13.855  -1.442  1.00  0.00     0.066 C 
HETATM   10  H   UNL     1      41.113 -15.784  -2.540  1.00  0.00     0.161 HD
ENDROOT
BRANCH   6  11
HETATM   11  C   UNL     1      41.651 -16.771   2.729  1.00  0.00     0.276 C 
HETATM   12  N   UNL     1      42.724 -17.578   2.405  1.00  0.00    -0.322 N 
HETATM   13  H   UNL     1      42.943 -17.577   1.410  1.00  0.00     0.169 HD
HETATM   14  O   UNL     1      41.171 -16.603   3.844  1.00  0.00    -0.266 OA
BRANCH  12  15
HETATM   15  C   UNL     1      43.503 -18.379   3.256  1.00  0.00     0.037 A 
HETATM   16  C   UNL     1      43.959 -17.966   4.510  1.00  0.00     0.066 A 
HETATM   17  C   UNL     1      44.729 -18.831   5.288  1.00  0.00     0.067 A 
HETATM   18  C   UNL     1      45.053 -20.104   4.838  1.00  0.00     0.036 A 
HETATM   19  C   UNL     1      44.602 -20.524   3.589  1.00  0.00     0.005 A 
HETATM   20  C   UNL     1      43.832 -19.664   2.801  1.00  0.00     0.029 A 
BRANCH  17  21
HETATM   21  O   UNL     1      45.190 -18.456   6.516  1.00  0.00    -0.361 OA
HETATM   22  H   UNL     1      44.456 -18.048   7.006  1.00  0.00     0.217 HD
ENDBRANCH  17  21
ENDBRANCH  12  15
ENDBRANCH   6  11
BRANCH   8  23
HETATM   23  C   UNL     1      39.630 -12.337   0.319  1.00  0.00     0.409 C 
HETATM   24  F   UNL     1      39.412 -11.910   1.576  1.00  0.00    -0.169 F 
HETATM   25  F   UNL     1      40.974 -12.369   0.131  1.00  0.00    -0.169 F 
HETATM   26  F   UNL     1      39.158 -11.381  -0.516  1.00  0.00    -0.169 F 
ENDBRANCH   8  23
BRANCH   1  27
HETATM   27  C   UNL     1      40.428 -13.126  -3.054  1.00  0.00    -0.035 A 
HETATM   28  C   UNL     1      39.730 -12.115  -3.737  1.00  0.00     0.010 A 
HETATM   29  C   UNL     1      40.406 -11.053  -4.345  1.00  0.00     0.007 A 
HETATM   30  C   UNL     1      41.800 -10.976  -4.290  1.00  0.00    -0.062 A 
HETATM   31  C   UNL     1      42.536  -9.827  -4.913  1.00  0.00     0.048 C 
HETATM   32  C   UNL     1      42.503 -11.968  -3.602  1.00  0.00     0.007 A 
HETATM   33  C   UNL     1      41.827 -13.035  -3.002  1.00  0.00     0.010 A 
ENDBRANCH   1  27
TORSDOF 5
ENDMDL
MODEL 9
REMARK VINA RESULT:      -8.1      3.696      9.073
REMARK  5 active torsions:
REMARK  status: ('A' for Active; 'I' for Inactive)
REMARK    1  A    between atoms: C_5  and  C_6 
REMARK    2  A    between atoms: C_11  and  C_12 
REMARK       I    between atoms: C_12  and  N_13 
REMARK    3  A    between atoms: N_13  and  C_14 
REMARK    4  A    between atoms: C_16  and  O_17 
REMARK    5  A    between atoms: C_23  and  C_24 
ROOT
HETATM    1  C   UNL     1      39.853 -14.356  -1.199  1.00  0.00     0.118 C 
HETATM    2  N   UNL     1      40.650 -15.537  -0.885  1.00  0.00    -0.366 N 
HETATM    3  C   UNL     1      41.206 -15.743   0.325  1.00  0.00     0.123 A 
HETATM    4  N   UNL     1      41.026 -14.869   1.359  1.00  0.00    -0.240 N 
HETATM    5  N   UNL     1      41.602 -15.262   2.514  1.00  0.00    -0.165 NA
HETATM    6  C   UNL     1      42.225 -16.416   2.177  1.00  0.00     0.148 A 
HETATM    7  C   UNL     1      41.997 -16.747   0.814  1.00  0.00     0.089 A 
HETATM    8  C   UNL     1      40.245 -13.652   1.269  1.00  0.00     0.221 C 
HETATM    9  C   UNL     1      39.272 -13.723   0.078  1.00  0.00     0.066 C 
HETATM   10  H   UNL     1      40.881 -16.130  -1.682  1.00  0.00     0.161 HD
ENDROOT
BRANCH   6  11
HETATM   11  C   UNL     1      43.023 -17.188   3.147  1.00  0.00     0.276 C 
HETATM   12  N   UNL     1      42.465 -17.164   4.410  1.00  0.00    -0.322 N 
HETATM   13  H   UNL     1      41.609 -16.614   4.462  1.00  0.00     0.169 HD
HETATM   14  O   UNL     1      44.055 -17.758   2.813  1.00  0.00    -0.266 OA
BRANCH  12  15
HETATM   15  C   UNL     1      42.936 -17.772   5.586  1.00  0.00     0.037 A 
HETATM   16  C   UNL     1      42.974 -17.136   6.829  1.00  0.00     0.066 A 
HETATM   17  C   UNL     1      43.459 -17.819   7.944  1.00  0.00     0.067 A 
HETATM   18  C   UNL     1      43.908 -19.129   7.843  1.00  0.00     0.036 A 
HETATM   19  C   UNL     1      43.874 -19.771   6.608  1.00  0.00     0.005 A 
HETATM   20  C   UNL     1      43.392 -19.094   5.484  1.00  0.00     0.029 A 
BRANCH  17  21
HETATM   21  O   UNL     1      43.509 -17.224   9.171  1.00  0.00    -0.361 OA
HETATM   22  H   UNL     1      42.797 -16.564   9.219  1.00  0.00     0.217 HD
ENDBRANCH  17  21
ENDBRANCH  12  15
ENDBRANCH   6  11
BRANCH   8  23
HETATM   23  C   UNL     1      41.157 -12.446   1.253  1.00  0.00     0.409 C 
HETATM   24  F   UNL     1      42.405 -12.707   0.824  1.00  0.00    -0.169 F 
HETATM   25  F   UNL     1      40.645 -11.483   0.443  1.00  0.00    -0.169 F 
HETATM   26  F   UNL     1      41.264 -11.886   2.481  1.00  0.00    -0.169 F 
ENDBRANCH   8  23
BRANCH   1  27
HETATM   27  C   UNL     1      40.571 -13.391  -2.124  1.00  0.00    -0.035 A 
HETATM   28  C   UNL     1      39.810 -12.518  -2.922  1.00  0.00     0.010 A 
HETATM   29  C   UNL     1      40.424 -11.631  -3.811  1.00  0.00     0.007 A 
HETATM   30  C   UNL     1      41.815 -11.595  -3.929  1.00  0.00    -0.062 A 
HETATM   31  C   UNL     1      42.488 -10.628  -4.858  1.00  0.00     0.048 C 
HETATM   32  C   UNL     1      42.582 -12.449  -3.131  1.00  0.00     0.007 A 
HETATM   33  C   UNL     1      41.966 -13.342  -2.248  1.00  0.00     0.010 A 
ENDBRANCH   1  27
TORSDOF 5
ENDMDL
MODEL 10
REMARK VINA RESULT:      -7.9      4.897      9.100
REMARK  5 active torsions:
REMARK  status: ('A' for Active; 'I' for Inactive)
REMARK    1  A    between atoms: C_5  and  C_6 
REMARK    2  A    between atoms: C_11  and  C_12 
REMARK       I    between atoms: C_12  and  N_13 
REMARK    3  A    between atoms: N_13  and  C_14 
REMARK    4  A    between atoms: C_16  and  O_17 
REMARK    5  A    between atoms: C_23  and  C_24 
ROOT
HETATM    1  C   UNL     1      39.933 -15.565   3.372  1.00  0.00     0.118 C 
HETATM    2  N   UNL     1      40.077 -15.090   4.743  1.00  0.00    -0.366 N 
HETATM    3  C   UNL     1      40.573 -13.874   5.046  1.00  0.00     0.123 A 
HETATM    4  N   UNL     1      40.941 -12.983   4.078  1.00  0.00    -0.240 N 
HETATM    5  N   UNL     1      41.357 -11.794   4.558  1.00  0.00    -0.165 NA
HETATM    6  C   UNL     1      41.304 -11.962   5.901  1.00  0.00     0.148 A 
HETATM    7  C   UNL     1      40.816 -13.252   6.242  1.00  0.00     0.089 A 
HETATM    8  C   UNL     1      40.849 -13.244   2.656  1.00  0.00     0.221 C 
HETATM    9  C   UNL     1      39.857 -14.390   2.381  1.00  0.00     0.066 C 
HETATM   10  H   UNL     1      39.914 -15.790   5.466  1.00  0.00     0.161 HD
ENDROOT
BRANCH   6  11
HETATM   11  C   UNL     1      41.711 -10.900   6.840  1.00  0.00     0.276 C 
HETATM   12  N   UNL     1      41.958 -11.397   8.105  1.00  0.00    -0.322 N 
HETATM   13  H   UNL     1      41.810 -12.402   8.180  1.00  0.00     0.169 HD
HETATM   14  O   UNL     1      41.796  -9.731   6.483  1.00  0.00    -0.266 OA
BRANCH  12  15
HETATM   15  C   UNL     1      42.356 -10.697   9.256  1.00  0.00     0.037 A 
HETATM   16  C   UNL     1      41.557  -9.753   9.907  1.00  0.00     0.066 A 
HETATM   17  C   UNL     1      42.036  -9.106  11.046  1.00  0.00     0.067 A 
HETATM   18  C   UNL     1      43.300  -9.383  11.550  1.00  0.00     0.036 A 
HETATM   19  C   UNL     1      44.103 -10.321  10.908  1.00  0.00     0.005 A 
HETATM   20  C   UNL     1      43.633 -10.974   9.764  1.00  0.00     0.029 A 
BRANCH  17  21
HETATM   21  O   UNL     1      41.280  -8.180  11.703  1.00  0.00    -0.361 OA
HETATM   22  H   UNL     1      41.090  -7.450  11.089  1.00  0.00     0.217 HD
ENDBRANCH  17  21
ENDBRANCH  12  15
ENDBRANCH   6  11
BRANCH   8  23
HETATM   23  C   UNL     1      42.227 -13.465   2.075  1.00  0.00     0.409 C 
HETATM   24  F   UNL     1      43.103 -14.016   2.933  1.00  0.00    -0.169 F 
HETATM   25  F   UNL     1      42.153 -14.283   0.993  1.00  0.00    -0.169 F 
HETATM   26  F   UNL     1      42.772 -12.307   1.632  1.00  0.00    -0.169 F 
ENDBRANCH   8  23
BRANCH   1  27
HETATM   27  C   UNL     1      40.939 -16.643   3.013  1.00  0.00    -0.035 A 
HETATM   28  C   UNL     1      40.989 -17.117   1.690  1.00  0.00     0.010 A 
HETATM   29  C   UNL     1      41.879 -18.128   1.318  1.00  0.00     0.007 A 
HETATM   30  C   UNL     1      42.740 -18.697   2.259  1.00  0.00    -0.062 A 
HETATM   31  C   UNL     1      43.719 -19.763   1.867  1.00  0.00     0.048 C 
HETATM   32  C   UNL     1      42.708 -18.225   3.574  1.00  0.00     0.007 A 
HETATM   33  C   UNL     1      41.812 -17.219   3.948  1.00  0.00     0.010 A 
ENDBRANCH   1  27
TORSDOF 5
ENDMDL
