MODEL 1
REMARK VINA RESULT:      -9.0      0.000      0.000
REMARK  5 active torsions:
REMARK  status: ('A' for Active; 'I' for Inactive)
REMARK    1  A    between atoms: C_5  and  N_6 
REMARK       I    between atoms: N_6  and  C_7 
REMARK       I    between atoms: C_7  and  N_8 
REMARK    2  A    between atoms: N_8  and  C_9 
REMARK    3  A    between atoms: C_11  and  C_12 
REMARK       I    between atoms: C_12  and  N_13 
REMARK    4  A    between atoms: N_13  and  C_14 
REMARK    5  A    between atoms: C_14  and  C_15 
ROOT
HETATM    1  C   UNL     1      44.660 -13.654   7.572  1.00  0.00     0.175 A 
HETATM    2  S   UNL     1      44.138 -13.660   5.956  1.00  0.00    -0.044 SA
HETATM    3  C   UNL     1      43.470 -15.229   6.191  1.00  0.00     0.100 A 
HETATM    4  C   UNL     1      43.730 -15.647   7.491  1.00  0.00     0.056 A 
HETATM    5  C   UNL     1      43.344 -16.945   8.108  1.00  0.00     0.072 C 
HETATM    6  N   UNL     1      44.414 -14.727   8.278  1.00  0.00    -0.228 NA
ENDROOT
BRANCH   1   7
HETATM    7  N   UNL     1      45.280 -12.511   7.980  1.00  0.00    -0.287 N 
HETATM    8  C   UNL     1      44.889 -11.704   9.012  1.00  0.00     0.326 C 
HETATM    9  N   UNL     1      43.792 -12.104   9.727  1.00  0.00    -0.309 N 
HETATM   10  O   UNL     1      45.547 -10.683   9.207  1.00  0.00    -0.247 OA
HETATM   11  H   UNL     1      43.417 -13.012   9.462  1.00  0.00     0.170 HD
HETATM   12  H   UNL     1      46.075 -12.182   7.454  1.00  0.00     0.172 HD
BRANCH   9  13
HETATM   13  C   UNL     1      43.123 -11.429  10.764  1.00  0.00     0.036 A 
HETATM   14  C   UNL     1      43.560 -11.403  12.088  1.00  0.00     0.030 A 
HETATM   15  C   UNL     1      42.850 -10.681  13.055  1.00  0.00     0.009 A 
HETATM   16  C   UNL     1      41.695  -9.970  12.712  1.00  0.00    -0.062 A 
HETATM   17  C   UNL     1      40.935  -9.216  13.761  1.00  0.00     0.048 C 
HETATM   18  C   UNL     1      41.248 -10.010  11.389  1.00  0.00     0.009 A 
HETATM   19  C   UNL     1      41.960 -10.729  10.423  1.00  0.00     0.030 A 
ENDBRANCH   9  13
ENDBRANCH   1   7
BRANCH   3  20
HETATM   20  C   UNL     1      42.754 -15.943   5.148  1.00  0.00     0.260 C 
HETATM   21  N   UNL     1      43.525 -16.690   4.283  1.00  0.00    -0.352 N 
HETATM   22  H   UNL     1      44.533 -16.625   4.347  1.00  0.00     0.163 HD
HETATM   23  O   UNL     1      41.533 -15.887   5.017  1.00  0.00    -0.267 OA
BRANCH  21  24
HETATM   24  C   UNL     1      42.943 -17.336   3.132  1.00  0.00     0.161 C 
BRANCH  24  25
HETATM   25  C   UNL     1      43.430 -18.755   3.003  1.00  0.00    -0.040 A 
HETATM   26  C   UNL     1      44.262 -19.304   3.992  1.00  0.00     0.010 A 
HETATM   27  C   UNL     1      44.721 -20.619   3.883  1.00  0.00     0.024 A 
HETATM   28  C   UNL     1      44.351 -21.391   2.784  1.00  0.00     0.034 A 
HETATM   29 CL   UNL     1      44.910 -23.013   2.652  1.00  0.00    -0.084 Cl
HETATM   30  C   UNL     1      43.530 -20.859   1.792  1.00  0.00     0.024 A 
HETATM   31  C   UNL     1      43.073 -19.542   1.899  1.00  0.00     0.010 A 
ENDBRANCH  24  25
ENDBRANCH  21  24
ENDBRANCH   3  20
TORSDOF 5
ENDMDL
MODEL 2
REMARK VINA RESULT:      -8.9      2.368      2.707
REMARK  5 active torsions:
REMARK  status: ('A' for Active; 'I' for Inactive)
REMARK    1  A    between atoms: C_5  and  N_6 
REMARK       I    between atoms: N_6  and  C_7 
REMARK       I    between atoms: C_7  and  N_8 
REMARK    2  A    between atoms: N_8  and  C_9 
REMARK    3  A    between atoms: C_11  and  C_12 
REMARK       I    between atoms: C_12  and  N_13 
REMARK    4  A    between atoms: N_13  and  C_14 
REMARK    5  A    between atoms: C_14  and  C_15 
ROOT
HETATM    1  C   UNL     1      41.424 -12.367   5.342  1.00  0.00     0.175 A 
HETATM    2  S   UNL     1      42.127 -12.852   3.874  1.00  0.00    -0.044 SA
HETATM    3  C   UNL     1      41.696 -14.482   4.221  1.00  0.00     0.100 A 
HETATM    4  C   UNL     1      41.070 -14.536   5.461  1.00  0.00     0.056 A 
HETATM    5  C   UNL     1      40.551 -15.749   6.150  1.00  0.00     0.072 C 
HETATM    6  N   UNL     1      40.917 -13.309   6.096  1.00  0.00    -0.228 NA
ENDROOT
BRANCH   1   7
HETATM    7  N   UNL     1      41.448 -11.027   5.585  1.00  0.00    -0.287 N 
HETATM    8  C   UNL     1      41.825 -10.423   6.752  1.00  0.00     0.326 C 
HETATM    9  N   UNL     1      42.255 -11.245   7.760  1.00  0.00    -0.309 N 
HETATM   10  O   UNL     1      41.737  -9.198   6.805  1.00  0.00    -0.247 OA
HETATM   11  H   UNL     1      42.322 -12.228   7.510  1.00  0.00     0.170 HD
HETATM   12  H   UNL     1      41.112 -10.403   4.867  1.00  0.00     0.172 HD
BRANCH   9  13
HETATM   13  C   UNL     1      42.607 -10.909   9.080  1.00  0.00     0.036 A 
HETATM   14  C   UNL     1      43.912 -10.932   9.570  1.00  0.00     0.030 A 
HETATM   15  C   UNL     1      44.181 -10.552  10.890  1.00  0.00     0.009 A 
HETATM   16  C   UNL     1      43.149 -10.140  11.740  1.00  0.00    -0.062 A 
HETATM   17  C   UNL     1      43.448  -9.754  13.157  1.00  0.00     0.048 C 
HETATM   18  C   UNL     1      41.839 -10.134  11.255  1.00  0.00     0.009 A 
HETATM   19  C   UNL     1      41.572 -10.509   9.934  1.00  0.00     0.030 A 
ENDBRANCH   9  13
ENDBRANCH   1   7
BRANCH   3  20
HETATM   20  C   UNL     1      41.970 -15.579   3.308  1.00  0.00     0.260 C 
HETATM   21  N   UNL     1      43.247 -16.095   3.343  1.00  0.00    -0.352 N 
HETATM   22  H   UNL     1      43.946 -15.631   3.909  1.00  0.00     0.163 HD
HETATM   23  O   UNL     1      41.129 -16.027   2.531  1.00  0.00    -0.267 OA
BRANCH  21  24
HETATM   24  C   UNL     1      43.675 -17.095   2.395  1.00  0.00     0.161 C 
BRANCH  24  25
HETATM   25  C   UNL     1      44.024 -18.384   3.090  1.00  0.00    -0.040 A 
HETATM   26  C   UNL     1      44.196 -18.407   4.483  1.00  0.00     0.010 A 
HETATM   27  C   UNL     1      44.519 -19.598   5.139  1.00  0.00     0.024 A 
HETATM   28  C   UNL     1      44.674 -20.771   4.404  1.00  0.00     0.034 A 
HETATM   29 CL   UNL     1      45.067 -22.239   5.211  1.00  0.00    -0.084 Cl
HETATM   30  C   UNL     1      44.512 -20.763   3.020  1.00  0.00     0.024 A 
HETATM   31  C   UNL     1      44.191 -19.572   2.364  1.00  0.00     0.010 A 
ENDBRANCH  24  25
ENDBRANCH  21  24
ENDBRANCH   3  20
TORSDOF 5
ENDMDL
MODEL 3
REMARK VINA RESULT:      -8.6      3.234      3.874
REMARK  5 active torsions:
REMARK  status: ('A' for Active; 'I' for Inactive)
REMARK    1  A    between atoms: C_5  and  N_6 
REMARK       I    between atoms: N_6  and  C_7 
REMARK       I    between atoms: C_7  and  N_8 
REMARK    2  A    between atoms: N_8  and  C_9 
REMARK    3  A    between atoms: C_11  and  C_12 
REMARK       I    between atoms: C_12  and  N_13 
REMARK    4  A    between atoms: N_13  and  C_14 
REMARK    5  A    between atoms: C_14  and  C_15 
ROOT
HETATM    1  C   UNL     1      44.573 -14.401   7.004  1.00  0.00     0.175 A 
HETATM    2  S   UNL     1      43.620 -14.034   5.647  1.00  0.00    -0.044 SA
HETATM    3  C   UNL     1      42.712 -15.472   5.911  1.00  0.00     0.100 A 
HETATM    4  C   UNL     1      43.234 -16.148   7.008  1.00  0.00     0.056 A 
HETATM    5  C   UNL     1      42.760 -17.441   7.571  1.00  0.00     0.072 C 
HETATM    6  N   UNL     1      44.305 -15.518   7.631  1.00  0.00    -0.228 NA
ENDROOT
BRANCH   1   7
HETATM    7  N   UNL     1      45.526 -13.478   7.314  1.00  0.00    -0.287 N 
HETATM    8  C   UNL     1      45.489 -12.600   8.362  1.00  0.00     0.326 C 
HETATM    9  N   UNL     1      44.409 -12.683   9.199  1.00  0.00    -0.309 N 
HETATM   10  O   UNL     1      46.421 -11.803   8.460  1.00  0.00    -0.247 OA
HETATM   11  H   UNL     1      43.771 -13.450   8.999  1.00  0.00     0.170 HD
HETATM   12  H   UNL     1      46.318 -13.379   6.698  1.00  0.00     0.172 HD
BRANCH   9  13
HETATM   13  C   UNL     1      44.070 -11.855  10.284  1.00  0.00     0.036 A 
HETATM   14  C   UNL     1      43.996 -10.464  10.212  1.00  0.00     0.030 A 
HETATM   15  C   UNL     1      43.622  -9.715  11.333  1.00  0.00     0.009 A 
HETATM   16  C   UNL     1      43.311 -10.344  12.543  1.00  0.00    -0.062 A 
HETATM   17  C   UNL     1      42.928  -9.528  13.741  1.00  0.00     0.048 C 
HETATM   18  C   UNL     1      43.402 -11.736  12.621  1.00  0.00     0.009 A 
HETATM   19  C   UNL     1      43.773 -12.484  11.498  1.00  0.00     0.030 A 
ENDBRANCH   9  13
ENDBRANCH   1   7
BRANCH   3  20
HETATM   20  C   UNL     1      41.584 -15.853   5.079  1.00  0.00     0.260 C 
HETATM   21  N   UNL     1      41.891 -16.440   3.870  1.00  0.00    -0.352 N 
HETATM   22  H   UNL     1      42.859 -16.481   3.579  1.00  0.00     0.163 HD
HETATM   23  O   UNL     1      40.415 -15.659   5.408  1.00  0.00    -0.267 OA
BRANCH  21  24
HETATM   24  C   UNL     1      40.862 -16.742   2.904  1.00  0.00     0.161 C 
BRANCH  24  25
HETATM   25  C   UNL     1      41.064 -15.957   1.636  1.00  0.00    -0.040 A 
HETATM   26  C   UNL     1      41.091 -14.553   1.675  1.00  0.00     0.010 A 
HETATM   27  C   UNL     1      41.277 -13.814   0.505  1.00  0.00     0.024 A 
HETATM   28  C   UNL     1      41.436 -14.474  -0.711  1.00  0.00     0.034 A 
HETATM   29 CL   UNL     1      41.672 -13.565  -2.153  1.00  0.00    -0.084 Cl
HETATM   30  C   UNL     1      41.406 -15.866  -0.768  1.00  0.00     0.024 A 
HETATM   31  C   UNL     1      41.217 -16.606   0.402  1.00  0.00     0.010 A 
ENDBRANCH  24  25
ENDBRANCH  21  24
ENDBRANCH   3  20
TORSDOF 5
ENDMDL
MODEL 4
REMARK VINA RESULT:      -8.3      4.662      8.819
REMARK  5 active torsions:
REMARK  status: ('A' for Active; 'I' for Inactive)
REMARK    1  A    between atoms: C_5  and  N_6 
REMARK       I    between atoms: N_6  and  C_7 
REMARK       I    between atoms: C_7  and  N_8 
REMARK    2  A    between atoms: N_8  and  C_9 
REMARK    3  A    between atoms: C_11  and  C_12 
REMARK       I    between atoms: C_12  and  N_13 
REMARK    4  A    between atoms: N_13  and  C_14 
REMARK    5  A    between atoms: C_14  and  C_15 
ROOT
HETATM    1  C   UNL     1      41.853 -12.771   2.812  1.00  0.00     0.175 A 
HETATM    2  S   UNL     1      42.919 -14.060   3.105  1.00  0.00    -0.044 SA
HETATM    3  C   UNL     1      42.019 -14.467   4.515  1.00  0.00     0.100 A 
HETATM    4  C   UNL     1      40.982 -13.555   4.674  1.00  0.00     0.056 A 
HETATM    5  C   UNL     1      39.973 -13.529   5.769  1.00  0.00     0.072 C 
HETATM    6  N   UNL     1      40.896 -12.584   3.684  1.00  0.00    -0.228 NA
ENDROOT
BRANCH   1   7
HETATM    7  N   UNL     1      42.099 -12.058   1.677  1.00  0.00    -0.287 N 
HETATM    8  C   UNL     1      41.700 -12.390   0.412  1.00  0.00     0.326 C 
HETATM    9  N   UNL     1      40.950 -13.528   0.281  1.00  0.00    -0.309 N 
HETATM   10  O   UNL     1      42.055 -11.648  -0.502  1.00  0.00    -0.247 OA
HETATM   11  H   UNL     1      40.699 -13.978   1.157  1.00  0.00     0.170 HD
HETATM   12  H   UNL     1      42.670 -11.230   1.744  1.00  0.00     0.172 HD
BRANCH   9  13
HETATM   13  C   UNL     1      40.492 -14.150  -0.895  1.00  0.00     0.036 A 
HETATM   14  C   UNL     1      41.208 -15.120  -1.596  1.00  0.00     0.030 A 
HETATM   15  C   UNL     1      40.665 -15.711  -2.743  1.00  0.00     0.009 A 
HETATM   16  C   UNL     1      39.397 -15.344  -3.206  1.00  0.00    -0.062 A 
HETATM   17  C   UNL     1      38.836 -15.972  -4.445  1.00  0.00     0.048 C 
HETATM   18  C   UNL     1      38.687 -14.359  -2.514  1.00  0.00     0.009 A 
HETATM   19  C   UNL     1      39.229 -13.772  -1.365  1.00  0.00     0.030 A 
ENDBRANCH   9  13
ENDBRANCH   1   7
BRANCH   3  20
HETATM   20  C   UNL     1      42.348 -15.605   5.357  1.00  0.00     0.260 C 
HETATM   21  N   UNL     1      43.489 -16.300   5.020  1.00  0.00    -0.352 N 
HETATM   22  H   UNL     1      43.974 -16.060   4.165  1.00  0.00     0.163 HD
HETATM   23  O   UNL     1      41.655 -15.952   6.311  1.00  0.00    -0.267 OA
BRANCH  21  24
HETATM   24  C   UNL     1      43.847 -17.522   5.700  1.00  0.00     0.161 C 
BRANCH  24  25
HETATM   25  C   UNL     1      44.036 -18.650   4.722  1.00  0.00    -0.040 A 
HETATM   26  C   UNL     1      44.762 -19.792   5.098  1.00  0.00     0.010 A 
HETATM   27  C   UNL     1      44.944 -20.845   4.199  1.00  0.00     0.024 A 
HETATM   28  C   UNL     1      44.403 -20.761   2.918  1.00  0.00     0.034 A 
HETATM   29 CL   UNL     1      44.621 -22.060   1.811  1.00  0.00    -0.084 Cl
HETATM   30  C   UNL     1      43.685 -19.632   2.528  1.00  0.00     0.024 A 
HETATM   31  C   UNL     1      43.505 -18.577   3.426  1.00  0.00     0.010 A 
ENDBRANCH  24  25
ENDBRANCH  21  24
ENDBRANCH   3  20
TORSDOF 5
ENDMDL
MODEL 5
REMARK VINA RESULT:      -8.2      5.585      9.400
REMARK  5 active torsions:
REMARK  status: ('A' for Active; 'I' for Inactive)
REMARK    1  A    between atoms: C_5  and  N_6 
REMARK       I    between atoms: N_6  and  C_7 
REMARK       I    between atoms: C_7  and  N_8 
REMARK    2  A    between atoms: N_8  and  C_9 
REMARK    3  A    between atoms: C_11  and  C_12 
REMARK       I    between atoms: C_12  and  N_13 
REMARK    4  A    between atoms: N_13  and  C_14 
REMARK    5  A    between atoms: C_14  and  C_15 
ROOT
HETATM    1  C   UNL     1      39.063 -14.415   1.693  1.00  0.00     0.175 A 
HETATM    2  S   UNL     1      39.888 -15.863   2.023  1.00  0.00    -0.044 SA
HETATM    3  C   UNL     1      40.414 -15.205   3.524  1.00  0.00     0.100 A 
HETATM    4  C   UNL     1      39.941 -13.903   3.644  1.00  0.00     0.056 A 
HETATM    5  C   UNL     1      40.176 -12.967   4.777  1.00  0.00     0.072 C 
HETATM    6  N   UNL     1      39.161 -13.461   2.582  1.00  0.00    -0.228 NA
ENDROOT
BRANCH   1   7
HETATM    7  N   UNL     1      38.362 -14.398   0.524  1.00  0.00    -0.287 N 
HETATM    8  C   UNL     1      38.784 -13.866  -0.663  1.00  0.00     0.326 C 
HETATM    9  N   UNL     1      40.045 -13.335  -0.687  1.00  0.00    -0.309 N 
HETATM   10  O   UNL     1      37.994 -13.899  -1.606  1.00  0.00    -0.247 OA
HETATM   11  H   UNL     1      40.578 -13.458   0.171  1.00  0.00     0.170 HD
HETATM   12  H   UNL     1      37.421 -14.760   0.523  1.00  0.00     0.172 HD
BRANCH   9  13
HETATM   13  C   UNL     1      40.691 -12.647  -1.731  1.00  0.00     0.036 A 
HETATM   14  C   UNL     1      41.699 -13.197  -2.522  1.00  0.00     0.030 A 
HETATM   15  C   UNL     1      42.270 -12.453  -3.562  1.00  0.00     0.009 A 
HETATM   16  C   UNL     1      41.838 -11.150  -3.830  1.00  0.00    -0.062 A 
HETATM   17  C   UNL     1      42.469 -10.359  -4.935  1.00  0.00     0.048 C 
HETATM   18  C   UNL     1      40.840 -10.593  -3.026  1.00  0.00     0.009 A 
HETATM   19  C   UNL     1      40.268 -11.339  -1.990  1.00  0.00     0.030 A 
ENDBRANCH   9  13
ENDBRANCH   1   7
BRANCH   3  20
HETATM   20  C   UNL     1      41.220 -15.956   4.472  1.00  0.00     0.260 C 
HETATM   21  N   UNL     1      42.460 -16.360   4.029  1.00  0.00    -0.352 N 
HETATM   22  H   UNL     1      42.704 -16.214   3.058  1.00  0.00     0.163 HD
HETATM   23  O   UNL     1      40.831 -16.236   5.604  1.00  0.00    -0.267 OA
BRANCH  21  24
HETATM   24  C   UNL     1      43.296 -17.221   4.831  1.00  0.00     0.161 C 
BRANCH  24  25
HETATM   25  C   UNL     1      43.648 -18.480   4.086  1.00  0.00    -0.040 A 
HETATM   26  C   UNL     1      44.493 -19.433   4.677  1.00  0.00     0.010 A 
HETATM   27  C   UNL     1      44.828 -20.606   3.995  1.00  0.00     0.024 A 
HETATM   28  C   UNL     1      44.319 -20.830   2.718  1.00  0.00     0.034 A 
HETATM   29 CL   UNL     1      44.725 -22.277   1.879  1.00  0.00    -0.084 Cl
HETATM   30  C   UNL     1      43.484 -19.892   2.115  1.00  0.00     0.024 A 
HETATM   31  C   UNL     1      43.152 -18.718   2.796  1.00  0.00     0.010 A 
ENDBRANCH  24  25
ENDBRANCH  21  24
ENDBRANCH   3  20
TORSDOF 5
ENDMDL
MODEL 6
REMARK VINA RESULT:      -8.0      3.699      4.795
REMARK  5 active torsions:
REMARK  status: ('A' for Active; 'I' for Inactive)
REMARK    1  A    between atoms: C_5  and  N_6 
REMARK       I    between atoms: N_6  and  C_7 
REMARK       I    between atoms: C_7  and  N_8 
REMARK    2  A    between atoms: N_8  and  C_9 
REMARK    3  A    between atoms: C_11  and  C_12 
REMARK       I    between atoms: C_12  and  N_13 
REMARK    4  A    between atoms: N_13  and  C_14 
REMARK    5  A    between atoms: C_14  and  C_15 
ROOT
HETATM    1  C   UNL     1      44.737 -14.002   7.353  1.00  0.00     0.175 A 
HETATM    2  S   UNL     1      44.169 -13.951   5.754  1.00  0.00    -0.044 SA
HETATM    3  C   UNL     1      43.358 -15.448   6.007  1.00  0.00     0.100 A 
HETATM    4  C   UNL     1      43.614 -15.894   7.299  1.00  0.00     0.056 A 
HETATM    5  C   UNL     1      43.121 -17.151   7.926  1.00  0.00     0.072 C 
HETATM    6  N   UNL     1      44.408 -15.049   8.065  1.00  0.00    -0.228 NA
ENDROOT
BRANCH   1   7
HETATM    7  N   UNL     1      45.478 -12.928   7.743  1.00  0.00    -0.287 N 
HETATM    8  C   UNL     1      45.155 -12.037   8.730  1.00  0.00     0.326 C 
HETATM    9  N   UNL     1      43.992 -12.272   9.415  1.00  0.00    -0.309 N 
HETATM   10  O   UNL     1      45.925 -11.097   8.913  1.00  0.00    -0.247 OA
HETATM   11  H   UNL     1      43.518 -13.138   9.169  1.00  0.00     0.170 HD
HETATM   12  H   UNL     1      46.325 -12.719   7.237  1.00  0.00     0.172 HD
BRANCH   9  13
HETATM   13  C   UNL     1      43.376 -11.480  10.400  1.00  0.00     0.036 A 
HETATM   14  C   UNL     1      43.804 -11.408  11.725  1.00  0.00     0.030 A 
HETATM   15  C   UNL     1      43.151 -10.569  12.637  1.00  0.00     0.009 A 
HETATM   16  C   UNL     1      42.064  -9.786  12.236  1.00  0.00    -0.062 A 
HETATM   17  C   UNL     1      41.363  -8.905  13.227  1.00  0.00     0.048 C 
HETATM   18  C   UNL     1      41.624  -9.871  10.913  1.00  0.00     0.009 A 
HETATM   19  C   UNL     1      42.279 -10.706  10.002  1.00  0.00     0.030 A 
ENDBRANCH   9  13
ENDBRANCH   1   7
BRANCH   3  20
HETATM   20  C   UNL     1      42.545 -16.084   4.985  1.00  0.00     0.260 C 
HETATM   21  N   UNL     1      41.615 -15.282   4.360  1.00  0.00    -0.352 N 
HETATM   22  H   UNL     1      41.471 -14.341   4.705  1.00  0.00     0.163 HD
HETATM   23  O   UNL     1      42.654 -17.273   4.689  1.00  0.00    -0.267 OA
BRANCH  21  24
HETATM   24  C   UNL     1      40.664 -15.830   3.424  1.00  0.00     0.161 C 
BRANCH  24  25
HETATM   25  C   UNL     1      39.813 -14.746   2.820  1.00  0.00    -0.040 A 
HETATM   26  C   UNL     1      38.960 -15.040   1.744  1.00  0.00     0.010 A 
HETATM   27  C   UNL     1      38.165 -14.042   1.175  1.00  0.00     0.024 A 
HETATM   28  C   UNL     1      38.221 -12.744   1.678  1.00  0.00     0.034 A 
HETATM   29 CL   UNL     1      37.239 -11.515   0.982  1.00  0.00    -0.084 Cl
HETATM   30  C   UNL     1      39.066 -12.435   2.741  1.00  0.00     0.024 A 
HETATM   31  C   UNL     1      39.863 -13.433   3.309  1.00  0.00     0.010 A 
ENDBRANCH  24  25
ENDBRANCH  21  24
ENDBRANCH   3  20
TORSDOF 5
ENDMDL
MODEL 7
REMARK VINA RESULT:      -8.0      2.716      3.330
REMARK  5 active torsions:
REMARK  status: ('A' for Active; 'I' for Inactive)
REMARK    1  A    between atoms: C_5  and  N_6 
REMARK       I    between atoms: N_6  and  C_7 
REMARK       I    between atoms: C_7  and  N_8 
REMARK    2  A    between atoms: N_8  and  C_9 
REMARK    3  A    between atoms: C_11  and  C_12 
REMARK       I    between atoms: C_12  and  N_13 
REMARK    4  A    between atoms: N_13  and  C_14 
REMARK    5  A    between atoms: C_14  and  C_15 
ROOT
HETATM    1  C   UNL     1      42.066 -12.695   4.440  1.00  0.00     0.175 A 
HETATM    2  S   UNL     1      41.479 -13.614   3.139  1.00  0.00    -0.044 SA
HETATM    3  C   UNL     1      42.160 -15.028   3.846  1.00  0.00     0.100 A 
HETATM    4  C   UNL     1      42.821 -14.679   5.019  1.00  0.00     0.056 A 
HETATM    5  C   UNL     1      43.560 -15.591   5.934  1.00  0.00     0.072 C 
HETATM    6  N   UNL     1      42.757 -13.331   5.351  1.00  0.00    -0.228 NA
ENDROOT
BRANCH   1   7
HETATM    7  N   UNL     1      41.746 -11.371   4.410  1.00  0.00    -0.287 N 
HETATM    8  C   UNL     1      41.333 -10.615   5.472  1.00  0.00     0.326 C 
HETATM    9  N   UNL     1      41.273 -11.241   6.688  1.00  0.00    -0.309 N 
HETATM   10  O   UNL     1      41.040  -9.442   5.247  1.00  0.00    -0.247 OA
HETATM   11  H   UNL     1      41.618 -12.198   6.694  1.00  0.00     0.170 HD
HETATM   12  H   UNL     1      41.757 -10.894   3.521  1.00  0.00     0.172 HD
BRANCH   9  13
HETATM   13  C   UNL     1      40.800 -10.739   7.914  1.00  0.00     0.036 A 
HETATM   14  C   UNL     1      39.486 -10.879   8.360  1.00  0.00     0.030 A 
HETATM   15  C   UNL     1      39.104 -10.375   9.609  1.00  0.00     0.009 A 
HETATM   16  C   UNL     1      40.030  -9.727  10.433  1.00  0.00    -0.062 A 
HETATM   17  C   UNL     1      39.603  -9.177  11.760  1.00  0.00     0.048 C 
HETATM   18  C   UNL     1      41.342  -9.571   9.979  1.00  0.00     0.009 A 
HETATM   19  C   UNL     1      41.724 -10.079   8.732  1.00  0.00     0.030 A 
ENDBRANCH   9  13
ENDBRANCH   1   7
BRANCH   3  20
HETATM   20  C   UNL     1      42.020 -16.348   3.256  1.00  0.00     0.260 C 
HETATM   21  N   UNL     1      43.137 -16.855   2.628  1.00  0.00    -0.352 N 
HETATM   22  H   UNL     1      43.947 -16.259   2.517  1.00  0.00     0.163 HD
HETATM   23  O   UNL     1      40.971 -16.988   3.291  1.00  0.00    -0.267 OA
BRANCH  21  24
HETATM   24  C   UNL     1      43.083 -18.096   1.894  1.00  0.00     0.161 C 
BRANCH  24  25
HETATM   25  C   UNL     1      43.657 -19.228   2.703  1.00  0.00    -0.040 A 
HETATM   26  C   UNL     1      43.843 -20.489   2.113  1.00  0.00     0.010 A 
HETATM   27  C   UNL     1      44.374 -21.547   2.854  1.00  0.00     0.024 A 
HETATM   28  C   UNL     1      44.720 -21.350   4.189  1.00  0.00     0.034 A 
HETATM   29 CL   UNL     1      45.380 -22.652   5.101  1.00  0.00    -0.084 Cl
HETATM   30  C   UNL     1      44.536 -20.107   4.790  1.00  0.00     0.024 A 
HETATM   31  C   UNL     1      44.002 -19.049   4.050  1.00  0.00     0.010 A 
ENDBRANCH  24  25
ENDBRANCH  21  24
ENDBRANCH   3  20
TORSDOF 5
ENDMDL
MODEL 8
REMARK VINA RESULT:      -7.9      6.379     10.569
REMARK  5 active torsions:
REMARK  status: ('A' for Active; 'I' for Inactive)
REMARK    1  A    between atoms: C_5  and  N_6 
REMARK       I    between atoms: N_6  and  C_7 
REMARK       I    between atoms: C_7  and  N_8 
REMARK    2  A    between atoms: N_8  and  C_9 
REMARK    3  A    between atoms: C_11  and  C_12 
REMARK       I    between atoms: C_12  and  N_13 
REMARK    4  A    between atoms: N_13  and  C_14 
REMARK    5  A    between atoms: C_14  and  C_15 
ROOT
HETATM    1  C   UNL     1      41.611 -14.645  -0.388  1.00  0.00     0.175 A 
HETATM    2  S   UNL     1      41.784 -15.945   0.691  1.00  0.00    -0.044 SA
HETATM    3  C   UNL     1      41.467 -14.880   2.005  1.00  0.00     0.100 A 
HETATM    4  C   UNL     1      41.285 -13.591   1.515  1.00  0.00     0.056 A 
HETATM    5  C   UNL     1      41.005 -12.363   2.310  1.00  0.00     0.072 C 
HETATM    6  N   UNL     1      41.368 -13.471   0.133  1.00  0.00    -0.228 NA
ENDROOT
BRANCH   1   7
HETATM    7  N   UNL     1      41.733 -14.963  -1.708  1.00  0.00    -0.287 N 
HETATM    8  C   UNL     1      40.791 -14.762  -2.678  1.00  0.00     0.326 C 
HETATM    9  N   UNL     1      39.629 -14.150  -2.291  1.00  0.00    -0.309 N 
HETATM   10  O   UNL     1      41.059 -15.157  -3.812  1.00  0.00    -0.247 OA
HETATM   11  H   UNL     1      39.613 -13.834  -1.325  1.00  0.00     0.170 HD
HETATM   12  H   UNL     1      42.569 -15.438  -2.012  1.00  0.00     0.172 HD
BRANCH   9  13
HETATM   13  C   UNL     1      38.468 -13.908  -3.048  1.00  0.00     0.036 A 
HETATM   14  C   UNL     1      37.624 -14.910  -3.527  1.00  0.00     0.030 A 
HETATM   15  C   UNL     1      36.470 -14.581  -4.247  1.00  0.00     0.009 A 
HETATM   16  C   UNL     1      36.139 -13.245  -4.497  1.00  0.00    -0.062 A 
HETATM   17  C   UNL     1      34.909 -12.908  -5.286  1.00  0.00     0.048 C 
HETATM   18  C   UNL     1      36.993 -12.242  -4.033  1.00  0.00     0.009 A 
HETATM   19  C   UNL     1      38.144 -12.572  -3.309  1.00  0.00     0.030 A 
ENDBRANCH   9  13
ENDBRANCH   1   7
BRANCH   3  20
HETATM   20  C   UNL     1      41.409 -15.329   3.385  1.00  0.00     0.260 C 
HETATM   21  N   UNL     1      42.547 -15.932   3.877  1.00  0.00    -0.352 N 
HETATM   22  H   UNL     1      43.311 -16.124   3.242  1.00  0.00     0.163 HD
HETATM   23  O   UNL     1      40.408 -15.202   4.087  1.00  0.00    -0.267 OA
BRANCH  21  24
HETATM   24  C   UNL     1      42.565 -16.535   5.188  1.00  0.00     0.161 C 
BRANCH  24  25
HETATM   25  C   UNL     1      43.220 -17.890   5.151  1.00  0.00    -0.040 A 
HETATM   26  C   UNL     1      43.707 -18.402   3.938  1.00  0.00     0.010 A 
HETATM   27  C   UNL     1      44.317 -19.658   3.891  1.00  0.00     0.024 A 
HETATM   28  C   UNL     1      44.441 -20.409   5.058  1.00  0.00     0.034 A 
HETATM   29 CL   UNL     1      45.197 -21.954   5.003  1.00  0.00    -0.084 Cl
HETATM   30  C   UNL     1      43.958 -19.917   6.269  1.00  0.00     0.024 A 
HETATM   31  C   UNL     1      43.346 -18.662   6.315  1.00  0.00     0.010 A 
ENDBRANCH  24  25
ENDBRANCH  21  24
ENDBRANCH   3  20
TORSDOF 5
ENDMDL
MODEL 9
REMARK VINA RESULT:      -7.9      4.026     10.437
REMARK  5 active torsions:
REMARK  status: ('A' for Active; 'I' for Inactive)
REMARK    1  A    between atoms: C_5  and  N_6 
REMARK       I    between atoms: N_6  and  C_7 
REMARK       I    between atoms: C_7  and  N_8 
REMARK    2  A    between atoms: N_8  and  C_9 
REMARK    3  A    between atoms: C_11  and  C_12 
REMARK       I    between atoms: C_12  and  N_13 
REMARK    4  A    between atoms: N_13  and  C_14 
REMARK    5  A    between atoms: C_14  and  C_15 
ROOT
HETATM    1  C   UNL     1      42.353 -14.227   3.178  1.00  0.00     0.175 A 
HETATM    2  S   UNL     1      41.226 -12.977   3.403  1.00  0.00    -0.044 SA
HETATM    3  C   UNL     1      41.891 -12.674   4.962  1.00  0.00     0.100 A 
HETATM    4  C   UNL     1      42.913 -13.585   5.207  1.00  0.00     0.056 A 
HETATM    5  C   UNL     1      43.743 -13.687   6.439  1.00  0.00     0.072 C 
HETATM    6  N   UNL     1      43.171 -14.472   4.170  1.00  0.00    -0.228 NA
ENDROOT
BRANCH   1   7
HETATM    7  N   UNL     1      42.300 -14.849   1.968  1.00  0.00    -0.287 N 
HETATM    8  C   UNL     1      42.561 -16.169   1.725  1.00  0.00     0.326 C 
HETATM    9  N   UNL     1      42.870 -16.946   2.809  1.00  0.00    -0.309 N 
HETATM   10  O   UNL     1      42.508 -16.547   0.555  1.00  0.00    -0.247 OA
HETATM   11  H   UNL     1      42.799 -16.474   3.707  1.00  0.00     0.170 HD
HETATM   12  H   UNL     1      42.100 -14.293   1.150  1.00  0.00     0.172 HD
BRANCH   9  13
HETATM   13  C   UNL     1      43.269 -18.294   2.841  1.00  0.00     0.036 A 
HETATM   14  C   UNL     1      42.964 -19.223   1.846  1.00  0.00     0.030 A 
HETATM   15  C   UNL     1      43.428 -20.541   1.940  1.00  0.00     0.009 A 
HETATM   16  C   UNL     1      44.206 -20.949   3.028  1.00  0.00    -0.062 A 
HETATM   17  C   UNL     1      44.681 -22.368   3.125  1.00  0.00     0.048 C 
HETATM   18  C   UNL     1      44.497 -20.024   4.033  1.00  0.00     0.009 A 
HETATM   19  C   UNL     1      44.037 -18.706   3.936  1.00  0.00     0.030 A 
ENDBRANCH   9  13
ENDBRANCH   1   7
BRANCH   3  20
HETATM   20  C   UNL     1      41.411 -11.612   5.828  1.00  0.00     0.260 C 
HETATM   21  N   UNL     1      40.781 -12.010   6.988  1.00  0.00    -0.352 N 
HETATM   22  H   UNL     1      40.592 -12.994   7.128  1.00  0.00     0.163 HD
HETATM   23  O   UNL     1      41.537 -10.419   5.555  1.00  0.00    -0.267 OA
BRANCH  21  24
HETATM   24  C   UNL     1      40.149 -11.051   7.861  1.00  0.00     0.161 C 
BRANCH  24  25
HETATM   25  C   UNL     1      40.970 -10.826   9.102  1.00  0.00    -0.040 A 
HETATM   26  C   UNL     1      40.381 -10.961  10.369  1.00  0.00     0.010 A 
HETATM   27  C   UNL     1      41.133 -10.754  11.528  1.00  0.00     0.024 A 
HETATM   28  C   UNL     1      42.479 -10.410  11.425  1.00  0.00     0.034 A 
HETATM   29 CL   UNL     1      43.408 -10.161  12.852  1.00  0.00    -0.084 Cl
HETATM   30  C   UNL     1      43.077 -10.266  10.175  1.00  0.00     0.024 A 
HETATM   31  C   UNL     1      42.324 -10.471   9.016  1.00  0.00     0.010 A 
ENDBRANCH  24  25
ENDBRANCH  21  24
ENDBRANCH   3  20
TORSDOF 5
ENDMDL
MODEL 10
REMARK VINA RESULT:      -7.9      5.887      9.351
REMARK  5 active torsions:
REMARK  status: ('A' for Active; 'I' for Inactive)
REMARK    1  A    between atoms: C_5  and  N_6 
REMARK       I    between atoms: N_6  and  C_7 
REMARK       I    between atoms: C_7  and  N_8 
REMARK    2  A    between atoms: N_8  and  C_9 
REMARK    3  A    between atoms: C_11  and  C_12 
REMARK       I    between atoms: C_12  and  N_13 
REMARK    4  A    between atoms: N_13  and  C_14 
REMARK    5  A    between atoms: C_14  and  C_15 
ROOT
HETATM    1  C   UNL     1      41.841 -14.576   3.683  1.00  0.00     0.175 A 
HETATM    2  S   UNL     1      42.547 -13.702   2.409  1.00  0.00    -0.044 SA
HETATM    3  C   UNL     1      41.112 -13.917   1.483  1.00  0.00     0.100 A 
HETATM    4  C   UNL     1      40.206 -14.678   2.213  1.00  0.00     0.056 A 
HETATM    5  C   UNL     1      38.848 -15.111   1.782  1.00  0.00     0.072 C 
HETATM    6  N   UNL     1      40.638 -15.048   3.481  1.00  0.00    -0.228 NA
ENDROOT
BRANCH   1   7
HETATM    7  N   UNL     1      42.604 -14.688   4.806  1.00  0.00    -0.287 N 
HETATM    8  C   UNL     1      43.253 -15.813   5.233  1.00  0.00     0.326 C 
HETATM    9  N   UNL     1      43.155 -16.921   4.435  1.00  0.00    -0.309 N 
HETATM   10  O   UNL     1      43.860 -15.740   6.301  1.00  0.00    -0.247 OA
HETATM   11  H   UNL     1      42.666 -16.774   3.556  1.00  0.00     0.170 HD
HETATM   12  H   UNL     1      42.670 -13.893   5.423  1.00  0.00     0.172 HD
BRANCH   9  13
HETATM   13  C   UNL     1      43.635 -18.222   4.673  1.00  0.00     0.036 A 
HETATM   14  C   UNL     1      43.602 -18.851   5.917  1.00  0.00     0.030 A 
HETATM   15  C   UNL     1      44.074 -20.161   6.062  1.00  0.00     0.009 A 
HETATM   16  C   UNL     1      44.583 -20.864   4.965  1.00  0.00    -0.062 A 
HETATM   17  C   UNL     1      45.101 -22.260   5.138  1.00  0.00     0.048 C 
HETATM   18  C   UNL     1      44.633 -20.227   3.722  1.00  0.00     0.009 A 
HETATM   19  C   UNL     1      44.157 -18.920   3.578  1.00  0.00     0.030 A 
ENDBRANCH   9  13
ENDBRANCH   1   7
BRANCH   3  20
HETATM   20  C   UNL     1      40.943 -13.358   0.153  1.00  0.00     0.260 C 
HETATM   21  N   UNL     1      41.089 -14.235  -0.900  1.00  0.00    -0.352 N 
HETATM   22  H   UNL     1      41.402 -15.178  -0.710  1.00  0.00     0.163 HD
HETATM   23  O   UNL     1      40.698 -12.169  -0.045  1.00  0.00    -0.267 OA
BRANCH  21  24
HETATM   24  C   UNL     1      41.073 -13.772  -2.266  1.00  0.00     0.161 C 
BRANCH  24  25
HETATM   25  C   UNL     1      39.709 -13.940  -2.879  1.00  0.00    -0.040 A 
HETATM   26  C   UNL     1      38.837 -12.843  -2.966  1.00  0.00     0.010 A 
HETATM   27  C   UNL     1      37.568 -12.987  -3.533  1.00  0.00     0.024 A 
HETATM   28  C   UNL     1      37.165 -14.230  -4.014  1.00  0.00     0.034 A 
HETATM   29 CL   UNL     1      35.604 -14.408  -4.718  1.00  0.00    -0.084 Cl
HETATM   30  C   UNL     1      38.016 -15.330  -3.930  1.00  0.00     0.024 A 
HETATM   31  C   UNL     1      39.284 -15.187  -3.361  1.00  0.00     0.010 A 
ENDBRANCH  24  25
ENDBRANCH  21  24
ENDBRANCH   3  20
TORSDOF 5
ENDMDL
