MODEL 1
REMARK VINA RESULT:      -8.4      0.000      0.000
REMARK  6 active torsions:
REMARK  status: ('A' for Active; 'I' for Inactive)
REMARK    1  A    between atoms: C_4  and  C_5 
REMARK    2  A    between atoms: C_9  and  N_10 
REMARK       I    between atoms: N_10  and  C_11 
REMARK    3  A    between atoms: C_11  and  C_12 
REMARK    4  A    between atoms: C_12  and  C_13 
REMARK    5  A    between atoms: C_13  and  C_14 
REMARK    6  A    between atoms: C_13  and  C_20 
ROOT
HETATM    1  N   UNL     1      41.044 -17.040   3.472  1.00  0.00    -0.312 N 
HETATM    2  C   UNL     1      42.020 -16.716   4.391  1.00  0.00     0.224 C 
HETATM    3  O   UNL     1      42.431 -15.565   4.565  1.00  0.00    -0.273 OA
HETATM    4  H   UNL     1      40.705 -17.990   3.395  1.00  0.00     0.170 HD
ENDROOT
BRANCH   1   5
HETATM    5  C   UNL     1      40.457 -16.099   2.649  1.00  0.00     0.132 A 
HETATM    6  N   UNL     1      39.600 -15.125   3.085  1.00  0.00    -0.261 N 
HETATM    7  N   UNL     1      39.145 -14.326   2.106  1.00  0.00    -0.170 NA
HETATM    8  H   UNL     1      39.296 -14.975   4.044  1.00  0.00     0.191 HD
HETATM    9  C   UNL     1      39.753 -14.792   1.006  1.00  0.00     0.120 A 
HETATM   10  C   UNL     1      40.589 -15.914   1.287  1.00  0.00     0.017 A 
HETATM   11  C   UNL     1      41.420 -16.682   0.327  1.00  0.00     0.055 C 
BRANCH   9  12
HETATM   12  C   UNL     1      39.554 -14.162  -0.336  1.00  0.00     0.106 A 
HETATM   13  O   UNL     1      40.556 -13.888  -1.229  1.00  0.00    -0.313 OA
HETATM   14  C   UNL     1      39.985 -13.301  -2.317  1.00  0.00     0.050 A 
HETATM   15  C   UNL     1      40.903 -12.908  -3.404  1.00  0.00     0.076 C 
HETATM   16  C   UNL     1      38.623 -13.205  -2.145  1.00  0.00     0.035 A 
HETATM   17  C   UNL     1      38.346 -13.757  -0.872  1.00  0.00     0.042 A 
ENDBRANCH   9  12
ENDBRANCH   1   5
BRANCH   2  18
HETATM   18  C   UNL     1      42.663 -17.874   5.152  1.00  0.00     0.116 C 
BRANCH  18  19
HETATM   19  C   UNL     1      44.051 -18.386   4.706  1.00  0.00     0.049 C 
BRANCH  19  20
HETATM   20  C   UNL     1      44.048 -19.619   3.781  1.00  0.00    -0.050 A 
HETATM   21  C   UNL     1      43.502 -19.620   2.485  1.00  0.00     0.008 A 
HETATM   22  C   UNL     1      43.513 -20.773   1.690  1.00  0.00     0.001 A 
HETATM   23  C   UNL     1      44.096 -21.943   2.162  1.00  0.00     0.000 A 
HETATM   24  C   UNL     1      44.687 -21.957   3.420  1.00  0.00     0.001 A 
HETATM   25  C   UNL     1      44.674 -20.806   4.212  1.00  0.00     0.008 A 
ENDBRANCH  19  20
BRANCH  19  26
HETATM   26  C   UNL     1      45.063 -18.506   5.847  1.00  0.00    -0.027 C 
HETATM   27  C   UNL     1      44.913 -18.119   7.123  1.00  0.00     0.007 C 
ENDBRANCH  19  26
ENDBRANCH  18  19
ENDBRANCH   2  18
TORSDOF 6
ENDMDL
MODEL 2
REMARK VINA RESULT:      -8.3      2.095      3.097
REMARK  6 active torsions:
REMARK  status: ('A' for Active; 'I' for Inactive)
REMARK    1  A    between atoms: C_4  and  C_5 
REMARK    2  A    between atoms: C_9  and  N_10 
REMARK       I    between atoms: N_10  and  C_11 
REMARK    3  A    between atoms: C_11  and  C_12 
REMARK    4  A    between atoms: C_12  and  C_13 
REMARK    5  A    between atoms: C_13  and  C_14 
REMARK    6  A    between atoms: C_13  and  C_20 
ROOT
HETATM    1  N   UNL     1      42.222 -15.731   0.108  1.00  0.00    -0.312 N 
HETATM    2  C   UNL     1      42.291 -16.980   0.688  1.00  0.00     0.224 C 
HETATM    3  O   UNL     1      41.299 -17.684   0.899  1.00  0.00    -0.273 OA
HETATM    4  H   UNL     1      43.065 -15.207  -0.087  1.00  0.00     0.170 HD
ENDROOT
BRANCH   1   5
HETATM    5  C   UNL     1      41.026 -15.150  -0.266  1.00  0.00     0.132 A 
HETATM    6  N   UNL     1      40.041 -14.786   0.613  1.00  0.00    -0.261 N 
HETATM    7  N   UNL     1      38.962 -14.246   0.023  1.00  0.00    -0.170 NA
HETATM    8  H   UNL     1      40.065 -14.894   1.623  1.00  0.00     0.191 HD
HETATM    9  C   UNL     1      39.279 -14.243  -1.280  1.00  0.00     0.120 A 
HETATM   10  C   UNL     1      40.568 -14.807  -1.522  1.00  0.00     0.017 A 
HETATM   11  C   UNL     1      41.252 -14.963  -2.829  1.00  0.00     0.055 C 
BRANCH   9  12
HETATM   12  C   UNL     1      38.357 -13.688  -2.318  1.00  0.00     0.106 A 
HETATM   13  O   UNL     1      37.502 -14.433  -3.086  1.00  0.00    -0.313 OA
HETATM   14  C   UNL     1      36.851 -13.578  -3.922  1.00  0.00     0.050 A 
HETATM   15  C   UNL     1      35.883 -14.187  -4.855  1.00  0.00     0.076 C 
HETATM   16  C   UNL     1      37.263 -12.285  -3.694  1.00  0.00     0.035 A 
HETATM   17  C   UNL     1      38.232 -12.356  -2.665  1.00  0.00     0.042 A 
ENDBRANCH   9  12
ENDBRANCH   1   5
BRANCH   2  18
HETATM   18  C   UNL     1      43.667 -17.447   1.158  1.00  0.00     0.116 C 
BRANCH  18  19
HETATM   19  C   UNL     1      43.841 -17.920   2.618  1.00  0.00     0.049 C 
BRANCH  19  20
HETATM   20  C   UNL     1      44.055 -19.435   2.813  1.00  0.00    -0.050 A 
HETATM   21  C   UNL     1      44.660 -19.997   3.952  1.00  0.00     0.008 A 
HETATM   22  C   UNL     1      44.842 -21.380   4.072  1.00  0.00     0.001 A 
HETATM   23  C   UNL     1      44.399 -22.235   3.070  1.00  0.00     0.000 A 
HETATM   24  C   UNL     1      43.754 -21.711   1.956  1.00  0.00     0.001 A 
HETATM   25  C   UNL     1      43.573 -20.330   1.837  1.00  0.00     0.008 A 
ENDBRANCH  19  20
BRANCH  19  26
HETATM   26  C   UNL     1      42.807 -17.341   3.585  1.00  0.00    -0.027 C 
HETATM   27  C   UNL     1      41.925 -18.010   4.343  1.00  0.00     0.007 C 
ENDBRANCH  19  26
ENDBRANCH  18  19
ENDBRANCH   2  18
TORSDOF 6
ENDMDL
MODEL 3
REMARK VINA RESULT:      -7.9      1.652      1.721
REMARK  6 active torsions:
REMARK  status: ('A' for Active; 'I' for Inactive)
REMARK    1  A    between atoms: C_4  and  C_5 
REMARK    2  A    between atoms: C_9  and  N_10 
REMARK       I    between atoms: N_10  and  C_11 
REMARK    3  A    between atoms: C_11  and  C_12 
REMARK    4  A    between atoms: C_12  and  C_13 
REMARK    5  A    between atoms: C_13  and  C_14 
REMARK    6  A    between atoms: C_13  and  C_20 
ROOT
HETATM    1  N   UNL     1      42.913 -16.354   3.154  1.00  0.00    -0.312 N 
HETATM    2  C   UNL     1      42.232 -16.680   4.308  1.00  0.00     0.224 C 
HETATM    3  O   UNL     1      41.309 -16.000   4.765  1.00  0.00    -0.273 OA
HETATM    4  H   UNL     1      43.633 -16.965   2.791  1.00  0.00     0.170 HD
ENDROOT
BRANCH   1   5
HETATM    5  C   UNL     1      42.631 -15.218   2.421  1.00  0.00     0.132 A 
HETATM    6  N   UNL     1      42.880 -13.943   2.853  1.00  0.00    -0.261 N 
HETATM    7  N   UNL     1      42.517 -12.993   1.976  1.00  0.00    -0.170 NA
HETATM    8  H   UNL     1      43.293 -13.680   3.744  1.00  0.00     0.191 HD
HETATM    9  C   UNL     1      42.040 -13.688   0.934  1.00  0.00     0.120 A 
HETATM   10  C   UNL     1      42.082 -15.096   1.160  1.00  0.00     0.017 A 
HETATM   11  C   UNL     1      41.649 -16.172   0.233  1.00  0.00     0.055 C 
BRANCH   9  12
HETATM   12  C   UNL     1      41.545 -13.015  -0.307  1.00  0.00     0.106 A 
HETATM   13  O   UNL     1      42.317 -12.719  -1.400  1.00  0.00    -0.313 OA
HETATM   14  C   UNL     1      41.519 -12.094  -2.308  1.00  0.00     0.050 A 
HETATM   15  C   UNL     1      42.166 -11.673  -3.566  1.00  0.00     0.076 C 
HETATM   16  C   UNL     1      40.235 -11.994  -1.823  1.00  0.00     0.035 A 
HETATM   17  C   UNL     1      40.252 -12.584  -0.537  1.00  0.00     0.042 A 
ENDBRANCH   9  12
ENDBRANCH   1   5
BRANCH   2  18
HETATM   18  C   UNL     1      42.728 -17.902   5.079  1.00  0.00     0.116 C 
BRANCH  18  19
HETATM   19  C   UNL     1      44.147 -18.444   4.794  1.00  0.00     0.049 C 
BRANCH  19  20
HETATM   20  C   UNL     1      44.214 -19.762   3.996  1.00  0.00    -0.050 A 
HETATM   21  C   UNL     1      43.907 -19.861   2.627  1.00  0.00     0.008 A 
HETATM   22  C   UNL     1      43.972 -21.087   1.953  1.00  0.00     0.001 A 
HETATM   23  C   UNL     1      44.372 -22.236   2.625  1.00  0.00     0.000 A 
HETATM   24  C   UNL     1      44.729 -22.158   3.966  1.00  0.00     0.001 A 
HETATM   25  C   UNL     1      44.663 -20.934   4.637  1.00  0.00     0.008 A 
ENDBRANCH  19  20
BRANCH  19  26
HETATM   26  C   UNL     1      45.068 -18.446   6.015  1.00  0.00    -0.027 C 
HETATM   27  C   UNL     1      44.728 -18.267   7.300  1.00  0.00     0.007 C 
ENDBRANCH  19  26
ENDBRANCH  18  19
ENDBRANCH   2  18
TORSDOF 6
ENDMDL
MODEL 4
REMARK VINA RESULT:      -7.8      2.070      3.788
REMARK  6 active torsions:
REMARK  status: ('A' for Active; 'I' for Inactive)
REMARK    1  A    between atoms: C_4  and  C_5 
REMARK    2  A    between atoms: C_9  and  N_10 
REMARK       I    between atoms: N_10  and  C_11 
REMARK    3  A    between atoms: C_11  and  C_12 
REMARK    4  A    between atoms: C_12  and  C_13 
REMARK    5  A    between atoms: C_13  and  C_14 
REMARK    6  A    between atoms: C_13  and  C_20 
ROOT
HETATM    1  N   UNL     1      42.283 -17.365   0.935  1.00  0.00    -0.312 N 
HETATM    2  C   UNL     1      43.484 -17.309   1.611  1.00  0.00     0.224 C 
HETATM    3  O   UNL     1      44.003 -16.252   1.982  1.00  0.00    -0.273 OA
HETATM    4  H   UNL     1      41.872 -18.256   0.690  1.00  0.00     0.170 HD
ENDROOT
BRANCH   1   5
HETATM    5  C   UNL     1      41.567 -16.233   0.596  1.00  0.00     0.132 A 
HETATM    6  N   UNL     1      41.860 -15.432  -0.475  1.00  0.00    -0.261 N 
HETATM    7  N   UNL     1      41.033 -14.382  -0.607  1.00  0.00    -0.170 NA
HETATM    8  H   UNL     1      42.621 -15.565  -1.136  1.00  0.00     0.191 HD
HETATM    9  C   UNL     1      40.164 -14.531   0.402  1.00  0.00     0.120 A 
HETATM   10  C   UNL     1      40.456 -15.679   1.199  1.00  0.00     0.017 A 
HETATM   11  C   UNL     1      39.711 -16.164   2.387  1.00  0.00     0.055 C 
BRANCH   9  12
HETATM   12  C   UNL     1      39.029 -13.582   0.617  1.00  0.00     0.106 A 
HETATM   13  O   UNL     1      39.060 -12.500   1.457  1.00  0.00    -0.313 OA
HETATM   14  C   UNL     1      37.840 -11.899   1.397  1.00  0.00     0.050 A 
HETATM   15  C   UNL     1      37.655 -10.708   2.248  1.00  0.00     0.076 C 
HETATM   16  C   UNL     1      37.023 -12.570   0.515  1.00  0.00     0.035 A 
HETATM   17  C   UNL     1      37.786 -13.652   0.016  1.00  0.00     0.042 A 
ENDBRANCH   9  12
ENDBRANCH   1   5
BRANCH   2  18
HETATM   18  C   UNL     1      44.222 -18.630   1.816  1.00  0.00     0.116 C 
BRANCH  18  19
HETATM   19  C   UNL     1      43.772 -19.572   2.955  1.00  0.00     0.049 C 
BRANCH  19  20
HETATM   20  C   UNL     1      43.805 -18.971   4.376  1.00  0.00    -0.050 A 
HETATM   21  C   UNL     1      44.952 -18.956   5.190  1.00  0.00     0.008 A 
HETATM   22  C   UNL     1      44.923 -18.410   6.478  1.00  0.00     0.001 A 
HETATM   23  C   UNL     1      43.755 -17.840   6.972  1.00  0.00     0.000 A 
HETATM   24  C   UNL     1      42.620 -17.798   6.171  1.00  0.00     0.001 A 
HETATM   25  C   UNL     1      42.650 -18.344   4.885  1.00  0.00     0.008 A 
ENDBRANCH  19  20
BRANCH  19  26
HETATM   26  C   UNL     1      44.396 -20.967   2.890  1.00  0.00    -0.027 C 
HETATM   27  C   UNL     1      44.333 -21.848   1.880  1.00  0.00     0.007 C 
ENDBRANCH  19  26
ENDBRANCH  18  19
ENDBRANCH   2  18
TORSDOF 6
ENDMDL
MODEL 5
REMARK VINA RESULT:      -7.8      1.973      2.415
REMARK  6 active torsions:
REMARK  status: ('A' for Active; 'I' for Inactive)
REMARK    1  A    between atoms: C_4  and  C_5 
REMARK    2  A    between atoms: C_9  and  N_10 
REMARK       I    between atoms: N_10  and  C_11 
REMARK    3  A    between atoms: C_11  and  C_12 
REMARK    4  A    between atoms: C_12  and  C_13 
REMARK    5  A    between atoms: C_13  and  C_14 
REMARK    6  A    between atoms: C_13  and  C_20 
ROOT
HETATM    1  N   UNL     1      41.610 -16.609   2.166  1.00  0.00    -0.312 N 
HETATM    2  C   UNL     1      42.817 -16.986   2.716  1.00  0.00     0.224 C 
HETATM    3  O   UNL     1      43.907 -16.718   2.204  1.00  0.00    -0.273 OA
HETATM    4  H   UNL     1      40.741 -16.811   2.644  1.00  0.00     0.170 HD
ENDROOT
BRANCH   1   5
HETATM    5  C   UNL     1      41.519 -15.915   0.976  1.00  0.00     0.132 A 
HETATM    6  N   UNL     1      41.164 -16.482  -0.219  1.00  0.00    -0.261 N 
HETATM    7  N   UNL     1      41.150 -15.617  -1.246  1.00  0.00    -0.170 NA
HETATM    8  H   UNL     1      40.929 -17.459  -0.375  1.00  0.00     0.191 HD
HETATM    9  C   UNL     1      41.485 -14.448  -0.682  1.00  0.00     0.120 A 
HETATM   10  C   UNL     1      41.736 -14.577   0.717  1.00  0.00     0.017 A 
HETATM   11  C   UNL     1      42.120 -13.503   1.666  1.00  0.00     0.055 C 
BRANCH   9  12
HETATM   12  C   UNL     1      41.561 -13.181  -1.473  1.00  0.00     0.106 A 
HETATM   13  O   UNL     1      40.694 -12.127  -1.350  1.00  0.00    -0.313 OA
HETATM   14  C   UNL     1      41.074 -11.176  -2.247  1.00  0.00     0.050 A 
HETATM   15  C   UNL     1      40.253  -9.951  -2.288  1.00  0.00     0.076 C 
HETATM   16  C   UNL     1      42.189 -11.595  -2.939  1.00  0.00     0.035 A 
HETATM   17  C   UNL     1      42.500 -12.883  -2.442  1.00  0.00     0.042 A 
ENDBRANCH   9  12
ENDBRANCH   1   5
BRANCH   2  18
HETATM   18  C   UNL     1      42.761 -17.850   3.975  1.00  0.00     0.116 C 
BRANCH  18  19
HETATM   19  C   UNL     1      44.056 -18.525   4.479  1.00  0.00     0.049 C 
BRANCH  19  20
HETATM   20  C   UNL     1      44.269 -19.987   4.035  1.00  0.00    -0.050 A 
HETATM   21  C   UNL     1      44.140 -20.423   2.704  1.00  0.00     0.008 A 
HETATM   22  C   UNL     1      44.332 -21.766   2.357  1.00  0.00     0.001 A 
HETATM   23  C   UNL     1      44.685 -22.697   3.326  1.00  0.00     0.000 A 
HETATM   24  C   UNL     1      44.867 -22.284   4.641  1.00  0.00     0.001 A 
HETATM   25  C   UNL     1      44.675 -20.944   4.986  1.00  0.00     0.008 A 
ENDBRANCH  19  20
BRANCH  19  26
HETATM   26  C   UNL     1      44.324 -18.317   5.970  1.00  0.00    -0.027 C 
HETATM   27  C   UNL     1      44.838 -17.232   6.569  1.00  0.00     0.007 C 
ENDBRANCH  19  26
ENDBRANCH  18  19
ENDBRANCH   2  18
TORSDOF 6
ENDMDL
MODEL 6
REMARK VINA RESULT:      -7.5      3.278      4.953
REMARK  6 active torsions:
REMARK  status: ('A' for Active; 'I' for Inactive)
REMARK    1  A    between atoms: C_4  and  C_5 
REMARK    2  A    between atoms: C_9  and  N_10 
REMARK       I    between atoms: N_10  and  C_11 
REMARK    3  A    between atoms: C_11  and  C_12 
REMARK    4  A    between atoms: C_12  and  C_13 
REMARK    5  A    between atoms: C_13  and  C_14 
REMARK    6  A    between atoms: C_13  and  C_20 
ROOT
HETATM    1  N   UNL     1      43.273 -16.025   2.134  1.00  0.00    -0.312 N 
HETATM    2  C   UNL     1      42.722 -17.153   1.564  1.00  0.00     0.224 C 
HETATM    3  O   UNL     1      41.557 -17.207   1.160  1.00  0.00    -0.273 OA
HETATM    4  H   UNL     1      44.247 -16.011   2.411  1.00  0.00     0.170 HD
ENDROOT
BRANCH   1   5
HETATM    5  C   UNL     1      42.556 -14.860   2.321  1.00  0.00     0.132 A 
HETATM    6  N   UNL     1      41.934 -14.171   1.313  1.00  0.00    -0.261 N 
HETATM    7  N   UNL     1      41.301 -13.061   1.726  1.00  0.00    -0.170 NA
HETATM    8  H   UNL     1      41.924 -14.424   0.328  1.00  0.00     0.191 HD
HETATM    9  C   UNL     1      41.506 -13.053   3.051  1.00  0.00     0.120 A 
HETATM   10  C   UNL     1      42.296 -14.161   3.482  1.00  0.00     0.017 A 
HETATM   11  C   UNL     1      42.715 -14.484   4.868  1.00  0.00     0.055 C 
BRANCH   9  12
HETATM   12  C   UNL     1      40.936 -11.988   3.933  1.00  0.00     0.106 A 
HETATM   13  O   UNL     1      41.677 -11.121   4.694  1.00  0.00    -0.313 OA
HETATM   14  C   UNL     1      40.806 -10.322   5.369  1.00  0.00     0.050 A 
HETATM   15  C   UNL     1      41.405  -9.316   6.268  1.00  0.00     0.076 C 
HETATM   16  C   UNL     1      39.509 -10.649   5.043  1.00  0.00     0.035 A 
HETATM   17  C   UNL     1      39.593 -11.720   4.122  1.00  0.00     0.042 A 
ENDBRANCH   9  12
ENDBRANCH   1   5
BRANCH   2  18
HETATM   18  C   UNL     1      43.597 -18.405   1.528  1.00  0.00     0.116 C 
BRANCH  18  19
HETATM   19  C   UNL     1      43.450 -19.457   2.650  1.00  0.00     0.049 C 
BRANCH  19  20
HETATM   20  C   UNL     1      43.534 -18.917   4.092  1.00  0.00    -0.050 A 
HETATM   21  C   UNL     1      42.434 -18.393   4.794  1.00  0.00     0.008 A 
HETATM   22  C   UNL     1      42.569 -17.904   6.099  1.00  0.00     0.001 A 
HETATM   23  C   UNL     1      43.800 -17.953   6.742  1.00  0.00     0.000 A 
HETATM   24  C   UNL     1      44.894 -18.510   6.090  1.00  0.00     0.001 A 
HETATM   25  C   UNL     1      44.757 -18.998   4.787  1.00  0.00     0.008 A 
ENDBRANCH  19  20
BRANCH  19  26
HETATM   26  C   UNL     1      44.297 -20.712   2.438  1.00  0.00    -0.027 C 
HETATM   27  C   UNL     1      43.996 -21.792   1.702  1.00  0.00     0.007 C 
ENDBRANCH  19  26
ENDBRANCH  18  19
ENDBRANCH   2  18
TORSDOF 6
ENDMDL
MODEL 7
REMARK VINA RESULT:      -7.4      2.295      2.816
REMARK  6 active torsions:
REMARK  status: ('A' for Active; 'I' for Inactive)
REMARK    1  A    between atoms: C_4  and  C_5 
REMARK    2  A    between atoms: C_9  and  N_10 
REMARK       I    between atoms: N_10  and  C_11 
REMARK    3  A    between atoms: C_11  and  C_12 
REMARK    4  A    between atoms: C_12  and  C_13 
REMARK    5  A    between atoms: C_13  and  C_14 
REMARK    6  A    between atoms: C_13  and  C_20 
ROOT
HETATM    1  N   UNL     1      42.201 -15.812   1.759  1.00  0.00    -0.312 N 
HETATM    2  C   UNL     1      41.633 -17.033   2.054  1.00  0.00     0.224 C 
HETATM    3  O   UNL     1      40.804 -17.587   1.327  1.00  0.00    -0.273 OA
HETATM    4  H   UNL     1      42.911 -15.415   2.362  1.00  0.00     0.170 HD
ENDROOT
BRANCH   1   5
HETATM    5  C   UNL     1      41.870 -15.092   0.628  1.00  0.00     0.132 A 
HETATM    6  N   UNL     1      41.558 -15.658  -0.579  1.00  0.00    -0.261 N 
HETATM    7  N   UNL     1      41.276 -14.764  -1.540  1.00  0.00    -0.170 NA
HETATM    8  H   UNL     1      41.532 -16.653  -0.788  1.00  0.00     0.191 HD
HETATM    9  C   UNL     1      41.388 -13.582  -0.918  1.00  0.00     0.120 A 
HETATM   10  C   UNL     1      41.767 -13.727   0.451  1.00  0.00     0.017 A 
HETATM   11  C   UNL     1      41.976 -12.647   1.447  1.00  0.00     0.055 C 
BRANCH   9  12
HETATM   12  C   UNL     1      41.123 -12.289  -1.621  1.00  0.00     0.106 A 
HETATM   13  O   UNL     1      42.050 -11.586  -2.345  1.00  0.00    -0.313 OA
HETATM   14  C   UNL     1      41.440 -10.461  -2.808  1.00  0.00     0.050 A 
HETATM   15  C   UNL     1      42.276  -9.546  -3.610  1.00  0.00     0.076 C 
HETATM   16  C   UNL     1      40.123 -10.434  -2.407  1.00  0.00     0.035 A 
HETATM   17  C   UNL     1      39.921 -11.607  -1.642  1.00  0.00     0.042 A 
ENDBRANCH   9  12
ENDBRANCH   1   5
BRANCH   2  18
HETATM   18  C   UNL     1      42.007 -17.661   3.396  1.00  0.00     0.116 C 
BRANCH  18  19
HETATM   19  C   UNL     1      43.476 -18.060   3.655  1.00  0.00     0.049 C 
BRANCH  19  20
HETATM   20  C   UNL     1      43.842 -19.524   3.336  1.00  0.00    -0.050 A 
HETATM   21  C   UNL     1      44.498 -20.379   4.241  1.00  0.00     0.008 A 
HETATM   22  C   UNL     1      44.818 -21.697   3.895  1.00  0.00     0.001 A 
HETATM   23  C   UNL     1      44.466 -22.200   2.648  1.00  0.00     0.000 A 
HETATM   24  C   UNL     1      43.774 -21.393   1.752  1.00  0.00     0.001 A 
HETATM   25  C   UNL     1      43.455 -20.077   2.099  1.00  0.00     0.008 A 
ENDBRANCH  19  20
BRANCH  19  26
HETATM   26  C   UNL     1      44.015 -17.599   5.010  1.00  0.00    -0.027 C 
HETATM   27  C   UNL     1      43.480 -16.692   5.841  1.00  0.00     0.007 C 
ENDBRANCH  19  26
ENDBRANCH  18  19
ENDBRANCH   2  18
TORSDOF 6
ENDMDL
MODEL 8
REMARK VINA RESULT:      -7.4      4.578      7.126
REMARK  6 active torsions:
REMARK  status: ('A' for Active; 'I' for Inactive)
REMARK    1  A    between atoms: C_4  and  C_5 
REMARK    2  A    between atoms: C_9  and  N_10 
REMARK       I    between atoms: N_10  and  C_11 
REMARK    3  A    between atoms: C_11  and  C_12 
REMARK    4  A    between atoms: C_12  and  C_13 
REMARK    5  A    between atoms: C_13  and  C_14 
REMARK    6  A    between atoms: C_13  and  C_20 
ROOT
HETATM    1  N   UNL     1      43.288 -14.871   4.877  1.00  0.00    -0.312 N 
HETATM    2  C   UNL     1      42.448 -15.959   4.770  1.00  0.00     0.224 C 
HETATM    3  O   UNL     1      41.416 -16.087   5.436  1.00  0.00    -0.273 OA
HETATM    4  H   UNL     1      44.099 -14.786   4.279  1.00  0.00     0.170 HD
ENDROOT
BRANCH   1   5
HETATM    5  C   UNL     1      43.054 -13.836   5.762  1.00  0.00     0.132 A 
HETATM    6  N   UNL     1      41.983 -12.987   5.683  1.00  0.00    -0.261 N 
HETATM    7  N   UNL     1      41.963 -12.050   6.646  1.00  0.00    -0.170 NA
HETATM    8  H   UNL     1      41.246 -13.010   4.984  1.00  0.00     0.191 HD
HETATM    9  C   UNL     1      43.050 -12.327   7.381  1.00  0.00     0.120 A 
HETATM   10  C   UNL     1      43.780 -13.440   6.867  1.00  0.00     0.017 A 
HETATM   11  C   UNL     1      45.021 -14.036   7.419  1.00  0.00     0.055 C 
BRANCH   9  12
HETATM   12  C   UNL     1      43.403 -11.535   8.600  1.00  0.00     0.106 A 
HETATM   13  O   UNL     1      42.513 -10.818   9.354  1.00  0.00    -0.313 OA
HETATM   14  C   UNL     1      43.213 -10.222  10.358  1.00  0.00     0.050 A 
HETATM   15  C   UNL     1      42.434  -9.380  11.288  1.00  0.00     0.076 C 
HETATM   16  C   UNL     1      44.545 -10.557  10.273  1.00  0.00     0.035 A 
HETATM   17  C   UNL     1      44.667 -11.400   9.142  1.00  0.00     0.042 A 
ENDBRANCH   9  12
ENDBRANCH   1   5
BRANCH   2  18
HETATM   18  C   UNL     1      42.892 -17.083   3.835  1.00  0.00     0.116 C 
BRANCH  18  19
HETATM   19  C   UNL     1      44.015 -18.040   4.292  1.00  0.00     0.049 C 
BRANCH  19  20
HETATM   20  C   UNL     1      44.061 -19.410   3.584  1.00  0.00    -0.050 A 
HETATM   21  C   UNL     1      44.715 -20.538   4.112  1.00  0.00     0.008 A 
HETATM   22  C   UNL     1      44.737 -21.755   3.420  1.00  0.00     0.001 A 
HETATM   23  C   UNL     1      44.084 -21.881   2.200  1.00  0.00     0.000 A 
HETATM   24  C   UNL     1      43.388 -20.796   1.679  1.00  0.00     0.001 A 
HETATM   25  C   UNL     1      43.367 -19.581   2.370  1.00  0.00     0.008 A 
ENDBRANCH  19  20
BRANCH  19  26
HETATM   26  C   UNL     1      44.151 -18.155   5.811  1.00  0.00    -0.027 C 
HETATM   27  C   UNL     1      45.200 -17.805   6.571  1.00  0.00     0.007 C 
ENDBRANCH  19  26
ENDBRANCH  18  19
ENDBRANCH   2  18
TORSDOF 6
ENDMDL
MODEL 9
REMARK VINA RESULT:      -7.4      2.017      8.160
REMARK  6 active torsions:
REMARK  status: ('A' for Active; 'I' for Inactive)
REMARK    1  A    between atoms: C_4  and  C_5 
REMARK    2  A    between atoms: C_9  and  N_10 
REMARK       I    between atoms: N_10  and  C_11 
REMARK    3  A    between atoms: C_11  and  C_12 
REMARK    4  A    between atoms: C_12  and  C_13 
REMARK    5  A    between atoms: C_13  and  C_14 
REMARK    6  A    between atoms: C_13  and  C_20 
ROOT
HETATM    1  N   UNL     1      38.985 -15.306   1.498  1.00  0.00    -0.312 N 
HETATM    2  C   UNL     1      38.606 -13.984   1.399  1.00  0.00     0.224 C 
HETATM    3  O   UNL     1      39.041 -13.098   2.140  1.00  0.00    -0.273 OA
HETATM    4  H   UNL     1      38.637 -15.991   0.839  1.00  0.00     0.170 HD
ENDROOT
BRANCH   1   5
HETATM    5  C   UNL     1      39.871 -15.756   2.457  1.00  0.00     0.132 A 
HETATM    6  N   UNL     1      39.953 -15.246   3.725  1.00  0.00    -0.261 N 
HETATM    7  N   UNL     1      40.893 -15.833   4.484  1.00  0.00    -0.170 NA
HETATM    8  H   UNL     1      39.388 -14.494   4.109  1.00  0.00     0.191 HD
HETATM    9  C   UNL     1      41.414 -16.769   3.678  1.00  0.00     0.120 A 
HETATM   10  C   UNL     1      40.812 -16.763   2.384  1.00  0.00     0.017 A 
HETATM   11  C   UNL     1      41.123 -17.656   1.241  1.00  0.00     0.055 C 
BRANCH   9  12
HETATM   12  C   UNL     1      42.494 -17.697   4.137  1.00  0.00     0.106 A 
HETATM   13  O   UNL     1      42.428 -18.483   5.258  1.00  0.00    -0.313 OA
HETATM   14  C   UNL     1      43.603 -19.164   5.350  1.00  0.00     0.050 A 
HETATM   15  C   UNL     1      43.746 -20.067   6.509  1.00  0.00     0.076 C 
HETATM   16  C   UNL     1      44.424 -18.841   4.293  1.00  0.00     0.035 A 
HETATM   17  C   UNL     1      43.712 -17.897   3.515  1.00  0.00     0.042 A 
ENDBRANCH   9  12
ENDBRANCH   1   5
BRANCH   2  18
HETATM   18  C   UNL     1      37.531 -13.649   0.367  1.00  0.00     0.116 C 
BRANCH  18  19
HETATM   19  C   UNL     1      37.957 -13.077  -1.003  1.00  0.00     0.049 C 
BRANCH  19  20
HETATM   20  C   UNL     1      38.470 -14.106  -2.031  1.00  0.00    -0.050 A 
HETATM   21  C   UNL     1      37.673 -14.648  -3.056  1.00  0.00     0.008 A 
HETATM   22  C   UNL     1      38.186 -15.591  -3.955  1.00  0.00     0.001 A 
HETATM   23  C   UNL     1      39.514 -15.992  -3.869  1.00  0.00     0.000 A 
HETATM   24  C   UNL     1      40.338 -15.436  -2.897  1.00  0.00     0.001 A 
HETATM   25  C   UNL     1      39.824 -14.496  -2.000  1.00  0.00     0.008 A 
ENDBRANCH  19  20
BRANCH  19  26
HETATM   26  C   UNL     1      38.853 -11.842  -0.908  1.00  0.00    -0.027 C 
HETATM   27  C   UNL     1      39.041 -10.889  -1.834  1.00  0.00     0.007 C 
ENDBRANCH  19  26
ENDBRANCH  18  19
ENDBRANCH   2  18
TORSDOF 6
ENDMDL
MODEL 10
REMARK VINA RESULT:      -7.4      1.535      2.131
REMARK  6 active torsions:
REMARK  status: ('A' for Active; 'I' for Inactive)
REMARK    1  A    between atoms: C_4  and  C_5 
REMARK    2  A    between atoms: C_9  and  N_10 
REMARK       I    between atoms: N_10  and  C_11 
REMARK    3  A    between atoms: C_11  and  C_12 
REMARK    4  A    between atoms: C_12  and  C_13 
REMARK    5  A    between atoms: C_13  and  C_14 
REMARK    6  A    between atoms: C_13  and  C_20 
ROOT
HETATM    1  N   UNL     1      40.452 -15.683   3.523  1.00  0.00    -0.312 N 
HETATM    2  C   UNL     1      41.361 -15.116   4.392  1.00  0.00     0.224 C 
HETATM    3  O   UNL     1      41.731 -13.942   4.312  1.00  0.00    -0.273 OA
HETATM    4  H   UNL     1      40.142 -16.637   3.652  1.00  0.00     0.170 HD
ENDROOT
BRANCH   1   5
HETATM    5  C   UNL     1      39.894 -14.984   2.470  1.00  0.00     0.132 A 
HETATM    6  N   UNL     1      39.028 -13.934   2.620  1.00  0.00    -0.261 N 
HETATM    7  N   UNL     1      38.607 -13.410   1.457  1.00  0.00    -0.170 NA
HETATM    8  H   UNL     1      38.696 -13.548   3.499  1.00  0.00     0.191 HD
HETATM    9  C   UNL     1      39.247 -14.137   0.530  1.00  0.00     0.120 A 
HETATM   10  C   UNL     1      40.068 -15.149   1.111  1.00  0.00     0.017 A 
HETATM   11  C   UNL     1      40.925 -16.132   0.402  1.00  0.00     0.055 C 
BRANCH   9  12
HETATM   12  C   UNL     1      39.091 -13.869  -0.933  1.00  0.00     0.106 A 
HETATM   13  O   UNL     1      37.983 -14.185  -1.675  1.00  0.00    -0.313 OA
HETATM   14  C   UNL     1      38.228 -13.806  -2.959  1.00  0.00     0.050 A 
HETATM   15  C   UNL     1      37.154 -14.074  -3.936  1.00  0.00     0.076 C 
HETATM   16  C   UNL     1      39.476 -13.233  -3.056  1.00  0.00     0.035 A 
HETATM   17  C   UNL     1      40.031 -13.276  -1.755  1.00  0.00     0.042 A 
ENDBRANCH   9  12
ENDBRANCH   1   5
BRANCH   2  18
HETATM   18  C   UNL     1      41.983 -16.040   5.437  1.00  0.00     0.116 C 
BRANCH  18  19
HETATM   19  C   UNL     1      43.334 -16.722   5.126  1.00  0.00     0.049 C 
BRANCH  19  20
HETATM   20  C   UNL     1      43.450 -17.383   3.738  1.00  0.00    -0.050 A 
HETATM   21  C   UNL     1      43.988 -16.738   2.610  1.00  0.00     0.008 A 
HETATM   22  C   UNL     1      44.057 -17.381   1.368  1.00  0.00     0.001 A 
HETATM   23  C   UNL     1      43.616 -18.692   1.231  1.00  0.00     0.000 A 
HETATM   24  C   UNL     1      43.126 -19.370   2.341  1.00  0.00     0.001 A 
HETATM   25  C   UNL     1      43.057 -18.727   3.580  1.00  0.00     0.008 A 
ENDBRANCH  19  20
BRANCH  19  26
HETATM   26  C   UNL     1      43.850 -17.619   6.252  1.00  0.00    -0.027 C 
HETATM   27  C   UNL     1      45.124 -17.922   6.544  1.00  0.00     0.007 C 
ENDBRANCH  19  26
ENDBRANCH  18  19
ENDBRANCH   2  18
TORSDOF 6
ENDMDL
