MODEL 1
REMARK VINA RESULT:      -8.5      0.000      0.000
REMARK  4 active torsions:
REMARK  status: ('A' for Active; 'I' for Inactive)
REMARK    1  A    between atoms: C_9  and  N_10 
REMARK       I    between atoms: N_10  and  C_11 
REMARK    2  A    between atoms: C_11  and  C_12 
REMARK    3  A    between atoms: C_14  and  C_15 
REMARK    4  A    between atoms: C_22  and  C_23 
ROOT
HETATM    1  N   UNL     1      42.003 -15.154  -0.198  1.00  0.00    -0.322 N 
HETATM    2  C   UNL     1      41.226 -15.540   0.881  1.00  0.00     0.277 C 
HETATM    3  O   UNL     1      40.073 -15.180   1.095  1.00  0.00    -0.266 OA
HETATM    4  H   UNL     1      42.926 -15.585  -0.213  1.00  0.00     0.169 HD
ENDROOT
BRANCH   2   5
HETATM    5  C   UNL     1      41.956 -16.437   1.775  1.00  0.00     0.157 A 
HETATM    6  N   UNL     1      42.223 -17.763   1.437  1.00  0.00    -0.216 NA
HETATM    7  C   UNL     1      42.920 -18.219   2.463  1.00  0.00     0.180 A 
HETATM    8  O   UNL     1      43.123 -17.297   3.451  1.00  0.00    -0.293 OA
HETATM    9  C   UNL     1      42.505 -16.159   3.012  1.00  0.00     0.094 A 
BRANCH   7  10
HETATM   10  C   UNL     1      43.508 -19.540   2.677  1.00  0.00     0.017 A 
HETATM   11  C   UNL     1      44.246 -19.797   3.843  1.00  0.00     0.016 A 
HETATM   12  C   UNL     1      44.808 -21.055   4.072  1.00  0.00     0.001 A 
HETATM   13  C   UNL     1      44.640 -22.074   3.137  1.00  0.00     0.000 A 
HETATM   14  C   UNL     1      43.912 -21.837   1.975  1.00  0.00     0.001 A 
HETATM   15  C   UNL     1      43.351 -20.578   1.746  1.00  0.00     0.016 A 
ENDBRANCH   7  10
BRANCH   9  16
HETATM   16  C   UNL     1      42.481 -14.856   3.789  1.00  0.00     0.046 A 
HETATM   17  C   UNL     1      43.473 -14.690   4.921  1.00  0.00     0.012 A 
HETATM   18  C   UNL     1      43.677 -13.934   3.653  1.00  0.00     0.012 A 
ENDBRANCH   9  16
ENDBRANCH   2   5
BRANCH   1  19
HETATM   19  C   UNL     1      41.682 -14.228  -1.206  1.00  0.00     0.035 A 
HETATM   20  C   UNL     1      42.069 -12.885  -1.166  1.00  0.00     0.039 A 
HETATM   21  C   UNL     1      41.747 -12.060  -2.233  1.00  0.00    -0.022 A 
HETATM   22  C   UNL     1      42.113 -10.629  -2.417  1.00  0.00     0.274 C 
HETATM   23  C   UNL     1      41.043 -12.542  -3.337  1.00  0.00    -0.025 A 
HETATM   24  N   UNL     1      41.371 -10.196  -3.678  1.00  0.00    -0.067 N 
HETATM   25  C   UNL     1      42.151  -9.286  -4.559  1.00  0.00     0.270 C 
HETATM   26  H   UNL     1      40.531  -9.704  -3.355  1.00  0.00     0.280 HD
HETATM   27  C   UNL     1      40.882 -11.470  -4.360  1.00  0.00     0.273 C 
HETATM   28  C   UNL     1      40.637 -13.864  -3.392  1.00  0.00     0.012 A 
HETATM   29  C   UNL     1      40.960 -14.704  -2.318  1.00  0.00     0.030 A 
ENDBRANCH   1  19
TORSDOF 4
ENDMDL
MODEL 2
REMARK VINA RESULT:      -8.4      1.140      1.757
REMARK  4 active torsions:
REMARK  status: ('A' for Active; 'I' for Inactive)
REMARK    1  A    between atoms: C_9  and  N_10 
REMARK       I    between atoms: N_10  and  C_11 
REMARK    2  A    between atoms: C_11  and  C_12 
REMARK    3  A    between atoms: C_14  and  C_15 
REMARK    4  A    between atoms: C_22  and  C_23 
ROOT
HETATM    1  N   UNL     1      41.663 -15.225  -0.100  1.00  0.00    -0.322 N 
HETATM    2  C   UNL     1      41.023 -15.531   1.089  1.00  0.00     0.277 C 
HETATM    3  O   UNL     1      39.925 -15.110   1.436  1.00  0.00    -0.266 OA
HETATM    4  H   UNL     1      42.557 -15.698  -0.218  1.00  0.00     0.169 HD
ENDROOT
BRANCH   2   5
HETATM    5  C   UNL     1      41.828 -16.425   1.917  1.00  0.00     0.157 A 
HETATM    6  N   UNL     1      42.078 -17.748   1.553  1.00  0.00    -0.216 NA
HETATM    7  C   UNL     1      42.859 -18.203   2.518  1.00  0.00     0.180 A 
HETATM    8  O   UNL     1      43.132 -17.283   3.491  1.00  0.00    -0.293 OA
HETATM    9  C   UNL     1      42.473 -16.148   3.107  1.00  0.00     0.094 A 
BRANCH   7  10
HETATM   10  C   UNL     1      43.472 -19.519   2.679  1.00  0.00     0.017 A 
HETATM   11  C   UNL     1      44.224 -19.805   3.829  1.00  0.00     0.016 A 
HETATM   12  C   UNL     1      44.811 -21.061   4.006  1.00  0.00     0.001 A 
HETATM   13  C   UNL     1      44.653 -22.048   3.036  1.00  0.00     0.000 A 
HETATM   14  C   UNL     1      43.910 -21.782   1.888  1.00  0.00     0.001 A 
HETATM   15  C   UNL     1      43.325 -20.526   1.711  1.00  0.00     0.016 A 
ENDBRANCH   7  10
BRANCH   9  16
HETATM   16  C   UNL     1      42.500 -14.849   3.890  1.00  0.00     0.046 A 
HETATM   17  C   UNL     1      43.590 -14.671   4.927  1.00  0.00     0.012 A 
HETATM   18  C   UNL     1      43.664 -13.907   3.650  1.00  0.00     0.012 A 
ENDBRANCH   9  16
ENDBRANCH   2   5
BRANCH   1  19
HETATM   19  C   UNL     1      41.248 -14.324  -1.097  1.00  0.00     0.035 A 
HETATM   20  C   UNL     1      39.985 -14.369  -1.695  1.00  0.00     0.039 A 
HETATM   21  C   UNL     1      39.650 -13.405  -2.634  1.00  0.00    -0.022 A 
HETATM   22  C   UNL     1      38.350 -13.236  -3.339  1.00  0.00     0.274 C 
HETATM   23  C   UNL     1      40.548 -12.400  -2.995  1.00  0.00    -0.025 A 
HETATM   24  N   UNL     1      38.599 -12.125  -4.355  1.00  0.00    -0.067 N 
HETATM   25  C   UNL     1      37.462 -11.181  -4.513  1.00  0.00     0.270 C 
HETATM   26  H   UNL     1      38.764 -12.597  -5.252  1.00  0.00     0.280 HD
HETATM   27  C   UNL     1      39.920 -11.466  -3.971  1.00  0.00     0.273 C 
HETATM   28  C   UNL     1      41.809 -12.344  -2.426  1.00  0.00     0.012 A 
HETATM   29  C   UNL     1      42.154 -13.314  -1.475  1.00  0.00     0.030 A 
ENDBRANCH   1  19
TORSDOF 4
ENDMDL
MODEL 3
REMARK VINA RESULT:      -8.4      3.647      3.771
REMARK  4 active torsions:
REMARK  status: ('A' for Active; 'I' for Inactive)
REMARK    1  A    between atoms: C_9  and  N_10 
REMARK       I    between atoms: N_10  and  C_11 
REMARK    2  A    between atoms: C_11  and  C_12 
REMARK    3  A    between atoms: C_14  and  C_15 
REMARK    4  A    between atoms: C_22  and  C_23 
ROOT
HETATM    1  N   UNL     1      40.258 -14.946   2.760  1.00  0.00    -0.322 N 
HETATM    2  C   UNL     1      41.601 -15.004   2.428  1.00  0.00     0.277 C 
HETATM    3  O   UNL     1      42.187 -14.219   1.690  1.00  0.00    -0.266 OA
HETATM    4  H   UNL     1      39.965 -15.673   3.412  1.00  0.00     0.169 HD
ENDROOT
BRANCH   2   5
HETATM    5  C   UNL     1      42.262 -16.144   3.059  1.00  0.00     0.157 A 
HETATM    6  N   UNL     1      42.455 -17.352   2.388  1.00  0.00    -0.216 NA
HETATM    7  C   UNL     1      43.108 -18.099   3.261  1.00  0.00     0.180 A 
HETATM    8  O   UNL     1      43.349 -17.478   4.454  1.00  0.00    -0.293 OA
HETATM    9  C   UNL     1      42.807 -16.230   4.325  1.00  0.00     0.094 A 
BRANCH   7  10
HETATM   10  C   UNL     1      43.613 -19.464   3.126  1.00  0.00     0.017 A 
HETATM   11  C   UNL     1      44.372 -20.035   4.159  1.00  0.00     0.016 A 
HETATM   12  C   UNL     1      44.856 -21.342   4.053  1.00  0.00     0.001 A 
HETATM   13  C   UNL     1      44.587 -22.095   2.913  1.00  0.00     0.000 A 
HETATM   14  C   UNL     1      43.836 -21.544   1.878  1.00  0.00     0.001 A 
HETATM   15  C   UNL     1      43.353 -20.238   1.983  1.00  0.00     0.016 A 
ENDBRANCH   7  10
BRANCH   9  16
HETATM   16  C   UNL     1      42.848 -15.173   5.413  1.00  0.00     0.046 A 
HETATM   17  C   UNL     1      44.010 -15.205   6.385  1.00  0.00     0.012 A 
HETATM   18  C   UNL     1      43.953 -14.138   5.347  1.00  0.00     0.012 A 
ENDBRANCH   9  16
ENDBRANCH   2   5
BRANCH   1  19
HETATM   19  C   UNL     1      39.284 -14.058   2.270  1.00  0.00     0.035 A 
HETATM   20  C   UNL     1      39.162 -12.735   2.708  1.00  0.00     0.039 A 
HETATM   21  C   UNL     1      38.202 -11.921   2.127  1.00  0.00    -0.022 A 
HETATM   22  C   UNL     1      37.947 -10.480   2.401  1.00  0.00     0.274 C 
HETATM   23  C   UNL     1      37.356 -12.396   1.124  1.00  0.00    -0.025 A 
HETATM   24  N   UNL     1      36.691 -10.147   1.601  1.00  0.00    -0.067 N 
HETATM   25  C   UNL     1      36.718  -8.807   0.959  1.00  0.00     0.270 C 
HETATM   26  H   UNL     1      35.915 -10.178   2.272  1.00  0.00     0.280 HD
HETATM   27  C   UNL     1      36.465 -11.307   0.635  1.00  0.00     0.273 C 
HETATM   28  C   UNL     1      37.450 -13.705   0.685  1.00  0.00     0.012 A 
HETATM   29  C   UNL     1      38.419 -14.534   1.266  1.00  0.00     0.030 A 
ENDBRANCH   1  19
TORSDOF 4
ENDMDL
MODEL 4
REMARK VINA RESULT:      -8.2      2.125      2.624
REMARK  4 active torsions:
REMARK  status: ('A' for Active; 'I' for Inactive)
REMARK    1  A    between atoms: C_9  and  N_10 
REMARK       I    between atoms: N_10  and  C_11 
REMARK    2  A    between atoms: C_11  and  C_12 
REMARK    3  A    between atoms: C_14  and  C_15 
REMARK    4  A    between atoms: C_22  and  C_23 
ROOT
HETATM    1  N   UNL     1      40.596 -15.428   1.769  1.00  0.00    -0.322 N 
HETATM    2  C   UNL     1      41.818 -15.138   2.352  1.00  0.00     0.277 C 
HETATM    3  O   UNL     1      42.379 -14.048   2.329  1.00  0.00    -0.266 OA
HETATM    4  H   UNL     1      40.285 -16.386   1.924  1.00  0.00     0.169 HD
ENDROOT
BRANCH   2   5
HETATM    5  C   UNL     1      42.393 -16.312   3.006  1.00  0.00     0.157 A 
HETATM    6  N   UNL     1      42.646 -17.496   2.313  1.00  0.00    -0.216 NA
HETATM    7  C   UNL     1      43.190 -18.286   3.221  1.00  0.00     0.180 A 
HETATM    8  O   UNL     1      43.306 -17.716   4.458  1.00  0.00    -0.293 OA
HETATM    9  C   UNL     1      42.795 -16.455   4.320  1.00  0.00     0.094 A 
BRANCH   7  10
HETATM   10  C   UNL     1      43.692 -19.652   3.088  1.00  0.00     0.017 A 
HETATM   11  C   UNL     1      44.387 -20.250   4.151  1.00  0.00     0.016 A 
HETATM   12  C   UNL     1      44.866 -21.558   4.047  1.00  0.00     0.001 A 
HETATM   13  C   UNL     1      44.658 -22.287   2.878  1.00  0.00     0.000 A 
HETATM   14  C   UNL     1      43.971 -21.710   1.813  1.00  0.00     0.001 A 
HETATM   15  C   UNL     1      43.493 -20.401   1.917  1.00  0.00     0.016 A 
ENDBRANCH   7  10
BRANCH   9  16
HETATM   16  C   UNL     1      42.728 -15.442   5.447  1.00  0.00     0.046 A 
HETATM   17  C   UNL     1      43.772 -15.532   6.541  1.00  0.00     0.012 A 
HETATM   18  C   UNL     1      43.847 -14.424   5.546  1.00  0.00     0.012 A 
ENDBRANCH   9  16
ENDBRANCH   2   5
BRANCH   1  19
HETATM   19  C   UNL     1      39.799 -14.587   0.973  1.00  0.00     0.035 A 
HETATM   20  C   UNL     1      40.262 -13.963  -0.189  1.00  0.00     0.039 A 
HETATM   21  C   UNL     1      39.383 -13.191  -0.934  1.00  0.00    -0.022 A 
HETATM   22  C   UNL     1      39.653 -12.496  -2.223  1.00  0.00     0.274 C 
HETATM   23  C   UNL     1      38.054 -13.024  -0.545  1.00  0.00    -0.025 A 
HETATM   24  N   UNL     1      38.391 -11.686  -2.501  1.00  0.00    -0.067 N 
HETATM   25  C   UNL     1      37.987 -11.664  -3.931  1.00  0.00     0.270 C 
HETATM   26  H   UNL     1      38.601 -10.727  -2.201  1.00  0.00     0.280 HD
HETATM   27  C   UNL     1      37.318 -12.203  -1.548  1.00  0.00     0.273 C 
HETATM   28  C   UNL     1      37.577 -13.621   0.609  1.00  0.00     0.012 A 
HETATM   29  C   UNL     1      38.458 -14.403   1.367  1.00  0.00     0.030 A 
ENDBRANCH   1  19
TORSDOF 4
ENDMDL
MODEL 5
REMARK VINA RESULT:      -8.1      3.753      7.160
REMARK  4 active torsions:
REMARK  status: ('A' for Active; 'I' for Inactive)
REMARK    1  A    between atoms: C_9  and  N_10 
REMARK       I    between atoms: N_10  and  C_11 
REMARK    2  A    between atoms: C_11  and  C_12 
REMARK    3  A    between atoms: C_14  and  C_15 
REMARK    4  A    between atoms: C_22  and  C_23 
ROOT
HETATM    1  N   UNL     1      43.544 -14.875   5.174  1.00  0.00    -0.322 N 
HETATM    2  C   UNL     1      43.544 -14.733   3.796  1.00  0.00     0.277 C 
HETATM    3  O   UNL     1      43.602 -13.669   3.189  1.00  0.00    -0.266 OA
HETATM    4  H   UNL     1      43.518 -15.844   5.486  1.00  0.00     0.169 HD
ENDROOT
BRANCH   2   5
HETATM    5  C   UNL     1      43.447 -16.026   3.124  1.00  0.00     0.157 A 
HETATM    6  N   UNL     1      43.981 -17.191   3.676  1.00  0.00    -0.216 NA
HETATM    7  C   UNL     1      43.661 -18.132   2.806  1.00  0.00     0.180 A 
HETATM    8  O   UNL     1      42.966 -17.674   1.721  1.00  0.00    -0.293 OA
HETATM    9  C   UNL     1      42.832 -16.329   1.924  1.00  0.00     0.094 A 
BRANCH   7  10
HETATM   10  C   UNL     1      43.924 -19.569   2.848  1.00  0.00     0.017 A 
HETATM   11  C   UNL     1      44.523 -20.138   3.983  1.00  0.00     0.016 A 
HETATM   12  C   UNL     1      44.775 -21.511   4.048  1.00  0.00     0.001 A 
HETATM   13  C   UNL     1      44.431 -22.334   2.978  1.00  0.00     0.000 A 
HETATM   14  C   UNL     1      43.837 -21.787   1.844  1.00  0.00     0.001 A 
HETATM   15  C   UNL     1      43.586 -20.414   1.779  1.00  0.00     0.016 A 
ENDBRANCH   7  10
BRANCH   9  16
HETATM   16  C   UNL     1      42.110 -15.398   0.968  1.00  0.00     0.046 A 
HETATM   17  C   UNL     1      41.283 -16.022  -0.137  1.00  0.00     0.012 A 
HETATM   18  C   UNL     1      40.595 -15.377   1.017  1.00  0.00     0.012 A 
ENDBRANCH   9  16
ENDBRANCH   2   5
BRANCH   1  19
HETATM   19  C   UNL     1      43.523 -13.859   6.146  1.00  0.00     0.035 A 
HETATM   20  C   UNL     1      42.529 -12.878   6.210  1.00  0.00     0.039 A 
HETATM   21  C   UNL     1      42.567 -11.948   7.238  1.00  0.00    -0.022 A 
HETATM   22  C   UNL     1      41.583 -10.867   7.523  1.00  0.00     0.274 C 
HETATM   23  C   UNL     1      43.577 -11.971   8.201  1.00  0.00    -0.025 A 
HETATM   24  N   UNL     1      42.204 -10.066   8.663  1.00  0.00    -0.067 N 
HETATM   25  C   UNL     1      41.225  -9.606   9.684  1.00  0.00     0.270 C 
HETATM   26  H   UNL     1      42.637  -9.245   8.226  1.00  0.00     0.280 HD
HETATM   27  C   UNL     1      43.349 -10.906   9.219  1.00  0.00     0.273 C 
HETATM   28  C   UNL     1      44.578 -12.924   8.150  1.00  0.00     0.012 A 
HETATM   29  C   UNL     1      44.545 -13.869   7.115  1.00  0.00     0.030 A 
ENDBRANCH   1  19
TORSDOF 4
ENDMDL
MODEL 6
REMARK VINA RESULT:      -8.1      2.157      9.026
REMARK  4 active torsions:
REMARK  status: ('A' for Active; 'I' for Inactive)
REMARK    1  A    between atoms: C_9  and  N_10 
REMARK       I    between atoms: N_10  and  C_11 
REMARK    2  A    between atoms: C_11  and  C_12 
REMARK    3  A    between atoms: C_14  and  C_15 
REMARK    4  A    between atoms: C_22  and  C_23 
ROOT
HETATM    1  N   UNL     1      42.393 -15.935   1.710  1.00  0.00    -0.322 N 
HETATM    2  C   UNL     1      41.284 -15.967   0.881  1.00  0.00     0.277 C 
HETATM    3  O   UNL     1      40.565 -16.941   0.690  1.00  0.00    -0.266 OA
HETATM    4  H   UNL     1      42.843 -15.022   1.758  1.00  0.00     0.169 HD
ENDROOT
BRANCH   2   5
HETATM    5  C   UNL     1      41.066 -14.679   0.226  1.00  0.00     0.157 A 
HETATM    6  N   UNL     1      41.919 -14.200  -0.768  1.00  0.00    -0.216 NA
HETATM    7  C   UNL     1      41.375 -13.051  -1.129  1.00  0.00     0.180 A 
HETATM    8  O   UNL     1      40.236 -12.736  -0.442  1.00  0.00    -0.293 OA
HETATM    9  C   UNL     1      40.040 -13.776   0.424  1.00  0.00     0.094 A 
BRANCH   7  10
HETATM   10  C   UNL     1      41.802 -12.098  -2.151  1.00  0.00     0.017 A 
HETATM   11  C   UNL     1      42.353 -10.864  -1.771  1.00  0.00     0.016 A 
HETATM   12  C   UNL     1      42.776  -9.943  -2.732  1.00  0.00     0.001 A 
HETATM   13  C   UNL     1      42.654 -10.243  -4.087  1.00  0.00     0.000 A 
HETATM   14  C   UNL     1      42.110 -11.462  -4.482  1.00  0.00     0.001 A 
HETATM   15  C   UNL     1      41.685 -12.382  -3.521  1.00  0.00     0.016 A 
ENDBRANCH   7  10
BRANCH   9  16
HETATM   16  C   UNL     1      38.874 -13.862   1.391  1.00  0.00     0.046 A 
HETATM   17  C   UNL     1      37.774 -12.828   1.266  1.00  0.00     0.012 A 
HETATM   18  C   UNL     1      37.516 -14.228   0.824  1.00  0.00     0.012 A 
ENDBRANCH   9  16
ENDBRANCH   2   5
BRANCH   1  19
HETATM   19  C   UNL     1      42.969 -17.002   2.422  1.00  0.00     0.035 A 
HETATM   20  C   UNL     1      42.855 -17.150   3.808  1.00  0.00     0.039 A 
HETATM   21  C   UNL     1      43.417 -18.264   4.414  1.00  0.00    -0.022 A 
HETATM   22  C   UNL     1      43.359 -18.642   5.853  1.00  0.00     0.274 C 
HETATM   23  C   UNL     1      44.094 -19.231   3.670  1.00  0.00    -0.025 A 
HETATM   24  N   UNL     1      44.267 -19.862   5.972  1.00  0.00    -0.067 N 
HETATM   25  C   UNL     1      43.755 -20.912   6.892  1.00  0.00     0.270 C 
HETATM   26  H   UNL     1      45.161 -19.512   6.334  1.00  0.00     0.280 HD
HETATM   27  C   UNL     1      44.543 -20.345   4.551  1.00  0.00     0.273 C 
HETATM   28  C   UNL     1      44.231 -19.098   2.299  1.00  0.00     0.012 A 
HETATM   29  C   UNL     1      43.665 -17.976   1.680  1.00  0.00     0.030 A 
ENDBRANCH   1  19
TORSDOF 4
ENDMDL
MODEL 7
REMARK VINA RESULT:      -8.0      2.221      9.248
REMARK  4 active torsions:
REMARK  status: ('A' for Active; 'I' for Inactive)
REMARK    1  A    between atoms: C_9  and  N_10 
REMARK       I    between atoms: N_10  and  C_11 
REMARK    2  A    between atoms: C_11  and  C_12 
REMARK    3  A    between atoms: C_14  and  C_15 
REMARK    4  A    between atoms: C_22  and  C_23 
ROOT
HETATM    1  N   UNL     1      42.971 -15.680   1.495  1.00  0.00    -0.322 N 
HETATM    2  C   UNL     1      41.683 -15.267   1.199  1.00  0.00     0.277 C 
HETATM    3  O   UNL     1      40.654 -15.828   1.558  1.00  0.00    -0.266 OA
HETATM    4  H   UNL     1      43.694 -15.062   1.129  1.00  0.00     0.169 HD
ENDROOT
BRANCH   2   5
HETATM    5  C   UNL     1      41.682 -14.061   0.373  1.00  0.00     0.157 A 
HETATM    6  N   UNL     1      42.257 -12.867   0.805  1.00  0.00    -0.216 NA
HETATM    7  C   UNL     1      42.091 -12.045  -0.217  1.00  0.00     0.180 A 
HETATM    8  O   UNL     1      41.445 -12.606  -1.282  1.00  0.00    -0.293 OA
HETATM    9  C   UNL     1      41.182 -13.894  -0.904  1.00  0.00     0.094 A 
BRANCH   7  10
HETATM   10  C   UNL     1      42.510 -10.653  -0.371  1.00  0.00     0.017 A 
HETATM   11  C   UNL     1      41.825  -9.637   0.313  1.00  0.00     0.016 A 
HETATM   12  C   UNL     1      42.215  -8.301   0.187  1.00  0.00     0.001 A 
HETATM   13  C   UNL     1      43.295  -7.963  -0.625  1.00  0.00     0.000 A 
HETATM   14  C   UNL     1      43.986  -8.959  -1.312  1.00  0.00     0.001 A 
HETATM   15  C   UNL     1      43.595 -10.294  -1.186  1.00  0.00     0.016 A 
ENDBRANCH   7  10
BRANCH   9  16
HETATM   16  C   UNL     1      40.478 -14.907  -1.787  1.00  0.00     0.046 A 
HETATM   17  C   UNL     1      40.182 -14.511  -3.219  1.00  0.00     0.012 A 
HETATM   18  C   UNL     1      41.262 -15.500  -2.941  1.00  0.00     0.012 A 
ENDBRANCH   9  16
ENDBRANCH   2   5
BRANCH   1  19
HETATM   19  C   UNL     1      43.370 -16.844   2.175  1.00  0.00     0.035 A 
HETATM   20  C   UNL     1      43.428 -16.936   3.569  1.00  0.00     0.039 A 
HETATM   21  C   UNL     1      43.785 -18.144   4.149  1.00  0.00    -0.022 A 
HETATM   22  C   UNL     1      43.850 -18.472   5.600  1.00  0.00     0.274 C 
HETATM   23  C   UNL     1      44.090 -19.261   3.371  1.00  0.00    -0.025 A 
HETATM   24  N   UNL     1      44.442 -19.877   5.656  1.00  0.00    -0.067 N 
HETATM   25  C   UNL     1      43.832 -20.751   6.692  1.00  0.00     0.270 C 
HETATM   26  H   UNL     1      45.438 -19.753   5.872  1.00  0.00     0.280 HD
HETATM   27  C   UNL     1      44.381 -20.437   4.239  1.00  0.00     0.273 C 
HETATM   28  C   UNL     1      44.052 -19.189   1.989  1.00  0.00     0.012 A 
HETATM   29  C   UNL     1      43.691 -17.972   1.396  1.00  0.00     0.030 A 
ENDBRANCH   1  19
TORSDOF 4
ENDMDL
MODEL 8
REMARK VINA RESULT:      -8.0      1.640      2.382
REMARK  4 active torsions:
REMARK  status: ('A' for Active; 'I' for Inactive)
REMARK    1  A    between atoms: C_9  and  N_10 
REMARK       I    between atoms: N_10  and  C_11 
REMARK    2  A    between atoms: C_11  and  C_12 
REMARK    3  A    between atoms: C_14  and  C_15 
REMARK    4  A    between atoms: C_22  and  C_23 
ROOT
HETATM    1  N   UNL     1      42.275 -13.824  -0.237  1.00  0.00    -0.322 N 
HETATM    2  C   UNL     1      41.258 -14.761  -0.169  1.00  0.00     0.277 C 
HETATM    3  O   UNL     1      40.274 -14.800  -0.899  1.00  0.00    -0.266 OA
HETATM    4  H   UNL     1      43.021 -13.978   0.439  1.00  0.00     0.169 HD
ENDROOT
BRANCH   2   5
HETATM    5  C   UNL     1      41.483 -15.720   0.911  1.00  0.00     0.157 A 
HETATM    6  N   UNL     1      42.404 -16.761   0.797  1.00  0.00    -0.216 NA
HETATM    7  C   UNL     1      42.346 -17.368   1.969  1.00  0.00     0.180 A 
HETATM    8  O   UNL     1      41.451 -16.811   2.840  1.00  0.00    -0.293 OA
HETATM    9  C   UNL     1      40.900 -15.759   2.162  1.00  0.00     0.094 A 
BRANCH   7  10
HETATM   10  C   UNL     1      43.101 -18.518   2.462  1.00  0.00     0.017 A 
HETATM   11  C   UNL     1      43.204 -19.677   1.676  1.00  0.00     0.016 A 
HETATM   12  C   UNL     1      43.929 -20.784   2.124  1.00  0.00     0.001 A 
HETATM   13  C   UNL     1      44.561 -20.747   3.365  1.00  0.00     0.000 A 
HETATM   14  C   UNL     1      44.470 -19.606   4.158  1.00  0.00     0.001 A 
HETATM   15  C   UNL     1      43.743 -18.500   3.710  1.00  0.00     0.016 A 
ENDBRANCH   7  10
BRANCH   9  16
HETATM   16  C   UNL     1      39.850 -14.833   2.748  1.00  0.00     0.046 A 
HETATM   17  C   UNL     1      39.958 -14.484   4.219  1.00  0.00     0.012 A 
HETATM   18  C   UNL     1      40.299 -13.455   3.195  1.00  0.00     0.012 A 
ENDBRANCH   9  16
ENDBRANCH   2   5
BRANCH   1  19
HETATM   19  C   UNL     1      42.355 -12.696  -1.073  1.00  0.00     0.035 A 
HETATM   20  C   UNL     1      42.389 -12.776  -2.468  1.00  0.00     0.039 A 
HETATM   21  C   UNL     1      42.417 -11.603  -3.208  1.00  0.00    -0.022 A 
HETATM   22  C   UNL     1      42.396 -11.463  -4.690  1.00  0.00     0.274 C 
HETATM   23  C   UNL     1      42.417 -10.353  -2.589  1.00  0.00    -0.025 A 
HETATM   24  N   UNL     1      42.598  -9.973  -4.944  1.00  0.00    -0.067 N 
HETATM   25  C   UNL     1      41.782  -9.431  -6.062  1.00  0.00     0.270 C 
HETATM   26  H   UNL     1      43.592  -9.860  -5.176  1.00  0.00     0.280 HD
HETATM   27  C   UNL     1      42.390  -9.266  -3.608  1.00  0.00     0.273 C 
HETATM   28  C   UNL     1      42.397 -10.250  -1.209  1.00  0.00     0.012 A 
HETATM   29  C   UNL     1      42.367 -11.430  -0.454  1.00  0.00     0.030 A 
ENDBRANCH   1  19
TORSDOF 4
ENDMDL
MODEL 9
REMARK VINA RESULT:      -7.9      2.424      3.169
REMARK  4 active torsions:
REMARK  status: ('A' for Active; 'I' for Inactive)
REMARK    1  A    between atoms: C_9  and  N_10 
REMARK       I    between atoms: N_10  and  C_11 
REMARK    2  A    between atoms: C_11  and  C_12 
REMARK    3  A    between atoms: C_14  and  C_15 
REMARK    4  A    between atoms: C_22  and  C_23 
ROOT
HETATM    1  N   UNL     1      40.348 -14.911  -0.178  1.00  0.00    -0.322 N 
HETATM    2  C   UNL     1      40.070 -15.322   1.115  1.00  0.00     0.277 C 
HETATM    3  O   UNL     1      39.002 -15.169   1.698  1.00  0.00    -0.266 OA
HETATM    4  H   UNL     1      41.286 -15.156  -0.493  1.00  0.00     0.169 HD
ENDROOT
BRANCH   2   5
HETATM    5  C   UNL     1      41.228 -15.962   1.736  1.00  0.00     0.157 A 
HETATM    6  N   UNL     1      41.373 -17.348   1.779  1.00  0.00    -0.216 NA
HETATM    7  C   UNL     1      42.541 -17.528   2.372  1.00  0.00     0.180 A 
HETATM    8  O   UNL     1      43.168 -16.367   2.728  1.00  0.00    -0.293 OA
HETATM    9  C   UNL     1      42.328 -15.367   2.323  1.00  0.00     0.094 A 
BRANCH   7  10
HETATM   10  C   UNL     1      43.250 -18.769   2.678  1.00  0.00     0.017 A 
HETATM   11  C   UNL     1      43.177 -19.854   1.790  1.00  0.00     0.016 A 
HETATM   12  C   UNL     1      43.855 -21.045   2.058  1.00  0.00     0.001 A 
HETATM   13  C   UNL     1      44.615 -21.169   3.219  1.00  0.00     0.000 A 
HETATM   14  C   UNL     1      44.698 -20.103   4.111  1.00  0.00     0.001 A 
HETATM   15  C   UNL     1      44.019 -18.912   3.843  1.00  0.00     0.016 A 
ENDBRANCH   7  10
BRANCH   9  16
HETATM   16  C   UNL     1      42.623 -13.890   2.505  1.00  0.00     0.046 A 
HETATM   17  C   UNL     1      41.704 -13.092   3.408  1.00  0.00     0.012 A 
HETATM   18  C   UNL     1      43.079 -13.427   3.875  1.00  0.00     0.012 A 
ENDBRANCH   9  16
ENDBRANCH   2   5
BRANCH   1  19
HETATM   19  C   UNL     1      39.523 -14.176  -1.046  1.00  0.00     0.035 A 
HETATM   20  C   UNL     1      38.854 -14.744  -2.134  1.00  0.00     0.039 A 
HETATM   21  C   UNL     1      38.021 -13.945  -2.904  1.00  0.00    -0.022 A 
HETATM   22  C   UNL     1      37.177 -14.360  -4.058  1.00  0.00     0.274 C 
HETATM   23  C   UNL     1      37.845 -12.591  -2.617  1.00  0.00    -0.025 A 
HETATM   24  N   UNL     1      36.603 -13.058  -4.608  1.00  0.00    -0.067 N 
HETATM   25  C   UNL     1      35.188 -13.159  -5.053  1.00  0.00     0.270 C 
HETATM   26  H   UNL     1      37.187 -12.812  -5.416  1.00  0.00     0.280 HD
HETATM   27  C   UNL     1      36.859 -11.984  -3.555  1.00  0.00     0.273 C 
HETATM   28  C   UNL     1      38.508 -12.005  -1.553  1.00  0.00     0.012 A 
HETATM   29  C   UNL     1      39.350 -12.805  -0.770  1.00  0.00     0.030 A 
ENDBRANCH   1  19
TORSDOF 4
ENDMDL
MODEL 10
REMARK VINA RESULT:      -7.8      3.910      6.376
REMARK  4 active torsions:
REMARK  status: ('A' for Active; 'I' for Inactive)
REMARK    1  A    between atoms: C_9  and  N_10 
REMARK       I    between atoms: N_10  and  C_11 
REMARK    2  A    between atoms: C_11  and  C_12 
REMARK    3  A    between atoms: C_14  and  C_15 
REMARK    4  A    between atoms: C_22  and  C_23 
ROOT
HETATM    1  N   UNL     1      41.390 -14.062   4.150  1.00  0.00    -0.322 N 
HETATM    2  C   UNL     1      42.726 -14.361   3.942  1.00  0.00     0.277 C 
HETATM    3  O   UNL     1      43.675 -13.669   4.297  1.00  0.00    -0.266 OA
HETATM    4  H   UNL     1      40.751 -14.777   3.806  1.00  0.00     0.169 HD
ENDROOT
BRANCH   2   5
HETATM    5  C   UNL     1      42.888 -15.619   3.219  1.00  0.00     0.157 A 
HETATM    6  N   UNL     1      43.396 -16.765   3.830  1.00  0.00    -0.216 NA
HETATM    7  C   UNL     1      43.351 -17.681   2.879  1.00  0.00     0.180 A 
HETATM    8  O   UNL     1      42.860 -17.223   1.688  1.00  0.00    -0.293 OA
HETATM    9  C   UNL     1      42.566 -15.905   1.906  1.00  0.00     0.094 A 
BRANCH   7  10
HETATM   10  C   UNL     1      43.727 -19.093   2.925  1.00  0.00     0.017 A 
HETATM   11  C   UNL     1      43.434 -19.931   1.838  1.00  0.00     0.016 A 
HETATM   12  C   UNL     1      43.795 -21.281   1.857  1.00  0.00     0.001 A 
HETATM   13  C   UNL     1      44.452 -21.811   2.965  1.00  0.00     0.000 A 
HETATM   14  C   UNL     1      44.750 -20.994   4.053  1.00  0.00     0.001 A 
HETATM   15  C   UNL     1      44.389 -19.645   4.033  1.00  0.00     0.016 A 
ENDBRANCH   7  10
BRANCH   9  16
HETATM   16  C   UNL     1      41.980 -14.985   0.852  1.00  0.00     0.046 A 
HETATM   17  C   UNL     1      41.276 -15.621  -0.330  1.00  0.00     0.012 A 
HETATM   18  C   UNL     1      40.470 -14.937   0.721  1.00  0.00     0.012 A 
ENDBRANCH   9  16
ENDBRANCH   2   5
BRANCH   1  19
HETATM   19  C   UNL     1      40.844 -12.896   4.716  1.00  0.00     0.035 A 
HETATM   20  C   UNL     1      40.716 -12.699   6.094  1.00  0.00     0.039 A 
HETATM   21  C   UNL     1      40.210 -11.493   6.557  1.00  0.00    -0.022 A 
HETATM   22  C   UNL     1      40.049 -11.059   7.972  1.00  0.00     0.274 C 
HETATM   23  C   UNL     1      39.826 -10.481   5.677  1.00  0.00    -0.025 A 
HETATM   24  N   UNL     1      39.313  -9.726   7.889  1.00  0.00    -0.067 N 
HETATM   25  C   UNL     1      39.784  -8.711   8.868  1.00  0.00     0.270 C 
HETATM   26  H   UNL     1      38.327  -9.937   8.080  1.00  0.00     0.280 HD
HETATM   27  C   UNL     1      39.378  -9.277   6.432  1.00  0.00     0.273 C 
HETATM   28  C   UNL     1      39.931 -10.659   4.309  1.00  0.00     0.012 A 
HETATM   29  C   UNL     1      40.442 -11.874   3.833  1.00  0.00     0.030 A 
ENDBRANCH   1  19
TORSDOF 4
ENDMDL
