MODEL 1
REMARK VINA RESULT:      -7.2      0.000      0.000
REMARK  6 active torsions:
REMARK  status: ('A' for Active; 'I' for Inactive)
REMARK    1  A    between atoms: C_2  and  N_3 
REMARK    2  A    between atoms: C_2  and  C_16 
REMARK    3  A    between atoms: N_3  and  C_6 
REMARK    4  A    between atoms: C_16  and  C_17 
REMARK       I    between atoms: C_17  and  N_18 
REMARK    5  A    between atoms: N_18  and  C_19 
REMARK    6  A    between atoms: C_22  and  O_23 
ROOT
HETATM    1  C   UNL     1      39.067 -15.208   1.799  1.00  0.00     0.040 C 
HETATM    2  C   UNL     1      40.538 -15.050   1.439  1.00  0.00     0.191 C 
ENDROOT
BRANCH   2   3
HETATM    3  N   UNL     1      41.357 -14.787   2.681  1.00  0.00    -0.063 N 
HETATM    4  H   UNL     1      42.018 -15.593   2.762  1.00  0.00     0.278 HD
HETATM    5  H   UNL     1      41.973 -13.992   2.477  1.00  0.00     0.278 HD
BRANCH   3   6
HETATM    6  C   UNL     1      40.710 -14.583   4.026  1.00  0.00     0.221 C 
HETATM    7  C   UNL     1      41.327 -15.401   5.130  1.00  0.00    -0.011 A 
HETATM    8  C   UNL     1      42.607 -15.074   5.608  1.00  0.00     0.009 A 
HETATM    9  C   UNL     1      40.638 -16.483   5.700  1.00  0.00     0.011 A 
HETATM   10  C   UNL     1      43.206 -15.865   6.591  1.00  0.00     0.019 A 
HETATM   11  S   UNL     1      43.516 -13.693   4.947  1.00  0.00    -0.129 SA
HETATM   12  C   UNL     1      42.524 -16.954   7.132  1.00  0.00     0.001 A 
HETATM   13  C   UNL     1      41.237 -17.257   6.694  1.00  0.00     0.001 A 
HETATM   14  C   UNL     1      42.179 -12.516   4.561  1.00  0.00     0.082 C 
HETATM   15  C   UNL     1      40.776 -13.100   4.408  1.00  0.00     0.048 C 
ENDBRANCH   3   6
ENDBRANCH   2   3
BRANCH   2  16
HETATM   16  C   UNL     1      41.061 -16.218   0.594  1.00  0.00     0.135 C 
BRANCH  16  17
HETATM   17  C   UNL     1      42.279 -16.849   1.233  1.00  0.00     0.224 C 
HETATM   18  N   UNL     1      41.987 -18.005   1.918  1.00  0.00    -0.327 N 
HETATM   19  H   UNL     1      41.012 -18.259   2.026  1.00  0.00     0.169 HD
HETATM   20  O   UNL     1      43.367 -16.286   1.134  1.00  0.00    -0.273 OA
BRANCH  18  21
HETATM   21  C   UNL     1      42.900 -18.859   2.572  1.00  0.00     0.034 A 
HETATM   22  C   UNL     1      43.240 -18.544   3.894  1.00  0.00     0.032 A 
HETATM   23  C   UNL     1      44.120 -19.354   4.624  1.00  0.00     0.039 A 
HETATM   24  C   UNL     1      44.661 -20.498   4.043  1.00  0.00     0.068 A 
HETATM   25  C   UNL     1      44.323 -20.812   2.726  1.00  0.00     0.039 A 
HETATM   26  C   UNL     1      43.451 -20.000   1.992  1.00  0.00     0.032 A 
BRANCH  24  27
HETATM   27  O   UNL     1      45.514 -21.380   4.642  1.00  0.00    -0.356 OA
HETATM   28  C   UNL     1      44.980 -22.640   5.025  1.00  0.00     0.210 C 
ENDBRANCH  24  27
ENDBRANCH  18  21
ENDBRANCH  16  17
ENDBRANCH   2  16
TORSDOF 6
ENDMDL
MODEL 2
REMARK VINA RESULT:      -7.0      2.249      4.253
REMARK  6 active torsions:
REMARK  status: ('A' for Active; 'I' for Inactive)
REMARK    1  A    between atoms: C_2  and  N_3 
REMARK    2  A    between atoms: C_2  and  C_16 
REMARK    3  A    between atoms: N_3  and  C_6 
REMARK    4  A    between atoms: C_16  and  C_17 
REMARK       I    between atoms: C_17  and  N_18 
REMARK    5  A    between atoms: N_18  and  C_19 
REMARK    6  A    between atoms: C_22  and  O_23 
ROOT
HETATM    1  C   UNL     1      44.890 -14.209   6.197  1.00  0.00     0.040 C 
HETATM    2  C   UNL     1      43.555 -14.800   6.628  1.00  0.00     0.191 C 
ENDROOT
BRANCH   2   3
HETATM    3  N   UNL     1      42.622 -14.906   5.445  1.00  0.00    -0.063 N 
HETATM    4  H   UNL     1      42.401 -15.922   5.346  1.00  0.00     0.278 HD
HETATM    5  H   UNL     1      41.726 -14.493   5.727  1.00  0.00     0.278 HD
BRANCH   3   6
HETATM    6  C   UNL     1      43.005 -14.381   4.086  1.00  0.00     0.221 C 
HETATM    7  C   UNL     1      42.578 -15.269   2.947  1.00  0.00    -0.011 A 
HETATM    8  C   UNL     1      41.217 -15.367   2.611  1.00  0.00     0.009 A 
HETATM    9  C   UNL     1      43.522 -15.996   2.204  1.00  0.00     0.011 A 
HETATM   10  C   UNL     1      40.812 -16.234   1.595  1.00  0.00     0.019 A 
HETATM   11  S   UNL     1      39.978 -14.444   3.497  1.00  0.00    -0.129 SA
HETATM   12  C   UNL     1      41.754 -16.972   0.880  1.00  0.00     0.001 A 
HETATM   13  C   UNL     1      43.109 -16.846   1.176  1.00  0.00     0.001 A 
HETATM   14  C   UNL     1      40.877 -12.914   3.910  1.00  0.00     0.082 C 
HETATM   15  C   UNL     1      42.402 -12.986   3.884  1.00  0.00     0.048 C 
ENDBRANCH   3   6
ENDBRANCH   2   3
BRANCH   2  16
HETATM   16  C   UNL     1      43.721 -16.115   7.398  1.00  0.00     0.135 C 
BRANCH  16  17
HETATM   17  C   UNL     1      43.369 -17.303   6.529  1.00  0.00     0.224 C 
HETATM   18  N   UNL     1      44.461 -17.842   5.889  1.00  0.00    -0.327 N 
HETATM   19  H   UNL     1      45.344 -17.351   5.962  1.00  0.00     0.169 HD
HETATM   20  O   UNL     1      42.193 -17.647   6.432  1.00  0.00    -0.273 OA
BRANCH  18  21
HETATM   21  C   UNL     1      44.481 -18.982   5.058  1.00  0.00     0.034 A 
HETATM   22  C   UNL     1      44.740 -20.216   5.668  1.00  0.00     0.032 A 
HETATM   23  C   UNL     1      44.753 -21.401   4.921  1.00  0.00     0.039 A 
HETATM   24  C   UNL     1      44.494 -21.366   3.553  1.00  0.00     0.068 A 
HETATM   25  C   UNL     1      44.237 -20.138   2.944  1.00  0.00     0.039 A 
HETATM   26  C   UNL     1      44.232 -18.951   3.688  1.00  0.00     0.032 A 
BRANCH  24  27
HETATM   27  O   UNL     1      44.460 -22.441   2.711  1.00  0.00    -0.356 OA
HETATM   28  C   UNL     1      44.178 -22.183   1.342  1.00  0.00     0.210 C 
ENDBRANCH  24  27
ENDBRANCH  18  21
ENDBRANCH  16  17
ENDBRANCH   2  16
TORSDOF 6
ENDMDL
MODEL 3
REMARK VINA RESULT:      -7.0      2.932      6.800
REMARK  6 active torsions:
REMARK  status: ('A' for Active; 'I' for Inactive)
REMARK    1  A    between atoms: C_2  and  N_3 
REMARK    2  A    between atoms: C_2  and  C_16 
REMARK    3  A    between atoms: N_3  and  C_6 
REMARK    4  A    between atoms: C_16  and  C_17 
REMARK       I    between atoms: C_17  and  N_18 
REMARK    5  A    between atoms: N_18  and  C_19 
REMARK    6  A    between atoms: C_22  and  O_23 
ROOT
HETATM    1  C   UNL     1      43.708 -13.881   3.613  1.00  0.00     0.040 C 
HETATM    2  C   UNL     1      42.834 -15.067   3.226  1.00  0.00     0.191 C 
ENDROOT
BRANCH   2   3
HETATM    3  N   UNL     1      43.311 -16.319   3.923  1.00  0.00    -0.063 N 
HETATM    4  H   UNL     1      44.233 -16.553   3.491  1.00  0.00     0.278 HD
HETATM    5  H   UNL     1      43.557 -16.057   4.885  1.00  0.00     0.278 HD
BRANCH   3   6
HETATM    6  C   UNL     1      42.481 -17.575   3.948  1.00  0.00     0.221 C 
HETATM    7  C   UNL     1      43.218 -18.803   3.482  1.00  0.00    -0.011 A 
HETATM    8  C   UNL     1      44.225 -19.360   4.288  1.00  0.00     0.009 A 
HETATM    9  C   UNL     1      42.907 -19.411   2.256  1.00  0.00     0.011 A 
HETATM   10  C   UNL     1      44.951 -20.463   3.833  1.00  0.00     0.019 A 
HETATM   11  S   UNL     1      44.641 -18.652   5.868  1.00  0.00    -0.129 SA
HETATM   12  C   UNL     1      44.652 -21.043   2.601  1.00  0.00     0.001 A 
HETATM   13  C   UNL     1      43.625 -20.525   1.817  1.00  0.00     0.001 A 
HETATM   14  C   UNL     1      43.024 -18.038   6.439  1.00  0.00     0.082 C 
HETATM   15  C   UNL     1      41.957 -17.818   5.369  1.00  0.00     0.048 C 
ENDBRANCH   3   6
ENDBRANCH   2   3
BRANCH   2  16
HETATM   16  C   UNL     1      41.342 -14.782   3.428  1.00  0.00     0.135 C 
BRANCH  16  17
HETATM   17  C   UNL     1      40.546 -15.143   2.194  1.00  0.00     0.224 C 
HETATM   18  N   UNL     1      40.820 -14.326   1.121  1.00  0.00    -0.327 N 
HETATM   19  H   UNL     1      41.417 -13.523   1.277  1.00  0.00     0.169 HD
HETATM   20  O   UNL     1      39.728 -16.058   2.254  1.00  0.00    -0.273 OA
BRANCH  18  21
HETATM   21  C   UNL     1      40.293 -14.432  -0.184  1.00  0.00     0.034 A 
HETATM   22  C   UNL     1      41.032 -15.173  -1.116  1.00  0.00     0.032 A 
HETATM   23  C   UNL     1      40.568 -15.349  -2.426  1.00  0.00     0.039 A 
HETATM   24  C   UNL     1      39.352 -14.796  -2.816  1.00  0.00     0.068 A 
HETATM   25  C   UNL     1      38.616 -14.057  -1.889  1.00  0.00     0.039 A 
HETATM   26  C   UNL     1      39.081 -13.872  -0.582  1.00  0.00     0.032 A 
BRANCH  24  27
HETATM   27  O   UNL     1      38.777 -14.902  -4.051  1.00  0.00    -0.356 OA
HETATM   28  C   UNL     1      37.356 -14.924  -4.104  1.00  0.00     0.210 C 
ENDBRANCH  24  27
ENDBRANCH  18  21
ENDBRANCH  16  17
ENDBRANCH   2  16
TORSDOF 6
ENDMDL
MODEL 4
REMARK VINA RESULT:      -6.9      5.527      8.731
REMARK  6 active torsions:
REMARK  status: ('A' for Active; 'I' for Inactive)
REMARK    1  A    between atoms: C_2  and  N_3 
REMARK    2  A    between atoms: C_2  and  C_16 
REMARK    3  A    between atoms: N_3  and  C_6 
REMARK    4  A    between atoms: C_16  and  C_17 
REMARK       I    between atoms: C_17  and  N_18 
REMARK    5  A    between atoms: N_18  and  C_19 
REMARK    6  A    between atoms: C_22  and  O_23 
ROOT
HETATM    1  C   UNL     1      43.268 -13.698   5.619  1.00  0.00     0.040 C 
HETATM    2  C   UNL     1      44.029 -14.338   6.772  1.00  0.00     0.191 C 
ENDROOT
BRANCH   2   3
HETATM    3  N   UNL     1      44.089 -15.836   6.593  1.00  0.00    -0.063 N 
HETATM    4  H   UNL     1      44.741 -16.002   5.793  1.00  0.00     0.278 HD
HETATM    5  H   UNL     1      44.597 -16.219   7.399  1.00  0.00     0.278 HD
BRANCH   3   6
HETATM    6  C   UNL     1      42.847 -16.655   6.354  1.00  0.00     0.221 C 
HETATM    7  C   UNL     1      42.791 -17.294   4.992  1.00  0.00    -0.011 A 
HETATM    8  C   UNL     1      43.648 -18.365   4.688  1.00  0.00     0.009 A 
HETATM    9  C   UNL     1      41.883 -16.845   4.020  1.00  0.00     0.011 A 
HETATM   10  C   UNL     1      43.640 -18.922   3.407  1.00  0.00     0.019 A 
HETATM   11  S   UNL     1      44.797 -18.999   5.892  1.00  0.00    -0.129 SA
HETATM   12  C   UNL     1      42.753 -18.451   2.440  1.00  0.00     0.001 A 
HETATM   13  C   UNL     1      41.869 -17.420   2.748  1.00  0.00     0.001 A 
HETATM   14  C   UNL     1      43.875 -18.768   7.446  1.00  0.00     0.082 C 
HETATM   15  C   UNL     1      42.739 -17.748   7.424  1.00  0.00     0.048 C 
ENDBRANCH   3   6
ENDBRANCH   2   3
BRANCH   2  16
HETATM   16  C   UNL     1      45.402 -13.691   6.994  1.00  0.00     0.135 C 
BRANCH  16  17
HETATM   17  C   UNL     1      45.368 -12.732   8.164  1.00  0.00     0.224 C 
HETATM   18  N   UNL     1      44.108 -12.577   8.695  1.00  0.00    -0.327 N 
HETATM   19  H   UNL     1      43.332 -13.010   8.208  1.00  0.00     0.169 HD
HETATM   20  O   UNL     1      46.403 -12.161   8.502  1.00  0.00    -0.273 OA
BRANCH  18  21
HETATM   21  C   UNL     1      43.748 -11.805   9.819  1.00  0.00     0.034 A 
HETATM   22  C   UNL     1      43.030 -10.626   9.585  1.00  0.00     0.032 A 
HETATM   23  C   UNL     1      42.612  -9.813  10.647  1.00  0.00     0.039 A 
HETATM   24  C   UNL     1      42.897 -10.180  11.960  1.00  0.00     0.068 A 
HETATM   25  C   UNL     1      43.613 -11.354  12.195  1.00  0.00     0.039 A 
HETATM   26  C   UNL     1      44.040 -12.162  11.134  1.00  0.00     0.032 A 
BRANCH  24  27
HETATM   27  O   UNL     1      42.538  -9.493  13.084  1.00  0.00    -0.356 OA
HETATM   28  C   UNL     1      42.406 -10.241  14.286  1.00  0.00     0.210 C 
ENDBRANCH  24  27
ENDBRANCH  18  21
ENDBRANCH  16  17
ENDBRANCH   2  16
TORSDOF 6
ENDMDL
MODEL 5
REMARK VINA RESULT:      -6.8      2.670      6.474
REMARK  6 active torsions:
REMARK  status: ('A' for Active; 'I' for Inactive)
REMARK    1  A    between atoms: C_2  and  N_3 
REMARK    2  A    between atoms: C_2  and  C_16 
REMARK    3  A    between atoms: N_3  and  C_6 
REMARK    4  A    between atoms: C_16  and  C_17 
REMARK       I    between atoms: C_17  and  N_18 
REMARK    5  A    between atoms: N_18  and  C_19 
REMARK    6  A    between atoms: C_22  and  O_23 
ROOT
HETATM    1  C   UNL     1      44.308 -19.848   2.835  1.00  0.00     0.040 C 
HETATM    2  C   UNL     1      43.104 -18.956   2.560  1.00  0.00     0.191 C 
ENDROOT
BRANCH   2   3
HETATM    3  N   UNL     1      42.690 -18.232   3.819  1.00  0.00    -0.063 N 
HETATM    4  H   UNL     1      41.724 -17.878   3.640  1.00  0.00     0.278 HD
HETATM    5  H   UNL     1      42.553 -18.943   4.547  1.00  0.00     0.278 HD
BRANCH   3   6
HETATM    6  C   UNL     1      43.503 -17.095   4.381  1.00  0.00     0.221 C 
HETATM    7  C   UNL     1      42.898 -15.737   4.141  1.00  0.00    -0.011 A 
HETATM    8  C   UNL     1      41.740 -15.356   4.838  1.00  0.00     0.009 A 
HETATM    9  C   UNL     1      43.483 -14.835   3.237  1.00  0.00     0.011 A 
HETATM   10  C   UNL     1      41.143 -14.121   4.574  1.00  0.00     0.019 A 
HETATM   11  S   UNL     1      40.973 -16.443   6.021  1.00  0.00    -0.129 SA
HETATM   12  C   UNL     1      41.717 -13.243   3.654  1.00  0.00     0.001 A 
HETATM   13  C   UNL     1      42.890 -13.595   2.993  1.00  0.00     0.001 A 
HETATM   14  C   UNL     1      42.416 -17.306   6.724  1.00  0.00     0.082 C 
HETATM   15  C   UNL     1      43.694 -17.296   5.889  1.00  0.00     0.048 C 
ENDBRANCH   3   6
ENDBRANCH   2   3
BRANCH   2  16
HETATM   16  C   UNL     1      43.329 -18.026   1.362  1.00  0.00     0.135 C 
BRANCH  16  17
HETATM   17  C   UNL     1      42.039 -17.355   0.945  1.00  0.00     0.224 C 
HETATM   18  N   UNL     1      42.243 -16.238   0.167  1.00  0.00    -0.327 N 
HETATM   19  H   UNL     1      43.195 -15.914   0.043  1.00  0.00     0.169 HD
HETATM   20  O   UNL     1      40.970 -17.806   1.349  1.00  0.00    -0.273 OA
BRANCH  18  21
HETATM   21  C   UNL     1      41.255 -15.425  -0.428  1.00  0.00     0.034 A 
HETATM   22  C   UNL     1      41.056 -15.564  -1.808  1.00  0.00     0.032 A 
HETATM   23  C   UNL     1      40.078 -14.814  -2.474  1.00  0.00     0.039 A 
HETATM   24  C   UNL     1      39.277 -13.924  -1.763  1.00  0.00     0.068 A 
HETATM   25  C   UNL     1      39.475 -13.785  -0.388  1.00  0.00     0.039 A 
HETATM   26  C   UNL     1      40.457 -14.527   0.277  1.00  0.00     0.032 A 
BRANCH  24  27
HETATM   27  O   UNL     1      38.281 -13.145  -2.280  1.00  0.00    -0.356 OA
HETATM   28  C   UNL     1      37.509 -13.698  -3.338  1.00  0.00     0.210 C 
ENDBRANCH  24  27
ENDBRANCH  18  21
ENDBRANCH  16  17
ENDBRANCH   2  16
TORSDOF 6
ENDMDL
MODEL 6
REMARK VINA RESULT:      -6.8      2.395      5.867
REMARK  6 active torsions:
REMARK  status: ('A' for Active; 'I' for Inactive)
REMARK    1  A    between atoms: C_2  and  N_3 
REMARK    2  A    between atoms: C_2  and  C_16 
REMARK    3  A    between atoms: N_3  and  C_6 
REMARK    4  A    between atoms: C_16  and  C_17 
REMARK       I    between atoms: C_17  and  N_18 
REMARK    5  A    between atoms: N_18  and  C_19 
REMARK    6  A    between atoms: C_22  and  O_23 
ROOT
HETATM    1  C   UNL     1      40.796 -14.267   5.431  1.00  0.00     0.040 C 
HETATM    2  C   UNL     1      42.304 -14.071   5.517  1.00  0.00     0.191 C 
ENDROOT
BRANCH   2   3
HETATM    3  N   UNL     1      43.000 -15.405   5.636  1.00  0.00    -0.063 N 
HETATM    4  H   UNL     1      43.729 -15.414   4.888  1.00  0.00     0.278 HD
HETATM    5  H   UNL     1      43.548 -15.387   6.504  1.00  0.00     0.278 HD
BRANCH   3   6
HETATM    6  C   UNL     1      42.240 -16.704   5.556  1.00  0.00     0.221 C 
HETATM    7  C   UNL     1      42.869 -17.723   4.643  1.00  0.00    -0.011 A 
HETATM    8  C   UNL     1      44.064 -18.356   5.022  1.00  0.00     0.009 A 
HETATM    9  C   UNL     1      42.271 -18.062   3.418  1.00  0.00     0.011 A 
HETATM   10  C   UNL     1      44.681 -19.258   4.151  1.00  0.00     0.019 A 
HETATM   11  S   UNL     1      44.851 -17.991   6.577  1.00  0.00    -0.129 SA
HETATM   12  C   UNL     1      44.093 -19.568   2.926  1.00  0.00     0.001 A 
HETATM   13  C   UNL     1      42.885 -18.978   2.563  1.00  0.00     0.001 A 
HETATM   14  C   UNL     1      43.417 -17.670   7.654  1.00  0.00     0.082 C 
HETATM   15  C   UNL     1      42.105 -17.308   6.959  1.00  0.00     0.048 C 
ENDBRANCH   3   6
ENDBRANCH   2   3
BRANCH   2  16
HETATM   16  C   UNL     1      42.844 -13.196   4.380  1.00  0.00     0.135 C 
BRANCH  16  17
HETATM   17  C   UNL     1      42.912 -13.970   3.082  1.00  0.00     0.224 C 
HETATM   18  N   UNL     1      41.883 -13.665   2.221  1.00  0.00    -0.327 N 
HETATM   19  H   UNL     1      41.144 -13.062   2.561  1.00  0.00     0.169 HD
HETATM   20  O   UNL     1      43.804 -14.801   2.925  1.00  0.00    -0.273 OA
BRANCH  18  21
HETATM   21  C   UNL     1      41.691 -14.166   0.916  1.00  0.00     0.034 A 
HETATM   22  C   UNL     1      41.425 -15.535   0.787  1.00  0.00     0.032 A 
HETATM   23  C   UNL     1      41.196 -16.109  -0.471  1.00  0.00     0.039 A 
HETATM   24  C   UNL     1      41.218 -15.315  -1.614  1.00  0.00     0.068 A 
HETATM   25  C   UNL     1      41.484 -13.952  -1.487  1.00  0.00     0.039 A 
HETATM   26  C   UNL     1      41.721 -13.378  -0.232  1.00  0.00     0.032 A 
BRANCH  24  27
HETATM   27  O   UNL     1      40.998 -15.739  -2.894  1.00  0.00    -0.356 OA
HETATM   28  C   UNL     1      39.781 -15.338  -3.510  1.00  0.00     0.210 C 
ENDBRANCH  24  27
ENDBRANCH  18  21
ENDBRANCH  16  17
ENDBRANCH   2  16
TORSDOF 6
ENDMDL
MODEL 7
REMARK VINA RESULT:      -6.6      6.230      8.050
REMARK  6 active torsions:
REMARK  status: ('A' for Active; 'I' for Inactive)
REMARK    1  A    between atoms: C_2  and  N_3 
REMARK    2  A    between atoms: C_2  and  C_16 
REMARK    3  A    between atoms: N_3  and  C_6 
REMARK    4  A    between atoms: C_16  and  C_17 
REMARK       I    between atoms: C_17  and  N_18 
REMARK    5  A    between atoms: N_18  and  C_19 
REMARK    6  A    between atoms: C_22  and  O_23 
ROOT
HETATM    1  C   UNL     1      44.461 -12.591  11.462  1.00  0.00     0.040 C 
HETATM    2  C   UNL     1      44.011 -12.279  10.041  1.00  0.00     0.191 C 
ENDROOT
BRANCH   2   3
HETATM    3  N   UNL     1      42.901 -11.255  10.056  1.00  0.00    -0.063 N 
HETATM    4  H   UNL     1      43.363 -10.331   9.895  1.00  0.00     0.278 HD
HETATM    5  H   UNL     1      42.346 -11.396   9.204  1.00  0.00     0.278 HD
BRANCH   3   6
HETATM    6  C   UNL     1      41.975 -11.109  11.235  1.00  0.00     0.221 C 
HETATM    7  C   UNL     1      42.182  -9.841  12.020  1.00  0.00    -0.011 A 
HETATM    8  C   UNL     1      41.798  -8.608  11.467  1.00  0.00     0.009 A 
HETATM    9  C   UNL     1      42.743  -9.871  13.307  1.00  0.00     0.011 A 
HETATM   10  C   UNL     1      42.042  -7.424  12.168  1.00  0.00     0.019 A 
HETATM   11  S   UNL     1      41.050  -8.511   9.854  1.00  0.00    -0.129 SA
HETATM   12  C   UNL     1      42.625  -7.463  13.434  1.00  0.00     0.001 A 
HETATM   13  C   UNL     1      42.967  -8.684  14.007  1.00  0.00     0.001 A 
HETATM   14  C   UNL     1      40.095 -10.061   9.792  1.00  0.00     0.082 C 
HETATM   15  C   UNL     1      40.520 -11.167  10.756  1.00  0.00     0.048 C 
ENDBRANCH   3   6
ENDBRANCH   2   3
BRANCH   2  16
HETATM   16  C   UNL     1      45.184 -11.900   9.129  1.00  0.00     0.135 C 
BRANCH  16  17
HETATM   17  C   UNL     1      45.303 -12.862   7.968  1.00  0.00     0.224 C 
HETATM   18  N   UNL     1      44.167 -13.615   7.776  1.00  0.00    -0.327 N 
HETATM   19  H   UNL     1      43.429 -13.543   8.467  1.00  0.00     0.169 HD
HETATM   20  O   UNL     1      46.362 -12.926   7.348  1.00  0.00    -0.273 OA
BRANCH  18  21
HETATM   21  C   UNL     1      43.934 -14.556   6.751  1.00  0.00     0.034 A 
HETATM   22  C   UNL     1      44.127 -15.908   7.065  1.00  0.00     0.032 A 
HETATM   23  C   UNL     1      43.893 -16.909   6.113  1.00  0.00     0.039 A 
HETATM   24  C   UNL     1      43.450 -16.569   4.838  1.00  0.00     0.068 A 
HETATM   25  C   UNL     1      43.259 -15.223   4.524  1.00  0.00     0.039 A 
HETATM   26  C   UNL     1      43.501 -14.220   5.471  1.00  0.00     0.032 A 
BRANCH  24  27
HETATM   27  O   UNL     1      43.170 -17.439   3.823  1.00  0.00    -0.356 OA
HETATM   28  C   UNL     1      43.875 -18.674   3.815  1.00  0.00     0.210 C 
ENDBRANCH  24  27
ENDBRANCH  18  21
ENDBRANCH  16  17
ENDBRANCH   2  16
TORSDOF 6
ENDMDL
MODEL 8
REMARK VINA RESULT:      -6.6      3.603      5.984
REMARK  6 active torsions:
REMARK  status: ('A' for Active; 'I' for Inactive)
REMARK    1  A    between atoms: C_2  and  N_3 
REMARK    2  A    between atoms: C_2  and  C_16 
REMARK    3  A    between atoms: N_3  and  C_6 
REMARK    4  A    between atoms: C_16  and  C_17 
REMARK       I    between atoms: C_17  and  N_18 
REMARK    5  A    between atoms: N_18  and  C_19 
REMARK    6  A    between atoms: C_22  and  O_23 
ROOT
HETATM    1  C   UNL     1      37.665 -14.149   0.767  1.00  0.00     0.040 C 
HETATM    2  C   UNL     1      39.180 -14.233   0.639  1.00  0.00     0.191 C 
ENDROOT
BRANCH   2   3
HETATM    3  N   UNL     1      39.715 -13.010  -0.067  1.00  0.00    -0.063 N 
HETATM    4  H   UNL     1      38.896 -12.372  -0.192  1.00  0.00     0.278 HD
HETATM    5  H   UNL     1      40.310 -12.508   0.601  1.00  0.00     0.278 HD
BRANCH   3   6
HETATM    6  C   UNL     1      40.428 -13.109  -1.391  1.00  0.00     0.221 C 
HETATM    7  C   UNL     1      39.835 -14.126  -2.329  1.00  0.00    -0.011 A 
HETATM    8  C   UNL     1      38.590 -13.876  -2.931  1.00  0.00     0.009 A 
HETATM    9  C   UNL     1      40.513 -15.319  -2.624  1.00  0.00     0.011 A 
HETATM   10  C   UNL     1      38.010 -14.843  -3.756  1.00  0.00     0.019 A 
HETATM   11  S   UNL     1      37.699 -12.366  -2.621  1.00  0.00    -0.129 SA
HETATM   12  C   UNL     1      38.679 -16.036  -4.022  1.00  0.00     0.001 A 
HETATM   13  C   UNL     1      39.933 -16.271  -3.465  1.00  0.00     0.001 A 
HETATM   14  C   UNL     1      39.056 -11.167  -2.421  1.00  0.00     0.082 C 
HETATM   15  C   UNL     1      40.430 -11.738  -2.077  1.00  0.00     0.048 C 
ENDBRANCH   3   6
ENDBRANCH   2   3
BRANCH   2  16
HETATM   16  C   UNL     1      39.864 -14.515   1.982  1.00  0.00     0.135 C 
BRANCH  16  17
HETATM   17  C   UNL     1      41.057 -15.428   1.804  1.00  0.00     0.224 C 
HETATM   18  N   UNL     1      41.099 -16.442   2.733  1.00  0.00    -0.327 N 
HETATM   19  H   UNL     1      40.423 -16.422   3.488  1.00  0.00     0.169 HD
HETATM   20  O   UNL     1      41.876 -15.181   0.922  1.00  0.00    -0.273 OA
BRANCH  18  21
HETATM   21  C   UNL     1      42.043 -17.488   2.807  1.00  0.00     0.034 A 
HETATM   22  C   UNL     1      42.831 -17.562   3.963  1.00  0.00     0.032 A 
HETATM   23  C   UNL     1      43.774 -18.584   4.128  1.00  0.00     0.039 A 
HETATM   24  C   UNL     1      43.932 -19.554   3.142  1.00  0.00     0.068 A 
HETATM   25  C   UNL     1      43.149 -19.481   1.990  1.00  0.00     0.039 A 
HETATM   26  C   UNL     1      42.211 -18.456   1.819  1.00  0.00     0.032 A 
BRANCH  24  27
HETATM   27  O   UNL     1      44.798 -20.609   3.180  1.00  0.00    -0.356 OA
HETATM   28  C   UNL     1      44.553 -21.682   2.280  1.00  0.00     0.210 C 
ENDBRANCH  24  27
ENDBRANCH  18  21
ENDBRANCH  16  17
ENDBRANCH   2  16
TORSDOF 6
ENDMDL
MODEL 9
REMARK VINA RESULT:      -6.6      2.267      4.246
REMARK  6 active torsions:
REMARK  status: ('A' for Active; 'I' for Inactive)
REMARK    1  A    between atoms: C_2  and  N_3 
REMARK    2  A    between atoms: C_2  and  C_16 
REMARK    3  A    between atoms: N_3  and  C_6 
REMARK    4  A    between atoms: C_16  and  C_17 
REMARK       I    between atoms: C_17  and  N_18 
REMARK    5  A    between atoms: N_18  and  C_19 
REMARK    6  A    between atoms: C_22  and  O_23 
ROOT
HETATM    1  C   UNL     1      43.996 -13.659   4.045  1.00  0.00     0.040 C 
HETATM    2  C   UNL     1      42.587 -13.327   4.519  1.00  0.00     0.191 C 
ENDROOT
BRANCH   2   3
HETATM    3  N   UNL     1      41.587 -13.601   3.422  1.00  0.00    -0.063 N 
HETATM    4  H   UNL     1      40.963 -14.356   3.787  1.00  0.00     0.278 HD
HETATM    5  H   UNL     1      40.966 -12.785   3.365  1.00  0.00     0.278 HD
BRANCH   3   6
HETATM    6  C   UNL     1      42.022 -13.992   2.034  1.00  0.00     0.221 C 
HETATM    7  C   UNL     1      42.022 -15.478   1.791  1.00  0.00    -0.011 A 
HETATM    8  C   UNL     1      40.802 -16.168   1.687  1.00  0.00     0.009 A 
HETATM    9  C   UNL     1      43.225 -16.189   1.654  1.00  0.00     0.011 A 
HETATM   10  C   UNL     1      40.799 -17.555   1.520  1.00  0.00     0.019 A 
HETATM   11  S   UNL     1      39.244 -15.316   1.819  1.00  0.00    -0.129 SA
HETATM   12  C   UNL     1      42.000 -18.254   1.412  1.00  0.00     0.001 A 
HETATM   13  C   UNL     1      43.212 -17.572   1.469  1.00  0.00     0.001 A 
HETATM   14  C   UNL     1      39.636 -13.704   1.065  1.00  0.00     0.082 C 
HETATM   15  C   UNL     1      41.112 -13.318   1.000  1.00  0.00     0.048 C 
ENDBRANCH   3   6
ENDBRANCH   2   3
BRANCH   2  16
HETATM   16  C   UNL     1      42.243 -14.009   5.848  1.00  0.00     0.135 C 
BRANCH  16  17
HETATM   17  C   UNL     1      42.164 -15.511   5.684  1.00  0.00     0.224 C 
HETATM   18  N   UNL     1      43.308 -16.156   6.095  1.00  0.00    -0.327 N 
HETATM   19  H   UNL     1      44.107 -15.588   6.351  1.00  0.00     0.169 HD
HETATM   20  O   UNL     1      41.158 -16.008   5.182  1.00  0.00    -0.273 OA
BRANCH  18  21
HETATM   21  C   UNL     1      43.533 -17.549   6.127  1.00  0.00     0.034 A 
HETATM   22  C   UNL     1      43.949 -18.159   4.936  1.00  0.00     0.032 A 
HETATM   23  C   UNL     1      44.219 -19.533   4.887  1.00  0.00     0.039 A 
HETATM   24  C   UNL     1      44.089 -20.311   6.035  1.00  0.00     0.068 A 
HETATM   25  C   UNL     1      43.674 -19.705   7.220  1.00  0.00     0.039 A 
HETATM   26  C   UNL     1      43.395 -18.333   7.269  1.00  0.00     0.032 A 
BRANCH  24  27
HETATM   27  O   UNL     1      44.333 -21.652   6.132  1.00  0.00    -0.356 OA
HETATM   28  C   UNL     1      45.059 -22.257   5.069  1.00  0.00     0.210 C 
ENDBRANCH  24  27
ENDBRANCH  18  21
ENDBRANCH  16  17
ENDBRANCH   2  16
TORSDOF 6
ENDMDL
MODEL 10
REMARK VINA RESULT:      -6.5      5.323      7.063
REMARK  6 active torsions:
REMARK  status: ('A' for Active; 'I' for Inactive)
REMARK    1  A    between atoms: C_2  and  N_3 
REMARK    2  A    between atoms: C_2  and  C_16 
REMARK    3  A    between atoms: N_3  and  C_6 
REMARK    4  A    between atoms: C_16  and  C_17 
REMARK       I    between atoms: C_17  and  N_18 
REMARK    5  A    between atoms: N_18  and  C_19 
REMARK    6  A    between atoms: C_22  and  O_23 
ROOT
HETATM    1  C   UNL     1      45.920 -11.985   9.643  1.00  0.00     0.040 C 
HETATM    2  C   UNL     1      44.554 -12.631   9.452  1.00  0.00     0.191 C 
ENDROOT
BRANCH   2   3
HETATM    3  N   UNL     1      43.566 -12.071  10.446  1.00  0.00    -0.063 N 
HETATM    4  H   UNL     1      42.659 -12.551  10.249  1.00  0.00     0.278 HD
HETATM    5  H   UNL     1      43.829 -12.428  11.371  1.00  0.00     0.278 HD
BRANCH   3   6
HETATM    6  C   UNL     1      43.293 -10.592  10.544  1.00  0.00     0.221 C 
HETATM    7  C   UNL     1      41.885 -10.206  10.175  1.00  0.00    -0.011 A 
HETATM    8  C   UNL     1      40.823 -10.537  11.032  1.00  0.00     0.009 A 
HETATM    9  C   UNL     1      41.615  -9.507   8.987  1.00  0.00     0.011 A 
HETATM   10  C   UNL     1      39.510 -10.233  10.665  1.00  0.00     0.019 A 
HETATM   11  S   UNL     1      41.108 -11.395  12.567  1.00  0.00    -0.129 SA
HETATM   12  C   UNL     1      39.250  -9.562   9.471  1.00  0.00     0.001 A 
HETATM   13  C   UNL     1      40.301  -9.190   8.637  1.00  0.00     0.001 A 
HETATM   14  C   UNL     1      42.729 -10.732  13.069  1.00  0.00     0.082 C 
HETATM   15  C   UNL     1      43.585 -10.109  11.969  1.00  0.00     0.048 C 
ENDBRANCH   3   6
ENDBRANCH   2   3
BRANCH   2  16
HETATM   16  C   UNL     1      44.073 -12.556   7.998  1.00  0.00     0.135 C 
BRANCH  16  17
HETATM   17  C   UNL     1      44.602 -13.719   7.188  1.00  0.00     0.224 C 
HETATM   18  N   UNL     1      43.746 -14.797   7.174  1.00  0.00    -0.327 N 
HETATM   19  H   UNL     1      42.928 -14.760   7.772  1.00  0.00     0.169 HD
HETATM   20  O   UNL     1      45.714 -13.635   6.673  1.00  0.00    -0.273 OA
BRANCH  18  21
HETATM   21  C   UNL     1      43.915 -16.007   6.470  1.00  0.00     0.034 A 
HETATM   22  C   UNL     1      43.267 -16.126   5.234  1.00  0.00     0.032 A 
HETATM   23  C   UNL     1      43.403 -17.285   4.458  1.00  0.00     0.039 A 
HETATM   24  C   UNL     1      44.201 -18.335   4.905  1.00  0.00     0.068 A 
HETATM   25  C   UNL     1      44.846 -18.218   6.137  1.00  0.00     0.039 A 
HETATM   26  C   UNL     1      44.705 -17.064   6.918  1.00  0.00     0.032 A 
BRANCH  24  27
HETATM   27  O   UNL     1      44.433 -19.509   4.247  1.00  0.00    -0.356 OA
HETATM   28  C   UNL     1      44.767 -20.641   5.039  1.00  0.00     0.210 C 
ENDBRANCH  24  27
ENDBRANCH  18  21
ENDBRANCH  16  17
ENDBRANCH   2  16
TORSDOF 6
ENDMDL
