MODEL 1
REMARK VINA RESULT:      -8.8      0.000      0.000
REMARK  10 active torsions:
REMARK  status: ('A' for Active; 'I' for Inactive)
REMARK    1  A    between atoms: C_2  and  C_3 
REMARK    2  A    between atoms: C_3  and  C_4 
REMARK    3  A    between atoms: C_4  and  O_5 
REMARK    4  A    between atoms: O_5  and  C_6 
REMARK    5  A    between atoms: C_8  and  C_9 
REMARK       I    between atoms: C_9  and  N_10 
REMARK    6  A    between atoms: N_10  and  C_11 
REMARK    7  A    between atoms: C_11  and  N_12 
REMARK    8  A    between atoms: N_12  and  C_13 
REMARK    9  A    between atoms: C_15  and  O_16 
REMARK   10  A    between atoms: C_17  and  C_18 
ROOT
HETATM    1  N   UNL     1      42.003 -12.411   5.372  1.00  0.00    -0.333 N 
HETATM    2  H   UNL     1      42.196 -11.731   4.640  1.00  0.00     0.168 HD
ENDROOT
BRANCH   1   3
HETATM    3  C   UNL     1      41.072 -11.944   6.262  1.00  0.00     0.179 C 
HETATM    4  S   UNL     1      39.551 -11.604   5.650  1.00  0.00    -0.040 SA
BRANCH   3   5
HETATM    5  N   UNL     1      41.491 -11.719   7.549  1.00  0.00    -0.299 N 
HETATM    6  C   UNL     1      42.251 -10.640   7.983  1.00  0.00     0.257 C 
HETATM    7  O   UNL     1      42.028  -9.475   7.670  1.00  0.00    -0.267 OA
HETATM    8  H   UNL     1      41.539 -12.565   8.098  1.00  0.00     0.171 HD
BRANCH   6   9
HETATM    9  C   UNL     1      43.240 -10.927   9.053  1.00  0.00     0.035 A 
HETATM   10  C   UNL     1      43.149 -10.326  10.313  1.00  0.00     0.053 A 
HETATM   11  C   UNL     1      44.086 -10.629  11.307  1.00  0.00     0.069 A 
HETATM   12  C   UNL     1      45.108 -11.539  11.035  1.00  0.00     0.037 A 
HETATM   13  C   UNL     1      45.187 -12.157   9.784  1.00  0.00     0.004 A 
HETATM   14  C   UNL     1      44.252 -11.857   8.796  1.00  0.00     0.017 A 
BRANCH  11  15
HETATM   15  O   UNL     1      43.864  -9.996  12.497  1.00  0.00    -0.351 OA
BRANCH  15  16
HETATM   16  C   UNL     1      42.863 -10.503  13.376  1.00  0.00     0.175 C 
BRANCH  16  17
HETATM   17  C   UNL     1      41.665  -9.565  13.549  1.00  0.00     0.026 C 
BRANCH  17  18
HETATM   18  C   UNL     1      40.360 -10.076  12.933  1.00  0.00    -0.002 C 
HETATM   19  C   UNL     1      40.385 -11.558  12.586  1.00  0.00     0.005 C 
ENDBRANCH  17  18
ENDBRANCH  16  17
ENDBRANCH  15  16
ENDBRANCH  11  15
ENDBRANCH   6   9
ENDBRANCH   3   5
ENDBRANCH   1   3
BRANCH   1  20
HETATM   20  C   UNL     1      42.522 -13.703   5.133  1.00  0.00     0.036 A 
HETATM   21  C   UNL     1      43.224 -14.471   6.064  1.00  0.00     0.067 A 
HETATM   22  C   UNL     1      43.604 -15.791   5.762  1.00  0.00     0.082 A 
HETATM   23  C   UNL     1      43.274 -16.385   4.533  1.00  0.00     0.050 A 
HETATM   24  C   UNL     1      42.585 -15.592   3.601  1.00  0.00     0.021 A 
HETATM   25  C   UNL     1      42.217 -14.274   3.895  1.00  0.00     0.030 A 
BRANCH  22  26
HETATM   26  O   UNL     1      44.284 -16.503   6.715  1.00  0.00    -0.360 OA
HETATM   27  H   UNL     1      44.828 -17.190   6.299  1.00  0.00     0.217 HD
ENDBRANCH  22  26
BRANCH  23  28
HETATM   28  C   UNL     1      43.527 -17.787   4.180  1.00  0.00     0.183 A 
HETATM   29  O   UNL     1      43.082 -18.237   2.962  1.00  0.00    -0.289 OA
HETATM   30  C   UNL     1      43.545 -19.516   2.887  1.00  0.00     0.106 A 
HETATM   31  C   UNL     1      44.229 -19.788   4.058  1.00  0.00     0.093 A 
HETATM   32  C   UNL     1      43.390 -20.409   1.835  1.00  0.00     0.040 A 
HETATM   33  N   UNL     1      44.196 -18.691   4.880  1.00  0.00    -0.221 NA
HETATM   34  C   UNL     1      44.825 -21.046   4.220  1.00  0.00     0.034 A 
HETATM   35  C   UNL     1      44.701 -21.975   3.175  1.00  0.00     0.002 A 
HETATM   36  C   UNL     1      43.996 -21.661   2.006  1.00  0.00     0.003 A 
ENDBRANCH  23  28
ENDBRANCH   1  20
TORSDOF 10
ENDMDL
MODEL 2
REMARK VINA RESULT:      -8.7      4.626      8.733
REMARK  10 active torsions:
REMARK  status: ('A' for Active; 'I' for Inactive)
REMARK    1  A    between atoms: C_2  and  C_3 
REMARK    2  A    between atoms: C_3  and  C_4 
REMARK    3  A    between atoms: C_4  and  O_5 
REMARK    4  A    between atoms: O_5  and  C_6 
REMARK    5  A    between atoms: C_8  and  C_9 
REMARK       I    between atoms: C_9  and  N_10 
REMARK    6  A    between atoms: N_10  and  C_11 
REMARK    7  A    between atoms: C_11  and  N_12 
REMARK    8  A    between atoms: N_12  and  C_13 
REMARK    9  A    between atoms: C_15  and  O_16 
REMARK   10  A    between atoms: C_17  and  C_18 
ROOT
HETATM    1  N   UNL     1      42.212 -14.231   5.997  1.00  0.00    -0.333 N 
HETATM    2  H   UNL     1      41.613 -13.834   6.718  1.00  0.00     0.168 HD
ENDROOT
BRANCH   1   3
HETATM    3  C   UNL     1      43.147 -15.079   6.527  1.00  0.00     0.179 C 
HETATM    4  S   UNL     1      44.552 -14.380   7.111  1.00  0.00    -0.040 SA
BRANCH   3   5
HETATM    5  N   UNL     1      42.886 -16.424   6.457  1.00  0.00    -0.299 N 
HETATM    6  C   UNL     1      43.385 -17.398   7.314  1.00  0.00     0.257 C 
HETATM    7  O   UNL     1      43.401 -17.290   8.536  1.00  0.00    -0.267 OA
HETATM    8  H   UNL     1      42.617 -16.722   5.530  1.00  0.00     0.171 HD
BRANCH   6   9
HETATM    9  C   UNL     1      43.703 -18.710   6.697  1.00  0.00     0.035 A 
HETATM   10  C   UNL     1      44.098 -18.811   5.359  1.00  0.00     0.053 A 
HETATM   11  C   UNL     1      44.408 -20.059   4.808  1.00  0.00     0.069 A 
HETATM   12  C   UNL     1      44.325 -21.202   5.604  1.00  0.00     0.037 A 
HETATM   13  C   UNL     1      43.952 -21.100   6.946  1.00  0.00     0.004 A 
HETATM   14  C   UNL     1      43.646 -19.856   7.495  1.00  0.00     0.017 A 
BRANCH  11  15
HETATM   15  O   UNL     1      44.808 -20.012   3.503  1.00  0.00    -0.351 OA
BRANCH  15  16
HETATM   16  C   UNL     1      43.842 -19.733   2.492  1.00  0.00     0.175 C 
BRANCH  16  17
HETATM   17  C   UNL     1      44.042 -18.376   1.810  1.00  0.00     0.026 C 
BRANCH  17  18
HETATM   18  C   UNL     1      42.944 -17.350   2.100  1.00  0.00    -0.002 C 
HETATM   19  C   UNL     1      41.609 -17.678   1.445  1.00  0.00     0.005 C 
ENDBRANCH  17  18
ENDBRANCH  16  17
ENDBRANCH  15  16
ENDBRANCH  11  15
ENDBRANCH   6   9
ENDBRANCH   3   5
ENDBRANCH   1   3
BRANCH   1  20
HETATM   20  C   UNL     1      41.764 -14.021   4.673  1.00  0.00     0.036 A 
HETATM   21  C   UNL     1      42.429 -13.257   3.713  1.00  0.00     0.067 A 
HETATM   22  C   UNL     1      41.955 -13.200   2.389  1.00  0.00     0.082 A 
HETATM   23  C   UNL     1      40.820 -13.920   1.986  1.00  0.00     0.050 A 
HETATM   24  C   UNL     1      40.152 -14.668   2.970  1.00  0.00     0.021 A 
HETATM   25  C   UNL     1      40.614 -14.716   4.290  1.00  0.00     0.030 A 
BRANCH  22  26
HETATM   26  O   UNL     1      42.651 -12.440   1.485  1.00  0.00    -0.360 OA
HETATM   27  H   UNL     1      42.175 -12.400   0.641  1.00  0.00     0.217 HD
ENDBRANCH  22  26
BRANCH  23  28
HETATM   28  C   UNL     1      40.325 -14.011   0.608  1.00  0.00     0.183 A 
HETATM   29  O   UNL     1      41.134 -14.597  -0.333  1.00  0.00    -0.289 OA
HETATM   30  C   UNL     1      40.373 -14.621  -1.463  1.00  0.00     0.106 A 
HETATM   31  C   UNL     1      39.154 -14.039  -1.165  1.00  0.00     0.093 A 
HETATM   32  C   UNL     1      40.721 -15.141  -2.703  1.00  0.00     0.040 A 
HETATM   33  N   UNL     1      39.140 -13.638   0.147  1.00  0.00    -0.221 NA
HETATM   34  C   UNL     1      38.176 -13.961  -2.166  1.00  0.00     0.034 A 
HETATM   35  C   UNL     1      38.483 -14.485  -3.431  1.00  0.00     0.002 A 
HETATM   36  C   UNL     1      39.733 -15.062  -3.692  1.00  0.00     0.003 A 
ENDBRANCH  23  28
ENDBRANCH   1  20
TORSDOF 10
ENDMDL
MODEL 3
REMARK VINA RESULT:      -8.7      2.030      3.449
REMARK  10 active torsions:
REMARK  status: ('A' for Active; 'I' for Inactive)
REMARK    1  A    between atoms: C_2  and  C_3 
REMARK    2  A    between atoms: C_3  and  C_4 
REMARK    3  A    between atoms: C_4  and  O_5 
REMARK    4  A    between atoms: O_5  and  C_6 
REMARK    5  A    between atoms: C_8  and  C_9 
REMARK       I    between atoms: C_9  and  N_10 
REMARK    6  A    between atoms: N_10  and  C_11 
REMARK    7  A    between atoms: C_11  and  N_12 
REMARK    8  A    between atoms: N_12  and  C_13 
REMARK    9  A    between atoms: C_15  and  O_16 
REMARK   10  A    between atoms: C_17  and  C_18 
ROOT
HETATM    1  N   UNL     1      39.440 -13.352   6.015  1.00  0.00    -0.333 N 
HETATM    2  H   UNL     1      38.450 -13.453   6.227  1.00  0.00     0.168 HD
ENDROOT
BRANCH   1   3
HETATM    3  C   UNL     1      39.986 -12.274   6.659  1.00  0.00     0.179 C 
HETATM    4  S   UNL     1      41.307 -11.550   5.928  1.00  0.00    -0.040 SA
BRANCH   3   5
HETATM    5  N   UNL     1      39.458 -11.937   7.880  1.00  0.00    -0.299 N 
HETATM    6  C   UNL     1      39.197 -10.648   8.329  1.00  0.00     0.257 C 
HETATM    7  O   UNL     1      38.634  -9.791   7.657  1.00  0.00    -0.267 OA
HETATM    8  H   UNL     1      39.616 -12.646   8.583  1.00  0.00     0.171 HD
BRANCH   6   9
HETATM    9  C   UNL     1      39.429 -10.402   9.775  1.00  0.00     0.035 A 
HETATM   10  C   UNL     1      40.458 -11.046  10.470  1.00  0.00     0.053 A 
HETATM   11  C   UNL     1      40.663 -10.781  11.828  1.00  0.00     0.069 A 
HETATM   12  C   UNL     1      39.838  -9.866  12.483  1.00  0.00     0.037 A 
HETATM   13  C   UNL     1      38.824  -9.206  11.785  1.00  0.00     0.004 A 
HETATM   14  C   UNL     1      38.623  -9.468  10.432  1.00  0.00     0.017 A 
BRANCH  11  15
HETATM   15  O   UNL     1      41.718 -11.454  12.377  1.00  0.00    -0.351 OA
BRANCH  15  16
HETATM   16  C   UNL     1      42.776 -10.712  12.978  1.00  0.00     0.175 C 
BRANCH  16  17
HETATM   17  C   UNL     1      43.831 -10.228  11.979  1.00  0.00     0.026 C 
BRANCH  17  18
HETATM   18  C   UNL     1      44.332 -11.302  11.010  1.00  0.00    -0.002 C 
HETATM   19  C   UNL     1      45.447 -10.825  10.090  1.00  0.00     0.005 C 
ENDBRANCH  17  18
ENDBRANCH  16  17
ENDBRANCH  15  16
ENDBRANCH  11  15
ENDBRANCH   6   9
ENDBRANCH   3   5
ENDBRANCH   1   3
BRANCH   1  20
HETATM   20  C   UNL     1      40.022 -14.459   5.358  1.00  0.00     0.036 A 
HETATM   21  C   UNL     1      40.160 -14.590   3.975  1.00  0.00     0.067 A 
HETATM   22  C   UNL     1      40.853 -15.684   3.425  1.00  0.00     0.082 A 
HETATM   23  C   UNL     1      41.444 -16.662   4.241  1.00  0.00     0.050 A 
HETATM   24  C   UNL     1      41.279 -16.525   5.630  1.00  0.00     0.021 A 
HETATM   25  C   UNL     1      40.579 -15.444   6.179  1.00  0.00     0.030 A 
BRANCH  22  26
HETATM   26  O   UNL     1      40.965 -15.760   2.062  1.00  0.00    -0.360 OA
HETATM   27  H   UNL     1      41.609 -16.442   1.814  1.00  0.00     0.217 HD
ENDBRANCH  22  26
BRANCH  23  28
HETATM   28  C   UNL     1      42.280 -17.768   3.761  1.00  0.00     0.183 A 
HETATM   29  O   UNL     1      43.170 -18.334   4.639  1.00  0.00    -0.289 OA
HETATM   30  C   UNL     1      43.713 -19.372   3.944  1.00  0.00     0.106 A 
HETATM   31  C   UNL     1      43.146 -19.380   2.682  1.00  0.00     0.093 A 
HETATM   32  C   UNL     1      44.656 -20.288   4.394  1.00  0.00     0.040 A 
HETATM   33  N   UNL     1      42.252 -18.346   2.569  1.00  0.00    -0.221 NA
HETATM   34  C   UNL     1      43.527 -20.376   1.773  1.00  0.00     0.034 A 
HETATM   35  C   UNL     1      44.470 -21.327   2.191  1.00  0.00     0.002 A 
HETATM   36  C   UNL     1      45.023 -21.281   3.478  1.00  0.00     0.003 A 
ENDBRANCH  23  28
ENDBRANCH   1  20
TORSDOF 10
ENDMDL
MODEL 4
REMARK VINA RESULT:      -8.6      1.475      2.805
REMARK  10 active torsions:
REMARK  status: ('A' for Active; 'I' for Inactive)
REMARK    1  A    between atoms: C_2  and  C_3 
REMARK    2  A    between atoms: C_3  and  C_4 
REMARK    3  A    between atoms: C_4  and  O_5 
REMARK    4  A    between atoms: O_5  and  C_6 
REMARK    5  A    between atoms: C_8  and  C_9 
REMARK       I    between atoms: C_9  and  N_10 
REMARK    6  A    between atoms: N_10  and  C_11 
REMARK    7  A    between atoms: C_11  and  N_12 
REMARK    8  A    between atoms: N_12  and  C_13 
REMARK    9  A    between atoms: C_15  and  O_16 
REMARK   10  A    between atoms: C_17  and  C_18 
ROOT
HETATM    1  N   UNL     1      41.721 -11.283   4.522  1.00  0.00    -0.333 N 
HETATM    2  H   UNL     1      42.297 -10.626   4.001  1.00  0.00     0.168 HD
ENDROOT
BRANCH   1   3
HETATM    3  C   UNL     1      40.498 -10.749   4.829  1.00  0.00     0.179 C 
HETATM    4  S   UNL     1      39.444 -10.500   3.552  1.00  0.00    -0.040 SA
BRANCH   3   5
HETATM    5  N   UNL     1      40.278 -10.391   6.135  1.00  0.00    -0.299 N 
HETATM    6  C   UNL     1      41.225  -9.869   7.008  1.00  0.00     0.257 C 
HETATM    7  O   UNL     1      42.006  -8.970   6.713  1.00  0.00    -0.267 OA
HETATM    8  H   UNL     1      39.491 -10.872   6.545  1.00  0.00     0.171 HD
BRANCH   6   9
HETATM    9  C   UNL     1      41.108 -10.293   8.426  1.00  0.00     0.035 A 
HETATM   10  C   UNL     1      42.237 -10.463   9.234  1.00  0.00     0.053 A 
HETATM   11  C   UNL     1      42.096 -10.847  10.572  1.00  0.00     0.069 A 
HETATM   12  C   UNL     1      40.819 -11.054  11.096  1.00  0.00     0.037 A 
HETATM   13  C   UNL     1      39.689 -10.863  10.297  1.00  0.00     0.004 A 
HETATM   14  C   UNL     1      39.832 -10.478   8.966  1.00  0.00     0.017 A 
BRANCH  11  15
HETATM   15  O   UNL     1      43.275 -10.948  11.253  1.00  0.00    -0.351 OA
BRANCH  15  16
HETATM   16  C   UNL     1      44.201 -11.969  10.890  1.00  0.00     0.175 C 
BRANCH  16  17
HETATM   17  C   UNL     1      45.541 -11.430  10.383  1.00  0.00     0.026 C 
BRANCH  17  18
HETATM   18  C   UNL     1      45.861 -11.782   8.928  1.00  0.00    -0.002 C 
HETATM   19  C   UNL     1      45.009 -12.912   8.369  1.00  0.00     0.005 C 
ENDBRANCH  17  18
ENDBRANCH  16  17
ENDBRANCH  15  16
ENDBRANCH  11  15
ENDBRANCH   6   9
ENDBRANCH   3   5
ENDBRANCH   1   3
BRANCH   1  20
HETATM   20  C   UNL     1      42.212 -12.608   4.552  1.00  0.00     0.036 A 
HETATM   21  C   UNL     1      42.269 -13.417   5.687  1.00  0.00     0.067 A 
HETATM   22  C   UNL     1      42.674 -14.761   5.590  1.00  0.00     0.082 A 
HETATM   23  C   UNL     1      43.010 -15.337   4.354  1.00  0.00     0.050 A 
HETATM   24  C   UNL     1      42.966 -14.503   3.224  1.00  0.00     0.021 A 
HETATM   25  C   UNL     1      42.575 -13.162   3.321  1.00  0.00     0.030 A 
BRANCH  22  26
HETATM   26  O   UNL     1      42.705 -15.513   6.735  1.00  0.00    -0.360 OA
HETATM   27  H   UNL     1      43.503 -15.312   7.249  1.00  0.00     0.217 HD
ENDBRANCH  22  26
BRANCH  23  28
HETATM   28  C   UNL     1      43.330 -16.753   4.143  1.00  0.00     0.183 A 
HETATM   29  O   UNL     1      43.055 -17.302   2.915  1.00  0.00    -0.289 OA
HETATM   30  C   UNL     1      43.544 -18.570   2.997  1.00  0.00     0.106 A 
HETATM   31  C   UNL     1      44.074 -18.739   4.264  1.00  0.00     0.093 A 
HETATM   32  C   UNL     1      43.543 -19.541   2.003  1.00  0.00     0.040 A 
HETATM   33  N   UNL     1      43.916 -17.586   4.990  1.00  0.00    -0.221 NA
HETATM   34  C   UNL     1      44.664 -19.966   4.595  1.00  0.00     0.034 A 
HETATM   35  C   UNL     1      44.693 -20.971   3.616  1.00  0.00     0.002 A 
HETATM   36  C   UNL     1      44.141 -20.761   2.345  1.00  0.00     0.003 A 
ENDBRANCH  23  28
ENDBRANCH   1  20
TORSDOF 10
ENDMDL
MODEL 5
REMARK VINA RESULT:      -8.4      3.102      8.618
REMARK  10 active torsions:
REMARK  status: ('A' for Active; 'I' for Inactive)
REMARK    1  A    between atoms: C_2  and  C_3 
REMARK    2  A    between atoms: C_3  and  C_4 
REMARK    3  A    between atoms: C_4  and  O_5 
REMARK    4  A    between atoms: O_5  and  C_6 
REMARK    5  A    between atoms: C_8  and  C_9 
REMARK       I    between atoms: C_9  and  N_10 
REMARK    6  A    between atoms: N_10  and  C_11 
REMARK    7  A    between atoms: C_11  and  N_12 
REMARK    8  A    between atoms: N_12  and  C_13 
REMARK    9  A    between atoms: C_15  and  O_16 
REMARK   10  A    between atoms: C_17  and  C_18 
ROOT
HETATM    1  N   UNL     1      40.573 -11.111   4.688  1.00  0.00    -0.333 N 
HETATM    2  H   UNL     1      40.969 -10.346   4.145  1.00  0.00     0.168 HD
ENDROOT
BRANCH   1   3
HETATM    3  C   UNL     1      40.340 -12.214   3.911  1.00  0.00     0.179 C 
HETATM    4  S   UNL     1      39.024 -12.143   2.878  1.00  0.00    -0.040 SA
BRANCH   3   5
HETATM    5  N   UNL     1      41.151 -13.303   4.108  1.00  0.00    -0.299 N 
HETATM    6  C   UNL     1      41.004 -14.261   5.104  1.00  0.00     0.257 C 
HETATM    7  O   UNL     1      39.935 -14.789   5.392  1.00  0.00    -0.267 OA
HETATM    8  H   UNL     1      42.078 -13.174   3.728  1.00  0.00     0.171 HD
BRANCH   6   9
HETATM    9  C   UNL     1      42.261 -14.807   5.675  1.00  0.00     0.035 A 
HETATM   10  C   UNL     1      43.187 -13.982   6.323  1.00  0.00     0.053 A 
HETATM   11  C   UNL     1      44.355 -14.527   6.867  1.00  0.00     0.069 A 
HETATM   12  C   UNL     1      44.588 -15.899   6.763  1.00  0.00     0.037 A 
HETATM   13  C   UNL     1      43.653 -16.727   6.136  1.00  0.00     0.004 A 
HETATM   14  C   UNL     1      42.489 -16.184   5.597  1.00  0.00     0.017 A 
BRANCH  11  15
HETATM   15  O   UNL     1      45.157 -13.618   7.496  1.00  0.00    -0.351 OA
BRANCH  15  16
HETATM   16  C   UNL     1      44.568 -12.676   8.390  1.00  0.00     0.175 C 
BRANCH  16  17
HETATM   17  C   UNL     1      45.583 -11.734   9.044  1.00  0.00     0.026 C 
BRANCH  17  18
HETATM   18  C   UNL     1      45.339 -11.467  10.532  1.00  0.00    -0.002 C 
HETATM   19  C   UNL     1      44.467 -12.516  11.208  1.00  0.00     0.005 C 
ENDBRANCH  17  18
ENDBRANCH  16  17
ENDBRANCH  15  16
ENDBRANCH  11  15
ENDBRANCH   6   9
ENDBRANCH   3   5
ENDBRANCH   1   3
BRANCH   1  20
HETATM   20  C   UNL     1      40.620 -10.930   6.088  1.00  0.00     0.036 A 
HETATM   21  C   UNL     1      39.748 -11.519   7.004  1.00  0.00     0.067 A 
HETATM   22  C   UNL     1      39.947 -11.362   8.388  1.00  0.00     0.082 A 
HETATM   23  C   UNL     1      41.035 -10.631   8.892  1.00  0.00     0.050 A 
HETATM   24  C   UNL     1      41.892 -10.028   7.957  1.00  0.00     0.021 A 
HETATM   25  C   UNL     1      41.688 -10.173   6.580  1.00  0.00     0.030 A 
BRANCH  22  26
HETATM   26  O   UNL     1      39.065 -11.969   9.242  1.00  0.00    -0.360 OA
HETATM   27  H   UNL     1      38.506 -11.306   9.677  1.00  0.00     0.217 HD
ENDBRANCH  22  26
BRANCH  23  28
HETATM   28  C   UNL     1      41.385 -10.512  10.312  1.00  0.00     0.183 A 
HETATM   29  O   UNL     1      42.401  -9.658  10.659  1.00  0.00    -0.289 OA
HETATM   30  C   UNL     1      42.420  -9.692  12.020  1.00  0.00     0.106 A 
HETATM   31  C   UNL     1      41.434 -10.570  12.435  1.00  0.00     0.093 A 
HETATM   32  C   UNL     1      43.252  -8.977  12.871  1.00  0.00     0.040 A 
HETATM   33  N   UNL     1      40.796 -11.100  11.344  1.00  0.00    -0.221 NA
HETATM   34  C   UNL     1      41.235 -10.767  13.808  1.00  0.00     0.034 A 
HETATM   35  C   UNL     1      42.049 -10.055  14.703  1.00  0.00     0.002 A 
HETATM   36  C   UNL     1      43.039  -9.178  14.241  1.00  0.00     0.003 A 
ENDBRANCH  23  28
ENDBRANCH   1  20
TORSDOF 10
ENDMDL
MODEL 6
REMARK VINA RESULT:      -8.4      4.326      7.622
REMARK  10 active torsions:
REMARK  status: ('A' for Active; 'I' for Inactive)
REMARK    1  A    between atoms: C_2  and  C_3 
REMARK    2  A    between atoms: C_3  and  C_4 
REMARK    3  A    between atoms: C_4  and  O_5 
REMARK    4  A    between atoms: O_5  and  C_6 
REMARK    5  A    between atoms: C_8  and  C_9 
REMARK       I    between atoms: C_9  and  N_10 
REMARK    6  A    between atoms: N_10  and  C_11 
REMARK    7  A    between atoms: C_11  and  N_12 
REMARK    8  A    between atoms: N_12  and  C_13 
REMARK    9  A    between atoms: C_15  and  O_16 
REMARK   10  A    between atoms: C_17  and  C_18 
ROOT
HETATM    1  N   UNL     1      41.572 -12.219   5.702  1.00  0.00    -0.333 N 
HETATM    2  H   UNL     1      41.562 -11.690   6.571  1.00  0.00     0.168 HD
ENDROOT
BRANCH   1   3
HETATM    3  C   UNL     1      41.492 -11.396   4.610  1.00  0.00     0.179 C 
HETATM    4  S   UNL     1      41.018  -9.815   4.892  1.00  0.00    -0.040 SA
BRANCH   3   5
HETATM    5  N   UNL     1      41.725 -11.959   3.380  1.00  0.00    -0.299 N 
HETATM    6  C   UNL     1      40.755 -12.371   2.474  1.00  0.00     0.257 C 
HETATM    7  O   UNL     1      39.773 -11.701   2.173  1.00  0.00    -0.267 OA
HETATM    8  H   UNL     1      42.629 -12.405   3.320  1.00  0.00     0.171 HD
BRANCH   6   9
HETATM    9  C   UNL     1      41.071 -13.590   1.689  1.00  0.00     0.035 A 
HETATM   10  C   UNL     1      41.833 -14.631   2.231  1.00  0.00     0.053 A 
HETATM   11  C   UNL     1      42.101 -15.776   1.473  1.00  0.00     0.069 A 
HETATM   12  C   UNL     1      41.599 -15.875   0.175  1.00  0.00     0.037 A 
HETATM   13  C   UNL     1      40.819 -14.847  -0.359  1.00  0.00     0.004 A 
HETATM   14  C   UNL     1      40.550 -13.708   0.397  1.00  0.00     0.017 A 
BRANCH  11  15
HETATM   15  O   UNL     1      42.829 -16.726   2.132  1.00  0.00    -0.351 OA
BRANCH  15  16
HETATM   16  C   UNL     1      42.366 -18.074   2.139  1.00  0.00     0.175 C 
BRANCH  16  17
HETATM   17  C   UNL     1      43.424 -19.089   1.697  1.00  0.00     0.026 C 
BRANCH  17  18
HETATM   18  C   UNL     1      42.996 -20.553   1.824  1.00  0.00    -0.002 C 
HETATM   19  C   UNL     1      44.116 -21.545   1.548  1.00  0.00     0.005 C 
ENDBRANCH  17  18
ENDBRANCH  16  17
ENDBRANCH  15  16
ENDBRANCH  11  15
ENDBRANCH   6   9
ENDBRANCH   3   5
ENDBRANCH   1   3
BRANCH   1  20
HETATM   20  C   UNL     1      41.924 -13.580   5.840  1.00  0.00     0.036 A 
HETATM   21  C   UNL     1      41.033 -14.651   5.763  1.00  0.00     0.067 A 
HETATM   22  C   UNL     1      41.501 -15.977   5.805  1.00  0.00     0.082 A 
HETATM   23  C   UNL     1      42.871 -16.267   5.903  1.00  0.00     0.050 A 
HETATM   24  C   UNL     1      43.753 -15.178   5.999  1.00  0.00     0.021 A 
HETATM   25  C   UNL     1      43.288 -13.857   5.970  1.00  0.00     0.030 A 
BRANCH  22  26
HETATM   26  O   UNL     1      40.584 -16.991   5.718  1.00  0.00    -0.360 OA
HETATM   27  H   UNL     1      40.263 -17.233   6.601  1.00  0.00     0.217 HD
ENDBRANCH  22  26
BRANCH  23  28
HETATM   28  C   UNL     1      43.455 -17.612   5.837  1.00  0.00     0.183 A 
HETATM   29  O   UNL     1      43.028 -18.548   6.745  1.00  0.00    -0.289 OA
HETATM   30  C   UNL     1      43.665 -19.693   6.372  1.00  0.00     0.106 A 
HETATM   31  C   UNL     1      44.455 -19.400   5.275  1.00  0.00     0.093 A 
HETATM   32  C   UNL     1      43.553 -20.949   6.955  1.00  0.00     0.040 A 
HETATM   33  N   UNL     1      44.330 -18.072   4.954  1.00  0.00    -0.221 NA
HETATM   34  C   UNL     1      45.203 -20.427   4.684  1.00  0.00     0.034 A 
HETATM   35  C   UNL     1      45.110 -21.713   5.236  1.00  0.00     0.002 A 
HETATM   36  C   UNL     1      44.301 -21.967   6.351  1.00  0.00     0.003 A 
ENDBRANCH  23  28
ENDBRANCH   1  20
TORSDOF 10
ENDMDL
MODEL 7
REMARK VINA RESULT:      -8.4      1.769      2.843
REMARK  10 active torsions:
REMARK  status: ('A' for Active; 'I' for Inactive)
REMARK    1  A    between atoms: C_2  and  C_3 
REMARK    2  A    between atoms: C_3  and  C_4 
REMARK    3  A    between atoms: C_4  and  O_5 
REMARK    4  A    between atoms: O_5  and  C_6 
REMARK    5  A    between atoms: C_8  and  C_9 
REMARK       I    between atoms: C_9  and  N_10 
REMARK    6  A    between atoms: N_10  and  C_11 
REMARK    7  A    between atoms: C_11  and  N_12 
REMARK    8  A    between atoms: N_12  and  C_13 
REMARK    9  A    between atoms: C_15  and  O_16 
REMARK   10  A    between atoms: C_17  and  C_18 
ROOT
HETATM    1  N   UNL     1      41.954 -13.080   6.539  1.00  0.00    -0.333 N 
HETATM    2  H   UNL     1      42.346 -12.967   7.472  1.00  0.00     0.168 HD
ENDROOT
BRANCH   1   3
HETATM    3  C   UNL     1      41.604 -11.875   5.990  1.00  0.00     0.179 C 
HETATM    4  S   UNL     1      41.543 -11.800   4.318  1.00  0.00    -0.040 SA
BRANCH   3   5
HETATM    5  N   UNL     1      41.418 -10.822   6.850  1.00  0.00    -0.299 N 
HETATM    6  C   UNL     1      42.019 -10.668   8.093  1.00  0.00     0.257 C 
HETATM    7  O   UNL     1      43.213 -10.850   8.303  1.00  0.00    -0.267 OA
HETATM    8  H   UNL     1      40.537 -10.349   6.703  1.00  0.00     0.171 HD
BRANCH   6   9
HETATM    9  C   UNL     1      41.185 -10.037   9.147  1.00  0.00     0.035 A 
HETATM   10  C   UNL     1      40.923 -10.687  10.358  1.00  0.00     0.053 A 
HETATM   11  C   UNL     1      40.147 -10.061  11.340  1.00  0.00     0.069 A 
HETATM   12  C   UNL     1      39.641  -8.783  11.105  1.00  0.00     0.037 A 
HETATM   13  C   UNL     1      39.919  -8.123   9.905  1.00  0.00     0.004 A 
HETATM   14  C   UNL     1      40.694  -8.746   8.929  1.00  0.00     0.017 A 
BRANCH  11  15
HETATM   15  O   UNL     1      39.995 -10.793  12.484  1.00  0.00    -0.351 OA
BRANCH  15  16
HETATM   16  C   UNL     1      41.152 -11.172  13.224  1.00  0.00     0.175 C 
BRANCH  16  17
HETATM   17  C   UNL     1      41.588 -10.129  14.258  1.00  0.00     0.026 C 
BRANCH  17  18
HETATM   18  C   UNL     1      42.941  -9.474  13.973  1.00  0.00    -0.002 C 
HETATM   19  C   UNL     1      43.603  -9.966  12.694  1.00  0.00     0.005 C 
ENDBRANCH  17  18
ENDBRANCH  16  17
ENDBRANCH  15  16
ENDBRANCH  11  15
ENDBRANCH   6   9
ENDBRANCH   3   5
ENDBRANCH   1   3
BRANCH   1  20
HETATM   20  C   UNL     1      42.118 -14.366   5.978  1.00  0.00     0.036 A 
HETATM   21  C   UNL     1      41.158 -15.042   5.224  1.00  0.00     0.067 A 
HETATM   22  C   UNL     1      41.460 -16.274   4.617  1.00  0.00     0.082 A 
HETATM   23  C   UNL     1      42.735 -16.852   4.729  1.00  0.00     0.050 A 
HETATM   24  C   UNL     1      43.684 -16.168   5.507  1.00  0.00     0.021 A 
HETATM   25  C   UNL     1      43.381 -14.948   6.123  1.00  0.00     0.030 A 
BRANCH  22  26
HETATM   26  O   UNL     1      40.483 -16.891   3.882  1.00  0.00    -0.360 OA
HETATM   27  H   UNL     1      39.617 -16.497   4.074  1.00  0.00     0.217 HD
ENDBRANCH  22  26
BRANCH  23  28
HETATM   28  C   UNL     1      43.172 -18.070   4.038  1.00  0.00     0.183 A 
HETATM   29  O   UNL     1      43.968 -18.953   4.723  1.00  0.00    -0.289 OA
HETATM   30  C   UNL     1      44.119 -20.003   3.869  1.00  0.00     0.106 A 
HETATM   31  C   UNL     1      43.428 -19.707   2.708  1.00  0.00     0.093 A 
HETATM   32  C   UNL     1      44.819 -21.182   4.095  1.00  0.00     0.040 A 
HETATM   33  N   UNL     1      42.846 -18.470   2.817  1.00  0.00    -0.221 NA
HETATM   34  C   UNL     1      43.410 -20.648   1.669  1.00  0.00     0.034 A 
HETATM   35  C   UNL     1      44.097 -21.856   1.861  1.00  0.00     0.002 A 
HETATM   36  C   UNL     1      44.789 -22.115   3.052  1.00  0.00     0.003 A 
ENDBRANCH  23  28
ENDBRANCH   1  20
TORSDOF 10
ENDMDL
MODEL 8
REMARK VINA RESULT:      -8.1      6.063     10.112
REMARK  10 active torsions:
REMARK  status: ('A' for Active; 'I' for Inactive)
REMARK    1  A    between atoms: C_2  and  C_3 
REMARK    2  A    between atoms: C_3  and  C_4 
REMARK    3  A    between atoms: C_4  and  O_5 
REMARK    4  A    between atoms: O_5  and  C_6 
REMARK    5  A    between atoms: C_8  and  C_9 
REMARK       I    between atoms: C_9  and  N_10 
REMARK    6  A    between atoms: N_10  and  C_11 
REMARK    7  A    between atoms: C_11  and  N_12 
REMARK    8  A    between atoms: N_12  and  C_13 
REMARK    9  A    between atoms: C_15  and  O_16 
REMARK   10  A    between atoms: C_17  and  C_18 
ROOT
HETATM    1  N   UNL     1      41.707 -16.206   2.792  1.00  0.00    -0.333 N 
HETATM    2  H   UNL     1      41.236 -17.062   3.078  1.00  0.00     0.168 HD
ENDROOT
BRANCH   1   3
HETATM    3  C   UNL     1      42.931 -16.079   3.391  1.00  0.00     0.179 C 
HETATM    4  S   UNL     1      43.323 -14.564   3.989  1.00  0.00    -0.040 SA
BRANCH   3   5
HETATM    5  N   UNL     1      43.757 -17.175   3.374  1.00  0.00    -0.299 N 
HETATM    6  C   UNL     1      43.880 -18.086   2.332  1.00  0.00     0.257 C 
HETATM    7  O   UNL     1      43.995 -17.767   1.154  1.00  0.00    -0.267 OA
HETATM    8  H   UNL     1      43.993 -17.500   4.300  1.00  0.00     0.171 HD
BRANCH   6   9
HETATM    9  C   UNL     1      44.101 -19.501   2.727  1.00  0.00     0.035 A 
HETATM   10  C   UNL     1      44.355 -19.858   4.055  1.00  0.00     0.053 A 
HETATM   11  C   UNL     1      44.542 -21.201   4.400  1.00  0.00     0.069 A 
HETATM   12  C   UNL     1      44.470 -22.182   3.411  1.00  0.00     0.037 A 
HETATM   13  C   UNL     1      44.194 -21.829   2.087  1.00  0.00     0.004 A 
HETATM   14  C   UNL     1      44.005 -20.492   1.745  1.00  0.00     0.017 A 
BRANCH  11  15
HETATM   15  O   UNL     1      44.752 -21.412   5.733  1.00  0.00    -0.351 OA
BRANCH  15  16
HETATM   16  C   UNL     1      43.698 -21.138   6.653  1.00  0.00     0.175 C 
BRANCH  16  17
HETATM   17  C   UNL     1      43.962 -19.920   7.543  1.00  0.00     0.026 C 
BRANCH  17  18
HETATM   18  C   UNL     1      43.276 -18.631   7.082  1.00  0.00    -0.002 C 
HETATM   19  C   UNL     1      44.211 -17.433   7.008  1.00  0.00     0.005 C 
ENDBRANCH  17  18
ENDBRANCH  16  17
ENDBRANCH  15  16
ENDBRANCH  11  15
ENDBRANCH   6   9
ENDBRANCH   3   5
ENDBRANCH   1   3
BRANCH   1  20
HETATM   20  C   UNL     1      41.115 -15.542   1.694  1.00  0.00     0.036 A 
HETATM   21  C   UNL     1      41.605 -15.557   0.388  1.00  0.00     0.067 A 
HETATM   22  C   UNL     1      40.881 -14.954  -0.657  1.00  0.00     0.082 A 
HETATM   23  C   UNL     1      39.639 -14.340  -0.427  1.00  0.00     0.050 A 
HETATM   24  C   UNL     1      39.170 -14.317   0.896  1.00  0.00     0.021 A 
HETATM   25  C   UNL     1      39.895 -14.906   1.939  1.00  0.00     0.030 A 
BRANCH  22  26
HETATM   26  O   UNL     1      41.405 -15.004  -1.921  1.00  0.00    -0.360 OA
HETATM   27  H   UNL     1      40.962 -14.361  -2.497  1.00  0.00     0.217 HD
ENDBRANCH  22  26
BRANCH  23  28
HETATM   28  C   UNL     1      38.765 -13.791  -1.470  1.00  0.00     0.183 A 
HETATM   29  O   UNL     1      38.345 -14.631  -2.471  1.00  0.00    -0.289 OA
HETATM   30  C   UNL     1      37.489 -13.872  -3.209  1.00  0.00     0.106 A 
HETATM   31  C   UNL     1      37.440 -12.612  -2.640  1.00  0.00     0.093 A 
HETATM   32  C   UNL     1      36.766 -14.264  -4.329  1.00  0.00     0.040 A 
HETATM   33  N   UNL     1      38.268 -12.565  -1.547  1.00  0.00    -0.221 NA
HETATM   34  C   UNL     1      36.604 -11.642  -3.208  1.00  0.00     0.034 A 
HETATM   35  C   UNL     1      35.848 -12.000  -4.335  1.00  0.00     0.002 A 
HETATM   36  C   UNL     1      35.930 -13.287  -4.884  1.00  0.00     0.003 A 
ENDBRANCH  23  28
ENDBRANCH   1  20
TORSDOF 10
ENDMDL
MODEL 9
REMARK VINA RESULT:      -8.0      1.890      2.860
REMARK  10 active torsions:
REMARK  status: ('A' for Active; 'I' for Inactive)
REMARK    1  A    between atoms: C_2  and  C_3 
REMARK    2  A    between atoms: C_3  and  C_4 
REMARK    3  A    between atoms: C_4  and  O_5 
REMARK    4  A    between atoms: O_5  and  C_6 
REMARK    5  A    between atoms: C_8  and  C_9 
REMARK       I    between atoms: C_9  and  N_10 
REMARK    6  A    between atoms: N_10  and  C_11 
REMARK    7  A    between atoms: C_11  and  N_12 
REMARK    8  A    between atoms: N_12  and  C_13 
REMARK    9  A    between atoms: C_15  and  O_16 
REMARK   10  A    between atoms: C_17  and  C_18 
ROOT
HETATM    1  N   UNL     1      39.895 -11.821   6.253  1.00  0.00    -0.333 N 
HETATM    2  H   UNL     1      39.437 -12.009   7.142  1.00  0.00     0.168 HD
ENDROOT
BRANCH   1   3
HETATM    3  C   UNL     1      39.874 -10.487   5.945  1.00  0.00     0.179 C 
HETATM    4  S   UNL     1      39.645 -10.090   4.335  1.00  0.00    -0.040 SA
BRANCH   3   5
HETATM    5  N   UNL     1      40.123  -9.603   6.965  1.00  0.00    -0.299 N 
HETATM    6  C   UNL     1      41.077  -9.757   7.963  1.00  0.00     0.257 C 
HETATM    7  O   UNL     1      42.233 -10.110   7.756  1.00  0.00    -0.267 OA
HETATM    8  H   UNL     1      39.329  -9.014   7.174  1.00  0.00     0.171 HD
BRANCH   6   9
HETATM    9  C   UNL     1      40.702  -9.249   9.307  1.00  0.00     0.035 A 
HETATM   10  C   UNL     1      40.562 -10.109  10.401  1.00  0.00     0.053 A 
HETATM   11  C   UNL     1      40.225  -9.599  11.659  1.00  0.00     0.069 A 
HETATM   12  C   UNL     1      40.034  -8.226  11.817  1.00  0.00     0.037 A 
HETATM   13  C   UNL     1      40.196  -7.363  10.730  1.00  0.00     0.004 A 
HETATM   14  C   UNL     1      40.535  -7.871   9.478  1.00  0.00     0.017 A 
BRANCH  11  15
HETATM   15  O   UNL     1      40.150 -10.542  12.644  1.00  0.00    -0.351 OA
BRANCH  15  16
HETATM   16  C   UNL     1      41.347 -11.173  13.093  1.00  0.00     0.175 C 
BRANCH  16  17
HETATM   17  C   UNL     1      42.134 -10.341  14.111  1.00  0.00     0.026 C 
BRANCH  17  18
HETATM   18  C   UNL     1      43.302  -9.548  13.519  1.00  0.00    -0.002 C 
HETATM   19  C   UNL     1      43.825 -10.114  12.207  1.00  0.00     0.005 C 
ENDBRANCH  17  18
ENDBRANCH  16  17
ENDBRANCH  15  16
ENDBRANCH  11  15
ENDBRANCH   6   9
ENDBRANCH   3   5
ENDBRANCH   1   3
BRANCH   1  20
HETATM   20  C   UNL     1      40.637 -12.903   5.729  1.00  0.00     0.036 A 
HETATM   21  C   UNL     1      42.030 -12.988   5.710  1.00  0.00     0.067 A 
HETATM   22  C   UNL     1      42.671 -14.158   5.264  1.00  0.00     0.082 A 
HETATM   23  C   UNL     1      41.939 -15.280   4.846  1.00  0.00     0.050 A 
HETATM   24  C   UNL     1      40.539 -15.172   4.852  1.00  0.00     0.021 A 
HETATM   25  C   UNL     1      39.899 -14.004   5.284  1.00  0.00     0.030 A 
BRANCH  22  26
HETATM   26  O   UNL     1      44.041 -14.189   5.274  1.00  0.00    -0.360 OA
HETATM   27  H   UNL     1      44.368 -14.387   6.166  1.00  0.00     0.217 HD
ENDBRANCH  22  26
BRANCH  23  28
HETATM   28  C   UNL     1      42.520 -16.576   4.477  1.00  0.00     0.183 A 
HETATM   29  O   UNL     1      42.138 -17.140   3.285  1.00  0.00    -0.289 OA
HETATM   30  C   UNL     1      42.906 -18.261   3.183  1.00  0.00     0.106 A 
HETATM   31  C   UNL     1      43.699 -18.335   4.314  1.00  0.00     0.093 A 
HETATM   32  C   UNL     1      42.926 -19.177   2.139  1.00  0.00     0.040 A 
HETATM   33  N   UNL     1      43.433 -17.272   5.138  1.00  0.00    -0.221 NA
HETATM   34  C   UNL     1      44.603 -19.399   4.440  1.00  0.00     0.034 A 
HETATM   35  C   UNL     1      44.662 -20.342   3.402  1.00  0.00     0.002 A 
HETATM   36  C   UNL     1      43.838 -20.231   2.275  1.00  0.00     0.003 A 
ENDBRANCH  23  28
ENDBRANCH   1  20
TORSDOF 10
ENDMDL
MODEL 10
REMARK VINA RESULT:      -8.0      5.925      9.143
REMARK  10 active torsions:
REMARK  status: ('A' for Active; 'I' for Inactive)
REMARK    1  A    between atoms: C_2  and  C_3 
REMARK    2  A    between atoms: C_3  and  C_4 
REMARK    3  A    between atoms: C_4  and  O_5 
REMARK    4  A    between atoms: O_5  and  C_6 
REMARK    5  A    between atoms: C_8  and  C_9 
REMARK       I    between atoms: C_9  and  N_10 
REMARK    6  A    between atoms: N_10  and  C_11 
REMARK    7  A    between atoms: C_11  and  N_12 
REMARK    8  A    between atoms: N_12  and  C_13 
REMARK    9  A    between atoms: C_15  and  O_16 
REMARK   10  A    between atoms: C_17  and  C_18 
ROOT
HETATM    1  N   UNL     1      39.097 -12.652   2.833  1.00  0.00    -0.333 N 
HETATM    2  H   UNL     1      38.137 -12.597   3.167  1.00  0.00     0.168 HD
ENDROOT
BRANCH   1   3
HETATM    3  C   UNL     1      39.626 -11.408   2.612  1.00  0.00     0.179 C 
HETATM    4  S   UNL     1      39.435 -10.281   3.835  1.00  0.00    -0.040 SA
BRANCH   3   5
HETATM    5  N   UNL     1      40.187 -11.174   1.382  1.00  0.00    -0.299 N 
HETATM    6  C   UNL     1      39.759 -11.710   0.173  1.00  0.00     0.257 C 
HETATM    7  O   UNL     1      38.585 -11.749  -0.179  1.00  0.00    -0.267 OA
HETATM    8  H   UNL     1      41.155 -10.891   1.442  1.00  0.00     0.171 HD
BRANCH   6   9
HETATM    9  C   UNL     1      40.823 -12.041  -0.807  1.00  0.00     0.035 A 
HETATM   10  C   UNL     1      40.805 -13.239  -1.529  1.00  0.00     0.053 A 
HETATM   11  C   UNL     1      41.813 -13.517  -2.458  1.00  0.00     0.069 A 
HETATM   12  C   UNL     1      42.834 -12.588  -2.665  1.00  0.00     0.037 A 
HETATM   13  C   UNL     1      42.841 -11.381  -1.961  1.00  0.00     0.004 A 
HETATM   14  C   UNL     1      41.835 -11.104  -1.037  1.00  0.00     0.017 A 
BRANCH  11  15
HETATM   15  O   UNL     1      41.659 -14.705  -3.114  1.00  0.00    -0.351 OA
BRANCH  15  16
HETATM   16  C   UNL     1      40.757 -15.675  -2.586  1.00  0.00     0.175 C 
BRANCH  16  17
HETATM   17  C   UNL     1      39.677 -16.113  -3.580  1.00  0.00     0.026 C 
BRANCH  17  18
HETATM   18  C   UNL     1      38.691 -15.012  -3.978  1.00  0.00    -0.002 C 
HETATM   19  C   UNL     1      37.265 -15.269  -3.515  1.00  0.00     0.005 C 
ENDBRANCH  17  18
ENDBRANCH  16  17
ENDBRANCH  15  16
ENDBRANCH  11  15
ENDBRANCH   6   9
ENDBRANCH   3   5
ENDBRANCH   1   3
BRANCH   1  20
HETATM   20  C   UNL     1      39.691 -13.929   2.942  1.00  0.00     0.036 A 
HETATM   21  C   UNL     1      39.566 -14.955   2.005  1.00  0.00     0.067 A 
HETATM   22  C   UNL     1      40.287 -16.154   2.154  1.00  0.00     0.082 A 
HETATM   23  C   UNL     1      41.167 -16.350   3.230  1.00  0.00     0.050 A 
HETATM   24  C   UNL     1      41.266 -15.315   4.175  1.00  0.00     0.021 A 
HETATM   25  C   UNL     1      40.540 -14.126   4.035  1.00  0.00     0.030 A 
BRANCH  22  26
HETATM   26  O   UNL     1      40.133 -17.125   1.200  1.00  0.00    -0.360 OA
HETATM   27  H   UNL     1      39.203 -17.188   0.929  1.00  0.00     0.217 HD
ENDBRANCH  22  26
BRANCH  23  28
HETATM   28  C   UNL     1      42.043 -17.515   3.402  1.00  0.00     0.183 A 
HETATM   29  O   UNL     1      42.260 -18.326   2.316  1.00  0.00    -0.289 OA
HETATM   30  C   UNL     1      43.171 -19.239   2.756  1.00  0.00     0.106 A 
HETATM   31  C   UNL     1      43.450 -18.954   4.081  1.00  0.00     0.093 A 
HETATM   32  C   UNL     1      43.748 -20.272   2.029  1.00  0.00     0.040 A 
HETATM   33  N   UNL     1      42.715 -17.870   4.487  1.00  0.00    -0.221 NA
HETATM   34  C   UNL     1      44.384 -19.745   4.763  1.00  0.00     0.034 A 
HETATM   35  C   UNL     1      44.999 -20.794   4.062  1.00  0.00     0.002 A 
HETATM   36  C   UNL     1      44.684 -21.051   2.721  1.00  0.00     0.003 A 
ENDBRANCH  23  28
ENDBRANCH   1  20
TORSDOF 10
ENDMDL
