MODEL 1
REMARK VINA RESULT:      -8.0      0.000      0.000
REMARK  4 active torsions:
REMARK  status: ('A' for Active; 'I' for Inactive)
REMARK    1  A    between atoms: S_2  and  N_3 
REMARK    2  A    between atoms: N_3  and  N_4 
REMARK    3  A    between atoms: C_10  and  C_11 
REMARK    4  A    between atoms: C_14  and  O_15 
ROOT
HETATM    1  N   UNL     1      42.632 -16.657   3.840  1.00  0.00    -0.224 N 
HETATM    2  C   UNL     1      43.434 -17.540   4.561  1.00  0.00     0.276 C 
HETATM    3  O   UNL     1      43.958 -17.308   5.644  1.00  0.00    -0.266 OA
HETATM    4  C   UNL     1      43.699 -18.845   3.906  1.00  0.00     0.055 A 
HETATM    5  C   UNL     1      43.228 -19.053   2.602  1.00  0.00     0.026 A 
HETATM    6  N   UNL     1      42.514 -18.053   1.921  1.00  0.00    -0.265 NA
HETATM    7  C   UNL     1      41.741 -17.193   2.812  1.00  0.00     0.222 C 
HETATM    8  C   UNL     1      44.459 -19.821   4.562  1.00  0.00     0.019 A 
HETATM    9  C   UNL     1      44.787 -21.003   3.899  1.00  0.00     0.001 A 
HETATM   10  C   UNL     1      44.375 -21.194   2.582  1.00  0.00     0.002 A 
HETATM   11  C   UNL     1      43.613 -20.219   1.932  1.00  0.00     0.024 A 
HETATM   12  H   UNL     1      41.946 -18.429   1.167  1.00  0.00     0.130 HD
ENDROOT
BRANCH   7  13
HETATM   13  C   UNL     1      41.036 -16.138   1.970  1.00  0.00    -0.019 A 
HETATM   14  C   UNL     1      41.681 -15.581   0.850  1.00  0.00     0.013 A 
HETATM   15  C   UNL     1      41.031 -14.645   0.043  1.00  0.00     0.037 A 
HETATM   16  C   UNL     1      39.731 -14.262   0.352  1.00  0.00     0.065 A 
HETATM   17  C   UNL     1      39.072 -14.798   1.451  1.00  0.00     0.037 A 
HETATM   18  C   UNL     1      39.720 -15.734   2.257  1.00  0.00     0.013 A 
BRANCH  16  19
HETATM   19  O   UNL     1      39.057 -13.356  -0.411  1.00  0.00    -0.361 OA
HETATM   20  H   UNL     1      39.643 -13.038  -1.117  1.00  0.00     0.217 HD
ENDBRANCH  16  19
ENDBRANCH   7  13
BRANCH   1  21
HETATM   21  N   UNL     1      42.266 -15.328   4.395  1.00  0.00    -0.220 N 
HETATM   22  H   UNL     1      41.282 -15.047   4.332  1.00  0.00     0.200 HD
BRANCH  21  23
HETATM   23  S   UNL     1      43.239 -13.954   4.325  1.00  0.00     0.240 S 
HETATM   24  C   UNL     1      42.088 -12.589   4.382  1.00  0.00     0.187 C 
HETATM   25  O   UNL     1      43.994 -13.939   3.095  1.00  0.00    -0.205 OA
HETATM   26  O   UNL     1      43.934 -13.960   5.600  1.00  0.00    -0.205 OA
ENDBRANCH  21  23
ENDBRANCH   1  21
TORSDOF 4
ENDMDL
MODEL 2
REMARK VINA RESULT:      -8.0      1.515      1.730
REMARK  4 active torsions:
REMARK  status: ('A' for Active; 'I' for Inactive)
REMARK    1  A    between atoms: S_2  and  N_3 
REMARK    2  A    between atoms: N_3  and  N_4 
REMARK    3  A    between atoms: C_10  and  C_11 
REMARK    4  A    between atoms: C_14  and  O_15 
ROOT
HETATM    1  N   UNL     1      43.383 -17.464   3.719  1.00  0.00    -0.224 N 
HETATM    2  C   UNL     1      44.147 -18.439   4.356  1.00  0.00     0.276 C 
HETATM    3  O   UNL     1      44.834 -18.267   5.356  1.00  0.00    -0.266 OA
HETATM    4  C   UNL     1      44.150 -19.775   3.710  1.00  0.00     0.055 A 
HETATM    5  C   UNL     1      43.490 -19.932   2.484  1.00  0.00     0.026 A 
HETATM    6  N   UNL     1      42.831 -18.853   1.871  1.00  0.00    -0.265 NA
HETATM    7  C   UNL     1      42.302 -17.886   2.829  1.00  0.00     0.222 C 
HETATM    8  C   UNL     1      44.853 -20.837   4.292  1.00  0.00     0.019 A 
HETATM    9  C   UNL     1      44.933 -22.060   3.627  1.00  0.00     0.001 A 
HETATM   10  C   UNL     1      44.331 -22.209   2.379  1.00  0.00     0.002 A 
HETATM   11  C   UNL     1      43.626 -21.147   1.804  1.00  0.00     0.024 A 
HETATM   12  H   UNL     1      42.125 -19.157   1.207  1.00  0.00     0.130 HD
ENDROOT
BRANCH   7  13
HETATM   13  C   UNL     1      41.638 -16.756   2.053  1.00  0.00    -0.019 A 
HETATM   14  C   UNL     1      42.253 -16.236   0.899  1.00  0.00     0.013 A 
HETATM   15  C   UNL     1      41.635 -15.229   0.153  1.00  0.00     0.037 A 
HETATM   16  C   UNL     1      40.400 -14.738   0.558  1.00  0.00     0.065 A 
HETATM   17  C   UNL     1      39.773 -15.235   1.694  1.00  0.00     0.037 A 
HETATM   18  C   UNL     1      40.387 -16.242   2.439  1.00  0.00     0.013 A 
BRANCH  16  19
HETATM   19  O   UNL     1      39.759 -13.760  -0.141  1.00  0.00    -0.361 OA
HETATM   20  H   UNL     1      38.874 -13.629   0.237  1.00  0.00     0.217 HD
ENDBRANCH  16  19
ENDBRANCH   7  13
BRANCH   1  21
HETATM   21  N   UNL     1      43.270 -16.091   4.278  1.00  0.00    -0.220 N 
HETATM   22  H   UNL     1      44.077 -15.469   4.162  1.00  0.00     0.200 HD
BRANCH  21  23
HETATM   23  S   UNL     1      42.467 -15.696   5.705  1.00  0.00     0.240 S 
HETATM   24  C   UNL     1      43.775 -15.324   6.864  1.00  0.00     0.187 C 
HETATM   25  O   UNL     1      41.679 -16.817   6.162  1.00  0.00    -0.205 OA
HETATM   26  O   UNL     1      41.819 -14.435   5.397  1.00  0.00    -0.205 OA
ENDBRANCH  21  23
ENDBRANCH   1  21
TORSDOF 4
ENDMDL
MODEL 3
REMARK VINA RESULT:      -7.9      1.254      1.755
REMARK  4 active torsions:
REMARK  status: ('A' for Active; 'I' for Inactive)
REMARK    1  A    between atoms: S_2  and  N_3 
REMARK    2  A    between atoms: N_3  and  N_4 
REMARK    3  A    between atoms: C_10  and  C_11 
REMARK    4  A    between atoms: C_14  and  O_15 
ROOT
HETATM    1  N   UNL     1      43.117 -17.249   3.581  1.00  0.00    -0.224 N 
HETATM    2  C   UNL     1      43.892 -18.179   4.272  1.00  0.00     0.276 C 
HETATM    3  O   UNL     1      44.534 -17.956   5.292  1.00  0.00    -0.266 OA
HETATM    4  C   UNL     1      43.969 -19.529   3.662  1.00  0.00     0.055 A 
HETATM    5  C   UNL     1      43.361 -19.743   2.417  1.00  0.00     0.026 A 
HETATM    6  N   UNL     1      42.687 -18.705   1.752  1.00  0.00    -0.265 NA
HETATM    7  C   UNL     1      42.087 -17.735   2.663  1.00  0.00     0.222 C 
HETATM    8  C   UNL     1      44.688 -20.549   4.298  1.00  0.00     0.019 A 
HETATM    9  C   UNL     1      44.837 -21.785   3.669  1.00  0.00     0.001 A 
HETATM   10  C   UNL     1      44.289 -21.988   2.404  1.00  0.00     0.002 A 
HETATM   11  C   UNL     1      43.568 -20.968   1.776  1.00  0.00     0.024 A 
HETATM   12  H   UNL     1      42.018 -19.052   1.070  1.00  0.00     0.130 HD
ENDROOT
BRANCH   7  13
HETATM   13  C   UNL     1      41.412 -16.651   1.834  1.00  0.00    -0.019 A 
HETATM   14  C   UNL     1      40.166 -16.131   2.231  1.00  0.00     0.013 A 
HETATM   15  C   UNL     1      39.555 -15.106   1.505  1.00  0.00     0.037 A 
HETATM   16  C   UNL     1      40.187 -14.596   0.377  1.00  0.00     0.065 A 
HETATM   17  C   UNL     1      41.418 -15.093  -0.035  1.00  0.00     0.037 A 
HETATM   18  C   UNL     1      42.030 -16.115   0.690  1.00  0.00     0.013 A 
BRANCH  16  19
HETATM   19  O   UNL     1      39.631 -13.594  -0.358  1.00  0.00    -0.361 OA
HETATM   20  H   UNL     1      38.693 -13.796  -0.510  1.00  0.00     0.217 HD
ENDBRANCH  16  19
ENDBRANCH   7  13
BRANCH   1  21
HETATM   21  N   UNL     1      42.933 -15.868   4.098  1.00  0.00    -0.220 N 
HETATM   22  H   UNL     1      43.699 -15.203   3.945  1.00  0.00     0.200 HD
BRANCH  21  23
HETATM   23  S   UNL     1      42.137 -15.475   5.530  1.00  0.00     0.240 S 
HETATM   24  C   UNL     1      41.235 -13.982   5.143  1.00  0.00     0.187 C 
HETATM   25  O   UNL     1      43.094 -15.239   6.585  1.00  0.00    -0.205 OA
HETATM   26  O   UNL     1      41.148 -16.528   5.673  1.00  0.00    -0.205 OA
ENDBRANCH  21  23
ENDBRANCH   1  21
TORSDOF 4
ENDMDL
MODEL 4
REMARK VINA RESULT:      -7.8      2.196      6.043
REMARK  4 active torsions:
REMARK  status: ('A' for Active; 'I' for Inactive)
REMARK    1  A    between atoms: S_2  and  N_3 
REMARK    2  A    between atoms: N_3  and  N_4 
REMARK    3  A    between atoms: C_10  and  C_11 
REMARK    4  A    between atoms: C_14  and  O_15 
ROOT
HETATM    1  N   UNL     1      42.009 -17.609   3.764  1.00  0.00    -0.224 N 
HETATM    2  C   UNL     1      41.330 -16.395   3.690  1.00  0.00     0.276 C 
HETATM    3  O   UNL     1      40.775 -15.828   4.624  1.00  0.00    -0.266 OA
HETATM    4  C   UNL     1      41.243 -15.790   2.338  1.00  0.00     0.055 A 
HETATM    5  C   UNL     1      41.743 -16.511   1.244  1.00  0.00     0.026 A 
HETATM    6  N   UNL     1      42.320 -17.780   1.414  1.00  0.00    -0.265 NA
HETATM    7  C   UNL     1      42.968 -17.945   2.712  1.00  0.00     0.222 C 
HETATM    8  C   UNL     1      40.618 -14.550   2.159  1.00  0.00     0.019 A 
HETATM    9  C   UNL     1      40.453 -14.038   0.873  1.00  0.00     0.001 A 
HETATM   10  C   UNL     1      40.892 -14.774  -0.226  1.00  0.00     0.002 A 
HETATM   11  C   UNL     1      41.520 -16.009  -0.043  1.00  0.00     0.024 A 
HETATM   12  H   UNL     1      42.937 -18.031   0.646  1.00  0.00     0.130 HD
ENDROOT
BRANCH   7  13
HETATM   13  C   UNL     1      43.530 -19.358   2.792  1.00  0.00    -0.019 A 
HETATM   14  C   UNL     1      44.441 -19.699   3.809  1.00  0.00     0.013 A 
HETATM   15  C   UNL     1      44.932 -21.002   3.921  1.00  0.00     0.037 A 
HETATM   16  C   UNL     1      44.513 -21.971   3.016  1.00  0.00     0.065 A 
HETATM   17  C   UNL     1      43.615 -21.659   2.004  1.00  0.00     0.037 A 
HETATM   18  C   UNL     1      43.122 -20.358   1.892  1.00  0.00     0.013 A 
BRANCH  16  19
HETATM   19  O   UNL     1      44.962 -23.255   3.091  1.00  0.00    -0.361 OA
HETATM   20  H   UNL     1      44.230 -23.830   3.367  1.00  0.00     0.217 HD
ENDBRANCH  16  19
ENDBRANCH   7  13
BRANCH   1  21
HETATM   21  N   UNL     1      42.193 -18.306   5.064  1.00  0.00    -0.220 N 
HETATM   22  H   UNL     1      41.446 -18.939   5.368  1.00  0.00     0.200 HD
BRANCH  21  23
HETATM   23  S   UNL     1      42.935 -17.635   6.419  1.00  0.00     0.240 S 
HETATM   24  C   UNL     1      43.749 -19.014   7.211  1.00  0.00     0.187 C 
HETATM   25  O   UNL     1      41.945 -17.051   7.293  1.00  0.00    -0.205 OA
HETATM   26  O   UNL     1      43.985 -16.803   5.859  1.00  0.00    -0.205 OA
ENDBRANCH  21  23
ENDBRANCH   1  21
TORSDOF 4
ENDMDL
MODEL 5
REMARK VINA RESULT:      -7.4      2.505      4.027
REMARK  4 active torsions:
REMARK  status: ('A' for Active; 'I' for Inactive)
REMARK    1  A    between atoms: S_2  and  N_3 
REMARK    2  A    between atoms: N_3  and  N_4 
REMARK    3  A    between atoms: C_10  and  C_11 
REMARK    4  A    between atoms: C_14  and  O_15 
ROOT
HETATM    1  N   UNL     1      43.114 -17.298   3.262  1.00  0.00    -0.224 N 
HETATM    2  C   UNL     1      43.720 -18.495   2.883  1.00  0.00     0.276 C 
HETATM    3  O   UNL     1      43.961 -18.840   1.733  1.00  0.00    -0.266 OA
HETATM    4  C   UNL     1      44.036 -19.431   3.990  1.00  0.00     0.055 A 
HETATM    5  C   UNL     1      43.622 -19.105   5.289  1.00  0.00     0.026 A 
HETATM    6  N   UNL     1      42.923 -17.914   5.549  1.00  0.00    -0.265 NA
HETATM    7  C   UNL     1      43.279 -16.830   4.638  1.00  0.00     0.222 C 
HETATM    8  C   UNL     1      44.683 -20.645   3.723  1.00  0.00     0.019 A 
HETATM    9  C   UNL     1      44.885 -21.561   4.755  1.00  0.00     0.001 A 
HETATM   10  C   UNL     1      44.423 -21.272   6.037  1.00  0.00     0.002 A 
HETATM   11  C   UNL     1      43.783 -20.058   6.299  1.00  0.00     0.024 A 
HETATM   12  H   UNL     1      42.991 -17.630   6.523  1.00  0.00     0.130 HD
ENDROOT
BRANCH   7  13
HETATM   13  C   UNL     1      42.445 -15.607   4.997  1.00  0.00    -0.019 A 
HETATM   14  C   UNL     1      41.080 -15.750   5.307  1.00  0.00     0.013 A 
HETATM   15  C   UNL     1      40.313 -14.644   5.680  1.00  0.00     0.037 A 
HETATM   16  C   UNL     1      40.908 -13.389   5.745  1.00  0.00     0.065 A 
HETATM   17  C   UNL     1      42.254 -13.223   5.444  1.00  0.00     0.037 A 
HETATM   18  C   UNL     1      43.022 -14.327   5.073  1.00  0.00     0.013 A 
BRANCH  16  19
HETATM   19  O   UNL     1      40.199 -12.284   6.109  1.00  0.00    -0.361 OA
HETATM   20  H   UNL     1      39.401 -12.225   5.559  1.00  0.00     0.217 HD
ENDBRANCH  16  19
ENDBRANCH   7  13
BRANCH   1  21
HETATM   21  N   UNL     1      42.772 -16.260   2.254  1.00  0.00    -0.220 N 
HETATM   22  H   UNL     1      43.147 -15.318   2.405  1.00  0.00     0.200 HD
BRANCH  21  23
HETATM   23  S   UNL     1      41.295 -16.148   1.452  1.00  0.00     0.240 S 
HETATM   24  C   UNL     1      40.776 -14.457   1.708  1.00  0.00     0.187 C 
HETATM   25  O   UNL     1      40.343 -17.070   2.026  1.00  0.00    -0.205 OA
HETATM   26  O   UNL     1      41.656 -16.261   0.051  1.00  0.00    -0.205 OA
ENDBRANCH  21  23
ENDBRANCH   1  21
TORSDOF 4
ENDMDL
MODEL 6
REMARK VINA RESULT:      -7.2      1.801      2.271
REMARK  4 active torsions:
REMARK  status: ('A' for Active; 'I' for Inactive)
REMARK    1  A    between atoms: S_2  and  N_3 
REMARK    2  A    between atoms: N_3  and  N_4 
REMARK    3  A    between atoms: C_10  and  C_11 
REMARK    4  A    between atoms: C_14  and  O_15 
ROOT
HETATM    1  N   UNL     1      41.900 -15.444   3.192  1.00  0.00    -0.224 N 
HETATM    2  C   UNL     1      42.828 -16.124   3.979  1.00  0.00     0.276 C 
HETATM    3  O   UNL     1      43.433 -15.654   4.935  1.00  0.00    -0.266 OA
HETATM    4  C   UNL     1      43.125 -17.516   3.560  1.00  0.00     0.055 A 
HETATM    5  C   UNL     1      42.550 -18.002   2.378  1.00  0.00     0.026 A 
HETATM    6  N   UNL     1      41.703 -17.196   1.599  1.00  0.00    -0.265 NA
HETATM    7  C   UNL     1      40.957 -16.219   2.387  1.00  0.00     0.222 C 
HETATM    8  C   UNL     1      44.013 -18.301   4.306  1.00  0.00     0.019 A 
HETATM    9  C   UNL     1      44.362 -19.571   3.850  1.00  0.00     0.001 A 
HETATM   10  C   UNL     1      43.843 -20.041   2.645  1.00  0.00     0.002 A 
HETATM   11  C   UNL     1      42.954 -19.255   1.906  1.00  0.00     0.024 A 
HETATM   12  H   UNL     1      41.096 -17.743   0.995  1.00  0.00     0.130 HD
ENDROOT
BRANCH   7  13
HETATM   13  C   UNL     1      40.100 -15.391   1.439  1.00  0.00    -0.019 A 
HETATM   14  C   UNL     1      38.778 -15.059   1.790  1.00  0.00     0.013 A 
HETATM   15  C   UNL     1      37.994 -14.264   0.950  1.00  0.00     0.037 A 
HETATM   16  C   UNL     1      38.529 -13.797  -0.245  1.00  0.00     0.065 A 
HETATM   17  C   UNL     1      39.831 -14.112  -0.614  1.00  0.00     0.037 A 
HETATM   18  C   UNL     1      40.616 -14.904   0.225  1.00  0.00     0.013 A 
BRANCH  16  19
HETATM   19  O   UNL     1      37.803 -13.015  -1.092  1.00  0.00    -0.361 OA
HETATM   20  H   UNL     1      38.359 -12.281  -1.399  1.00  0.00     0.217 HD
ENDBRANCH  16  19
ENDBRANCH   7  13
BRANCH   1  21
HETATM   21  N   UNL     1      41.491 -14.053   3.519  1.00  0.00    -0.220 N 
HETATM   22  H   UNL     1      42.182 -13.311   3.365  1.00  0.00     0.200 HD
BRANCH  21  23
HETATM   23  S   UNL     1      40.493 -13.621   4.806  1.00  0.00     0.240 S 
HETATM   24  C   UNL     1      41.552 -12.680   5.896  1.00  0.00     0.187 C 
HETATM   25  O   UNL     1      39.993 -14.802   5.470  1.00  0.00    -0.205 OA
HETATM   26  O   UNL     1      39.563 -12.675   4.218  1.00  0.00    -0.205 OA
ENDBRANCH  21  23
ENDBRANCH   1  21
TORSDOF 4
ENDMDL
MODEL 7
REMARK VINA RESULT:      -7.2      2.309      6.018
REMARK  4 active torsions:
REMARK  status: ('A' for Active; 'I' for Inactive)
REMARK    1  A    between atoms: S_2  and  N_3 
REMARK    2  A    between atoms: N_3  and  N_4 
REMARK    3  A    between atoms: C_10  and  C_11 
REMARK    4  A    between atoms: C_14  and  O_15 
ROOT
HETATM    1  N   UNL     1      43.482 -16.922   3.789  1.00  0.00    -0.224 N 
HETATM    2  C   UNL     1      43.118 -15.582   3.669  1.00  0.00     0.276 C 
HETATM    3  O   UNL     1      43.128 -14.755   4.573  1.00  0.00    -0.266 OA
HETATM    4  C   UNL     1      42.629 -15.168   2.331  1.00  0.00     0.055 A 
HETATM    5  C   UNL     1      42.472 -16.145   1.338  1.00  0.00     0.026 A 
HETATM    6  N   UNL     1      42.772 -17.494   1.595  1.00  0.00    -0.265 NA
HETATM    7  C   UNL     1      43.834 -17.667   2.581  1.00  0.00     0.222 C 
HETATM    8  C   UNL     1      42.277 -13.834   2.091  1.00  0.00     0.019 A 
HETATM    9  C   UNL     1      41.725 -13.475   0.862  1.00  0.00     0.001 A 
HETATM   10  C   UNL     1      41.508 -14.450  -0.110  1.00  0.00     0.002 A 
HETATM   11  C   UNL     1      41.866 -15.779   0.132  1.00  0.00     0.024 A 
HETATM   12  H   UNL     1      42.953 -18.019   0.744  1.00  0.00     0.130 HD
ENDROOT
BRANCH   7  13
HETATM   13  C   UNL     1      44.052 -19.159   2.796  1.00  0.00    -0.019 A 
HETATM   14  C   UNL     1      43.435 -20.092   1.942  1.00  0.00     0.013 A 
HETATM   15  C   UNL     1      43.659 -21.462   2.099  1.00  0.00     0.037 A 
HETATM   16  C   UNL     1      44.503 -21.904   3.111  1.00  0.00     0.065 A 
HETATM   17  C   UNL     1      45.124 -21.003   3.967  1.00  0.00     0.037 A 
HETATM   18  C   UNL     1      44.902 -19.634   3.810  1.00  0.00     0.013 A 
BRANCH  16  19
HETATM   19  O   UNL     1      44.755 -23.230   3.298  1.00  0.00    -0.361 OA
HETATM   20  H   UNL     1      45.690 -23.344   3.535  1.00  0.00     0.217 HD
ENDBRANCH  16  19
ENDBRANCH   7  13
BRANCH   1  21
HETATM   21  N   UNL     1      44.015 -17.459   5.068  1.00  0.00    -0.220 N 
HETATM   22  H   UNL     1      44.831 -18.078   5.014  1.00  0.00     0.200 HD
BRANCH  21  23
HETATM   23  S   UNL     1      43.073 -17.900   6.394  1.00  0.00     0.240 S 
HETATM   24  C   UNL     1      43.402 -16.636   7.614  1.00  0.00     0.187 C 
HETATM   25  O   UNL     1      43.472 -19.200   6.880  1.00  0.00    -0.205 OA
HETATM   26  O   UNL     1      41.713 -17.686   5.935  1.00  0.00    -0.205 OA
ENDBRANCH  21  23
ENDBRANCH   1  21
TORSDOF 4
ENDMDL
MODEL 8
REMARK VINA RESULT:      -7.2      2.078      2.611
REMARK  4 active torsions:
REMARK  status: ('A' for Active; 'I' for Inactive)
REMARK    1  A    between atoms: S_2  and  N_3 
REMARK    2  A    between atoms: N_3  and  N_4 
REMARK    3  A    between atoms: C_10  and  C_11 
REMARK    4  A    between atoms: C_14  and  O_15 
ROOT
HETATM    1  N   UNL     1      43.128 -16.654   5.200  1.00  0.00    -0.224 N 
HETATM    2  C   UNL     1      44.011 -17.732   5.222  1.00  0.00     0.276 C 
HETATM    3  O   UNL     1      44.932 -17.884   6.015  1.00  0.00    -0.266 OA
HETATM    4  C   UNL     1      43.825 -18.736   4.145  1.00  0.00     0.055 A 
HETATM    5  C   UNL     1      42.872 -18.486   3.148  1.00  0.00     0.026 A 
HETATM    6  N   UNL     1      42.099 -17.313   3.161  1.00  0.00    -0.265 NA
HETATM    7  C   UNL     1      41.849 -16.807   4.508  1.00  0.00     0.222 C 
HETATM    8  C   UNL     1      44.633 -19.879   4.100  1.00  0.00     0.019 A 
HETATM    9  C   UNL     1      44.518 -20.765   3.030  1.00  0.00     0.001 A 
HETATM   10  C   UNL     1      43.616 -20.495   2.003  1.00  0.00     0.002 A 
HETATM   11  C   UNL     1      42.808 -19.355   2.054  1.00  0.00     0.024 A 
HETATM   12  H   UNL     1      41.242 -17.408   2.624  1.00  0.00     0.130 HD
ENDROOT
BRANCH   7  13
HETATM   13  C   UNL     1      41.030 -15.527   4.395  1.00  0.00    -0.019 A 
HETATM   14  C   UNL     1      40.288 -15.065   5.498  1.00  0.00     0.013 A 
HETATM   15  C   UNL     1      39.568 -13.870   5.423  1.00  0.00     0.037 A 
HETATM   16  C   UNL     1      39.587 -13.132   4.245  1.00  0.00     0.065 A 
HETATM   17  C   UNL     1      40.312 -13.568   3.143  1.00  0.00     0.037 A 
HETATM   18  C   UNL     1      41.034 -14.760   3.216  1.00  0.00     0.013 A 
BRANCH  16  19
HETATM   19  O   UNL     1      38.903 -11.960   4.130  1.00  0.00    -0.361 OA
HETATM   20  H   UNL     1      39.202 -11.349   4.824  1.00  0.00     0.217 HD
ENDBRANCH  16  19
ENDBRANCH   7  13
BRANCH   1  21
HETATM   21  N   UNL     1      43.187 -15.594   6.239  1.00  0.00    -0.220 N 
HETATM   22  H   UNL     1      42.351 -15.454   6.816  1.00  0.00     0.200 HD
BRANCH  21  23
HETATM   23  S   UNL     1      43.995 -14.125   6.070  1.00  0.00     0.240 S 
HETATM   24  C   UNL     1      44.274 -13.969   4.312  1.00  0.00     0.187 C 
HETATM   25  O   UNL     1      45.247 -14.158   6.788  1.00  0.00    -0.205 OA
HETATM   26  O   UNL     1      42.989 -13.138   6.417  1.00  0.00    -0.205 OA
ENDBRANCH  21  23
ENDBRANCH   1  21
TORSDOF 4
ENDMDL
MODEL 9
REMARK VINA RESULT:      -7.2      2.067      5.929
REMARK  4 active torsions:
REMARK  status: ('A' for Active; 'I' for Inactive)
REMARK    1  A    between atoms: S_2  and  N_3 
REMARK    2  A    between atoms: N_3  and  N_4 
REMARK    3  A    between atoms: C_10  and  C_11 
REMARK    4  A    between atoms: C_14  and  O_15 
ROOT
HETATM    1  N   UNL     1      41.002 -16.458   2.751  1.00  0.00    -0.224 N 
HETATM    2  C   UNL     1      40.202 -15.421   2.277  1.00  0.00     0.276 C 
HETATM    3  O   UNL     1      39.355 -14.818   2.926  1.00  0.00    -0.266 OA
HETATM    4  C   UNL     1      40.377 -15.080   0.843  1.00  0.00     0.055 A 
HETATM    5  C   UNL     1      41.233 -15.868   0.062  1.00  0.00     0.026 A 
HETATM    6  N   UNL     1      41.920 -16.961   0.617  1.00  0.00    -0.265 NA
HETATM    7  C   UNL     1      42.234 -16.782   2.032  1.00  0.00     0.222 C 
HETATM    8  C   UNL     1      39.650 -14.025   0.276  1.00  0.00     0.019 A 
HETATM    9  C   UNL     1      39.747 -13.777  -1.092  1.00  0.00     0.001 A 
HETATM   10  C   UNL     1      40.548 -14.592  -1.889  1.00  0.00     0.002 A 
HETATM   11  C   UNL     1      41.276 -15.641  -1.317  1.00  0.00     0.024 A 
HETATM   12  H   UNL     1      42.739 -17.219   0.075  1.00  0.00     0.130 HD
ENDROOT
BRANCH   7  13
HETATM   13  C   UNL     1      42.949 -18.032   2.527  1.00  0.00    -0.019 A 
HETATM   14  C   UNL     1      42.816 -19.245   1.826  1.00  0.00     0.013 A 
HETATM   15  C   UNL     1      43.500 -20.390   2.243  1.00  0.00     0.037 A 
HETATM   16  C   UNL     1      44.321 -20.325   3.364  1.00  0.00     0.065 A 
HETATM   17  C   UNL     1      44.468 -19.139   4.072  1.00  0.00     0.037 A 
HETATM   18  C   UNL     1      43.787 -17.995   3.655  1.00  0.00     0.013 A 
BRANCH  16  19
HETATM   19  O   UNL     1      45.011 -21.415   3.803  1.00  0.00    -0.361 OA
HETATM   20  H   UNL     1      45.944 -21.322   3.549  1.00  0.00     0.217 HD
ENDBRANCH  16  19
ENDBRANCH   7  13
BRANCH   1  21
HETATM   21  N   UNL     1      40.946 -16.880   4.175  1.00  0.00    -0.220 N 
HETATM   22  H   UNL     1      40.201 -17.531   4.443  1.00  0.00     0.200 HD
BRANCH  21  23
HETATM   23  S   UNL     1      41.314 -15.889   5.487  1.00  0.00     0.240 S 
HETATM   24  C   UNL     1      41.967 -17.005   6.720  1.00  0.00     0.187 C 
HETATM   25  O   UNL     1      40.121 -15.232   5.968  1.00  0.00    -0.205 OA
HETATM   26  O   UNL     1      42.435 -15.096   5.015  1.00  0.00    -0.205 OA
ENDBRANCH  21  23
ENDBRANCH   1  21
TORSDOF 4
ENDMDL
MODEL 10
REMARK VINA RESULT:      -6.8      2.217      6.121
REMARK  4 active torsions:
REMARK  status: ('A' for Active; 'I' for Inactive)
REMARK    1  A    between atoms: S_2  and  N_3 
REMARK    2  A    between atoms: N_3  and  N_4 
REMARK    3  A    between atoms: C_10  and  C_11 
REMARK    4  A    between atoms: C_14  and  O_15 
ROOT
HETATM    1  N   UNL     1      41.077 -15.052   1.295  1.00  0.00    -0.224 N 
HETATM    2  C   UNL     1      40.355 -14.022   0.695  1.00  0.00     0.276 C 
HETATM    3  O   UNL     1      39.801 -13.102   1.284  1.00  0.00    -0.266 OA
HETATM    4  C   UNL     1      40.220 -14.108  -0.780  1.00  0.00     0.055 A 
HETATM    5  C   UNL     1      40.722 -15.239  -1.438  1.00  0.00     0.026 A 
HETATM    6  N   UNL     1      41.346 -16.276  -0.724  1.00  0.00    -0.265 NA
HETATM    7  C   UNL     1      42.025 -15.813   0.482  1.00  0.00     0.222 C 
HETATM    8  C   UNL     1      39.549 -13.102  -1.486  1.00  0.00     0.019 A 
HETATM    9  C   UNL     1      39.341 -13.241  -2.857  1.00  0.00     0.001 A 
HETATM   10  C   UNL     1      39.783 -14.390  -3.511  1.00  0.00     0.002 A 
HETATM   11  C   UNL     1      40.456 -15.390  -2.803  1.00  0.00     0.024 A 
HETATM   12  H   UNL     1      41.955 -16.839  -1.312  1.00  0.00     0.130 HD
ENDROOT
BRANCH   7  13
HETATM   13  C   UNL     1      42.637 -17.019   1.182  1.00  0.00    -0.019 A 
HETATM   14  C   UNL     1      41.844 -18.145   1.471  1.00  0.00     0.013 A 
HETATM   15  C   UNL     1      42.400 -19.276   2.073  1.00  0.00     0.037 A 
HETATM   16  C   UNL     1      43.754 -19.286   2.389  1.00  0.00     0.065 A 
HETATM   17  C   UNL     1      44.558 -18.187   2.114  1.00  0.00     0.037 A 
HETATM   18  C   UNL     1      44.004 -17.057   1.511  1.00  0.00     0.013 A 
BRANCH  16  19
HETATM   19  O   UNL     1      44.340 -20.368   2.973  1.00  0.00    -0.361 OA
HETATM   20  H   UNL     1      44.379 -20.228   3.933  1.00  0.00     0.217 HD
ENDBRANCH  16  19
ENDBRANCH   7  13
BRANCH   1  21
HETATM   21  N   UNL     1      41.311 -15.070   2.762  1.00  0.00    -0.220 N 
HETATM   22  H   UNL     1      40.491 -15.182   3.368  1.00  0.00     0.200 HD
BRANCH  21  23
HETATM   23  S   UNL     1      42.468 -14.145   3.564  1.00  0.00     0.240 S 
HETATM   24  C   UNL     1      41.522 -13.094   4.656  1.00  0.00     0.187 C 
HETATM   25  O   UNL     1      43.221 -13.356   2.616  1.00  0.00    -0.205 OA
HETATM   26  O   UNL     1      43.153 -15.106   4.408  1.00  0.00    -0.205 OA
ENDBRANCH  21  23
ENDBRANCH   1  21
TORSDOF 4
ENDMDL
