MODEL 1
REMARK VINA RESULT:      -7.8      0.000      0.000
REMARK  8 active torsions:
REMARK  status: ('A' for Active; 'I' for Inactive)
REMARK    1  A    between atoms: O_2  and  C_3 
REMARK    2  A    between atoms: C_6  and  C_7 
REMARK    3  A    between atoms: C_7  and  O_8 
REMARK    4  A    between atoms: C_7  and  C_9 
REMARK    5  A    between atoms: C_9  and  N_10 
REMARK    6  A    between atoms: C_11  and  N_12 
REMARK    7  A    between atoms: N_13  and  C_14 
REMARK    8  A    between atoms: C_14  and  C_15 
ROOT
HETATM    1  N   UNL     1      41.556 -17.045   4.885  1.00  0.00    -0.178 N 
HETATM    2  C   UNL     1      42.608 -17.791   5.198  1.00  0.00     0.681 C 
HETATM    3  N   UNL     1      43.245 -18.145   4.090  1.00  0.00    -0.177 N 
HETATM    4  C   UNL     1      42.446 -17.822   2.996  1.00  0.00     0.079 A 
HETATM    5  C   UNL     1      41.355 -17.111   3.509  1.00  0.00     0.079 A 
HETATM    6  C   UNL     1      42.592 -18.079   1.636  1.00  0.00     0.032 A 
HETATM    7  C   UNL     1      41.578 -17.586   0.804  1.00  0.00     0.002 A 
HETATM    8  C   UNL     1      40.482 -16.867   1.319  1.00  0.00     0.002 A 
HETATM    9  C   UNL     1      40.348 -16.608   2.690  1.00  0.00     0.032 A 
ENDROOT
BRANCH   1  10
HETATM   10  C   UNL     1      40.784 -16.231   5.838  1.00  0.00     0.184 C 
BRANCH  10  11
HETATM   11  C   UNL     1      41.429 -14.858   6.129  1.00  0.00     0.170 C 
BRANCH  11  12
HETATM   12  C   UNL     1      41.739 -14.130   4.840  1.00  0.00    -0.028 A 
HETATM   13  C   UNL     1      43.024 -14.149   4.273  1.00  0.00     0.012 A 
HETATM   14  C   UNL     1      43.280 -13.516   3.052  1.00  0.00     0.037 A 
HETATM   15  C   UNL     1      42.254 -12.867   2.369  1.00  0.00     0.068 A 
HETATM   16  C   UNL     1      40.975 -12.845   2.926  1.00  0.00     0.037 A 
HETATM   17  C   UNL     1      40.715 -13.468   4.150  1.00  0.00     0.012 A 
BRANCH  15  18
HETATM   18  O   UNL     1      42.363 -12.229   1.166  1.00  0.00    -0.356 OA
HETATM   19  C   UNL     1      41.518 -12.678   0.113  1.00  0.00     0.210 C 
ENDBRANCH  15  18
ENDBRANCH  11  12
BRANCH  11  20
HETATM   20  O   UNL     1      42.635 -15.038   6.899  1.00  0.00    -0.389 OA
HETATM   21  H   UNL     1      43.235 -15.556   6.322  1.00  0.00     0.210 HD
ENDBRANCH  11  20
ENDBRANCH  10  11
ENDBRANCH   1  10
BRANCH   2  22
HETATM   22  N   UNL     1      42.959 -18.137   6.433  1.00  0.00    -0.234 N 
HETATM   23  H   UNL     1      43.555 -18.959   6.546  1.00  0.00     0.174 HD
HETATM   24  H   UNL     1      42.911 -17.483   7.198  1.00  0.00     0.174 HD
ENDBRANCH   2  22
BRANCH   3  25
HETATM   25  C   UNL     1      44.587 -18.703   4.026  1.00  0.00     0.186 C 
BRANCH  25  26
HETATM   26  C   UNL     1      44.590 -20.207   3.910  1.00  0.00    -0.039 A 
HETATM   27  C   UNL     1      44.440 -20.899   2.698  1.00  0.00     0.009 A 
HETATM   28  C   UNL     1      44.465 -22.296   2.667  1.00  0.00     0.001 A 
HETATM   29  C   UNL     1      44.649 -23.021   3.842  1.00  0.00     0.000 A 
HETATM   30  C   UNL     1      44.810 -22.352   5.051  1.00  0.00     0.001 A 
HETATM   31  C   UNL     1      44.779 -20.956   5.085  1.00  0.00     0.009 A 
ENDBRANCH  25  26
ENDBRANCH   3  25
TORSDOF 8
ENDMDL
MODEL 2
REMARK VINA RESULT:      -7.7      2.468      5.770
REMARK  8 active torsions:
REMARK  status: ('A' for Active; 'I' for Inactive)
REMARK    1  A    between atoms: O_2  and  C_3 
REMARK    2  A    between atoms: C_6  and  C_7 
REMARK    3  A    between atoms: C_7  and  O_8 
REMARK    4  A    between atoms: C_7  and  C_9 
REMARK    5  A    between atoms: C_9  and  N_10 
REMARK    6  A    between atoms: C_11  and  N_12 
REMARK    7  A    between atoms: N_13  and  C_14 
REMARK    8  A    between atoms: C_14  and  C_15 
ROOT
HETATM    1  N   UNL     1      41.744 -13.673   2.924  1.00  0.00    -0.178 N 
HETATM    2  C   UNL     1      42.824 -13.863   3.672  1.00  0.00     0.681 C 
HETATM    3  N   UNL     1      42.551 -13.555   4.931  1.00  0.00    -0.177 N 
HETATM    4  C   UNL     1      41.318 -12.907   4.973  1.00  0.00     0.079 A 
HETATM    5  C   UNL     1      40.797 -12.984   3.677  1.00  0.00     0.079 A 
HETATM    6  C   UNL     1      40.633 -12.289   6.015  1.00  0.00     0.032 A 
HETATM    7  C   UNL     1      39.385 -11.740   5.690  1.00  0.00     0.002 A 
HETATM    8  C   UNL     1      38.857 -11.820   4.386  1.00  0.00     0.002 A 
HETATM    9  C   UNL     1      39.553 -12.452   3.346  1.00  0.00     0.032 A 
ENDROOT
BRANCH   1  10
HETATM   10  C   UNL     1      41.566 -14.176   1.552  1.00  0.00     0.184 C 
BRANCH  10  11
HETATM   11  C   UNL     1      40.838 -15.537   1.492  1.00  0.00     0.170 C 
BRANCH  11  12
HETATM   12  C   UNL     1      41.794 -16.668   1.801  1.00  0.00    -0.028 A 
HETATM   13  C   UNL     1      42.812 -17.037   0.908  1.00  0.00     0.012 A 
HETATM   14  C   UNL     1      43.722 -18.049   1.234  1.00  0.00     0.037 A 
HETATM   15  C   UNL     1      43.639 -18.698   2.463  1.00  0.00     0.068 A 
HETATM   16  C   UNL     1      42.629 -18.336   3.356  1.00  0.00     0.037 A 
HETATM   17  C   UNL     1      41.713 -17.332   3.032  1.00  0.00     0.012 A 
BRANCH  15  18
HETATM   18  O   UNL     1      44.470 -19.685   2.912  1.00  0.00    -0.356 OA
HETATM   19  C   UNL     1      44.281 -20.989   2.373  1.00  0.00     0.210 C 
ENDBRANCH  15  18
ENDBRANCH  11  12
BRANCH  11  20
HETATM   20  O   UNL     1      40.255 -15.722   0.186  1.00  0.00    -0.389 OA
HETATM   21  H   UNL     1      40.944 -15.429  -0.447  1.00  0.00     0.210 HD
ENDBRANCH  11  20
ENDBRANCH  10  11
ENDBRANCH   1  10
BRANCH   2  22
HETATM   22  N   UNL     1      44.000 -14.288   3.219  1.00  0.00    -0.234 N 
HETATM   23  H   UNL     1      44.796 -13.651   3.292  1.00  0.00     0.174 HD
HETATM   24  H   UNL     1      44.193 -15.269   3.089  1.00  0.00     0.174 HD
ENDBRANCH   2  22
BRANCH   3  25
HETATM   25  C   UNL     1      43.365 -13.904   6.085  1.00  0.00     0.186 C 
BRANCH  25  26
HETATM   26  C   UNL     1      43.290 -15.370   6.432  1.00  0.00    -0.039 A 
HETATM   27  C   UNL     1      42.087 -16.071   6.608  1.00  0.00     0.009 A 
HETATM   28  C   UNL     1      42.095 -17.434   6.918  1.00  0.00     0.001 A 
HETATM   29  C   UNL     1      43.302 -18.117   7.047  1.00  0.00     0.000 A 
HETATM   30  C   UNL     1      44.504 -17.441   6.866  1.00  0.00     0.001 A 
HETATM   31  C   UNL     1      44.498 -16.078   6.562  1.00  0.00     0.009 A 
ENDBRANCH  25  26
ENDBRANCH   3  25
TORSDOF 8
ENDMDL
MODEL 3
REMARK VINA RESULT:      -7.7      3.401      5.305
REMARK  8 active torsions:
REMARK  status: ('A' for Active; 'I' for Inactive)
REMARK    1  A    between atoms: O_2  and  C_3 
REMARK    2  A    between atoms: C_6  and  C_7 
REMARK    3  A    between atoms: C_7  and  O_8 
REMARK    4  A    between atoms: C_7  and  C_9 
REMARK    5  A    between atoms: C_9  and  N_10 
REMARK    6  A    between atoms: C_11  and  N_12 
REMARK    7  A    between atoms: N_13  and  C_14 
REMARK    8  A    between atoms: C_14  and  C_15 
ROOT
HETATM    1  N   UNL     1      40.888 -15.214   1.906  1.00  0.00    -0.178 N 
HETATM    2  C   UNL     1      40.944 -16.517   2.148  1.00  0.00     0.681 C 
HETATM    3  N   UNL     1      41.484 -16.724   3.340  1.00  0.00    -0.177 N 
HETATM    4  C   UNL     1      42.024 -15.524   3.797  1.00  0.00     0.079 A 
HETATM    5  C   UNL     1      41.639 -14.548   2.871  1.00  0.00     0.079 A 
HETATM    6  C   UNL     1      42.788 -15.222   4.921  1.00  0.00     0.032 A 
HETATM    7  C   UNL     1      43.155 -13.878   5.072  1.00  0.00     0.002 A 
HETATM    8  C   UNL     1      42.765 -12.895   4.142  1.00  0.00     0.002 A 
HETATM    9  C   UNL     1      41.990 -13.209   3.017  1.00  0.00     0.032 A 
ENDROOT
BRANCH   1  10
HETATM   10  C   UNL     1      40.099 -14.586   0.833  1.00  0.00     0.184 C 
BRANCH  10  11
HETATM   11  C   UNL     1      40.888 -14.419  -0.484  1.00  0.00     0.170 C 
BRANCH  11  12
HETATM   12  C   UNL     1      39.980 -14.611  -1.679  1.00  0.00    -0.028 A 
HETATM   13  C   UNL     1      40.329 -15.463  -2.740  1.00  0.00     0.012 A 
HETATM   14  C   UNL     1      39.453 -15.672  -3.811  1.00  0.00     0.037 A 
HETATM   15  C   UNL     1      38.209 -15.046  -3.832  1.00  0.00     0.068 A 
HETATM   16  C   UNL     1      37.856 -14.199  -2.781  1.00  0.00     0.037 A 
HETATM   17  C   UNL     1      38.730 -13.980  -1.713  1.00  0.00     0.012 A 
BRANCH  15  18
HETATM   18  O   UNL     1      37.257 -15.177  -4.803  1.00  0.00    -0.356 OA
HETATM   19  C   UNL     1      36.100 -14.357  -4.693  1.00  0.00     0.210 C 
ENDBRANCH  15  18
ENDBRANCH  11  12
BRANCH  11  20
HETATM   20  O   UNL     1      41.973 -15.369  -0.527  1.00  0.00    -0.389 OA
HETATM   21  H   UNL     1      42.669 -14.991   0.051  1.00  0.00     0.210 HD
ENDBRANCH  11  20
ENDBRANCH  10  11
ENDBRANCH   1  10
BRANCH   2  22
HETATM   22  N   UNL     1      40.531 -17.467   1.314  1.00  0.00    -0.234 N 
HETATM   23  H   UNL     1      40.854 -17.423   0.345  1.00  0.00     0.174 HD
HETATM   24  H   UNL     1      40.173 -18.347   1.651  1.00  0.00     0.174 HD
ENDBRANCH   2  22
BRANCH   3  25
HETATM   25  C   UNL     1      41.447 -17.975   4.082  1.00  0.00     0.186 C 
BRANCH  25  26
HETATM   26  C   UNL     1      42.733 -18.756   3.976  1.00  0.00    -0.039 A 
HETATM   27  C   UNL     1      43.236 -19.276   2.773  1.00  0.00     0.009 A 
HETATM   28  C   UNL     1      44.442 -19.980   2.750  1.00  0.00     0.001 A 
HETATM   29  C   UNL     1      45.168 -20.167   3.923  1.00  0.00     0.000 A 
HETATM   30  C   UNL     1      44.691 -19.650   5.123  1.00  0.00     0.001 A 
HETATM   31  C   UNL     1      43.483 -18.951   5.150  1.00  0.00     0.009 A 
ENDBRANCH  25  26
ENDBRANCH   3  25
TORSDOF 8
ENDMDL
MODEL 4
REMARK VINA RESULT:      -7.7      3.336      7.577
REMARK  8 active torsions:
REMARK  status: ('A' for Active; 'I' for Inactive)
REMARK    1  A    between atoms: O_2  and  C_3 
REMARK    2  A    between atoms: C_6  and  C_7 
REMARK    3  A    between atoms: C_7  and  O_8 
REMARK    4  A    between atoms: C_7  and  C_9 
REMARK    5  A    between atoms: C_9  and  N_10 
REMARK    6  A    between atoms: C_11  and  N_12 
REMARK    7  A    between atoms: N_13  and  C_14 
REMARK    8  A    between atoms: C_14  and  C_15 
ROOT
HETATM    1  N   UNL     1      40.783 -15.612   2.080  1.00  0.00    -0.178 N 
HETATM    2  C   UNL     1      40.871 -15.717   0.760  1.00  0.00     0.681 C 
HETATM    3  N   UNL     1      40.679 -14.527   0.207  1.00  0.00    -0.177 N 
HETATM    4  C   UNL     1      40.206 -13.654   1.185  1.00  0.00     0.079 A 
HETATM    5  C   UNL     1      40.274 -14.355   2.395  1.00  0.00     0.079 A 
HETATM    6  C   UNL     1      39.749 -12.342   1.111  1.00  0.00     0.032 A 
HETATM    7  C   UNL     1      39.354 -11.759   2.322  1.00  0.00     0.002 A 
HETATM    8  C   UNL     1      39.425 -12.462   3.541  1.00  0.00     0.002 A 
HETATM    9  C   UNL     1      39.893 -13.781   3.605  1.00  0.00     0.032 A 
ENDROOT
BRANCH   1  10
HETATM   10  C   UNL     1      41.221 -16.638   3.041  1.00  0.00     0.184 C 
BRANCH  10  11
HETATM   11  C   UNL     1      42.743 -16.617   3.302  1.00  0.00     0.170 C 
BRANCH  11  12
HETATM   12  C   UNL     1      43.321 -18.011   3.209  1.00  0.00    -0.028 A 
HETATM   13  C   UNL     1      44.067 -18.571   4.258  1.00  0.00     0.012 A 
HETATM   14  C   UNL     1      44.548 -19.883   4.177  1.00  0.00     0.037 A 
HETATM   15  C   UNL     1      44.277 -20.662   3.055  1.00  0.00     0.068 A 
HETATM   16  C   UNL     1      43.535 -20.112   2.009  1.00  0.00     0.037 A 
HETATM   17  C   UNL     1      43.060 -18.800   2.080  1.00  0.00     0.012 A 
BRANCH  15  18
HETATM   18  O   UNL     1      44.668 -21.956   2.858  1.00  0.00    -0.356 OA
HETATM   19  C   UNL     1      44.690 -22.809   3.996  1.00  0.00     0.210 C 
ENDBRANCH  15  18
ENDBRANCH  11  12
BRANCH  11  20
HETATM   20  O   UNL     1      43.007 -16.056   4.605  1.00  0.00    -0.389 OA
HETATM   21  H   UNL     1      43.135 -16.827   5.196  1.00  0.00     0.210 HD
ENDBRANCH  11  20
ENDBRANCH  10  11
ENDBRANCH   1  10
BRANCH   2  22
HETATM   22  N   UNL     1      41.106 -16.845   0.098  1.00  0.00    -0.234 N 
HETATM   23  H   UNL     1      40.398 -17.580   0.142  1.00  0.00     0.174 HD
HETATM   24  H   UNL     1      41.781 -16.888  -0.650  1.00  0.00     0.174 HD
ENDBRANCH   2  22
BRANCH   3  25
HETATM   25  C   UNL     1      40.986 -14.173  -1.170  1.00  0.00     0.186 C 
BRANCH  25  26
HETATM   26  C   UNL     1      39.901 -14.582  -2.135  1.00  0.00    -0.039 A 
HETATM   27  C   UNL     1      38.602 -14.051  -2.122  1.00  0.00     0.009 A 
HETATM   28  C   UNL     1      37.652 -14.470  -3.057  1.00  0.00     0.001 A 
HETATM   29  C   UNL     1      37.987 -15.417  -4.022  1.00  0.00     0.000 A 
HETATM   30  C   UNL     1      39.272 -15.946  -4.056  1.00  0.00     0.001 A 
HETATM   31  C   UNL     1      40.222 -15.533  -3.119  1.00  0.00     0.009 A 
ENDBRANCH  25  26
ENDBRANCH   3  25
TORSDOF 8
ENDMDL
MODEL 5
REMARK VINA RESULT:      -7.4      2.531      7.311
REMARK  8 active torsions:
REMARK  status: ('A' for Active; 'I' for Inactive)
REMARK    1  A    between atoms: O_2  and  C_3 
REMARK    2  A    between atoms: C_6  and  C_7 
REMARK    3  A    between atoms: C_7  and  O_8 
REMARK    4  A    between atoms: C_7  and  C_9 
REMARK    5  A    between atoms: C_9  and  N_10 
REMARK    6  A    between atoms: C_11  and  N_12 
REMARK    7  A    between atoms: N_13  and  C_14 
REMARK    8  A    between atoms: C_14  and  C_15 
ROOT
HETATM    1  N   UNL     1      42.518 -16.113   5.798  1.00  0.00    -0.178 N 
HETATM    2  C   UNL     1      42.867 -14.833   5.804  1.00  0.00     0.681 C 
HETATM    3  N   UNL     1      42.631 -14.304   4.612  1.00  0.00    -0.177 N 
HETATM    4  C   UNL     1      42.344 -15.334   3.718  1.00  0.00     0.079 A 
HETATM    5  C   UNL     1      42.270 -16.502   4.485  1.00  0.00     0.079 A 
HETATM    6  C   UNL     1      42.138 -15.333   2.342  1.00  0.00     0.032 A 
HETATM    7  C   UNL     1      41.853 -16.577   1.762  1.00  0.00     0.002 A 
HETATM    8  C   UNL     1      41.775 -17.753   2.533  1.00  0.00     0.002 A 
HETATM    9  C   UNL     1      41.978 -17.741   3.920  1.00  0.00     0.032 A 
ENDROOT
BRANCH   1  10
HETATM   10  C   UNL     1      42.355 -16.951   6.998  1.00  0.00     0.184 C 
BRANCH  10  11
HETATM   11  C   UNL     1      43.683 -17.562   7.498  1.00  0.00     0.170 C 
BRANCH  11  12
HETATM   12  C   UNL     1      43.992 -18.845   6.758  1.00  0.00    -0.028 A 
HETATM   13  C   UNL     1      44.784 -18.856   5.599  1.00  0.00     0.012 A 
HETATM   14  C   UNL     1      45.106 -20.058   4.959  1.00  0.00     0.037 A 
HETATM   15  C   UNL     1      44.654 -21.270   5.476  1.00  0.00     0.068 A 
HETATM   16  C   UNL     1      43.867 -21.267   6.628  1.00  0.00     0.037 A 
HETATM   17  C   UNL     1      43.536 -20.069   7.266  1.00  0.00     0.012 A 
BRANCH  15  18
HETATM   18  O   UNL     1      44.910 -22.510   4.963  1.00  0.00    -0.356 OA
HETATM   19  C   UNL     1      44.661 -22.703   3.575  1.00  0.00     0.210 C 
ENDBRANCH  15  18
ENDBRANCH  11  12
BRANCH  11  20
HETATM   20  O   UNL     1      43.602 -17.814   8.916  1.00  0.00    -0.389 OA
HETATM   21  H   UNL     1      42.773 -17.380   9.207  1.00  0.00     0.210 HD
ENDBRANCH  11  20
ENDBRANCH  10  11
ENDBRANCH   1  10
BRANCH   2  22
HETATM   22  N   UNL     1      43.383 -14.187   6.846  1.00  0.00    -0.234 N 
HETATM   23  H   UNL     1      43.821 -13.280   6.674  1.00  0.00     0.174 HD
HETATM   24  H   UNL     1      43.110 -14.406   7.791  1.00  0.00     0.174 HD
ENDBRANCH   2  22
BRANCH   3  25
HETATM   25  C   UNL     1      42.600 -12.882   4.306  1.00  0.00     0.186 C 
BRANCH  25  26
HETATM   26  C   UNL     1      41.203 -12.315   4.303  1.00  0.00    -0.039 A 
HETATM   27  C   UNL     1      40.211 -12.673   5.228  1.00  0.00     0.009 A 
HETATM   28  C   UNL     1      38.940 -12.096   5.170  1.00  0.00     0.001 A 
HETATM   29  C   UNL     1      38.644 -11.146   4.195  1.00  0.00     0.000 A 
HETATM   30  C   UNL     1      39.619 -10.771   3.276  1.00  0.00     0.001 A 
HETATM   31  C   UNL     1      40.887 -11.351   3.328  1.00  0.00     0.009 A 
ENDBRANCH  25  26
ENDBRANCH   3  25
TORSDOF 8
ENDMDL
MODEL 6
REMARK VINA RESULT:      -7.4      1.356      2.126
REMARK  8 active torsions:
REMARK  status: ('A' for Active; 'I' for Inactive)
REMARK    1  A    between atoms: O_2  and  C_3 
REMARK    2  A    between atoms: C_6  and  C_7 
REMARK    3  A    between atoms: C_7  and  O_8 
REMARK    4  A    between atoms: C_7  and  C_9 
REMARK    5  A    between atoms: C_9  and  N_10 
REMARK    6  A    between atoms: C_11  and  N_12 
REMARK    7  A    between atoms: N_13  and  C_14 
REMARK    8  A    between atoms: C_14  and  C_15 
ROOT
HETATM    1  N   UNL     1      41.226 -15.965   4.862  1.00  0.00    -0.178 N 
HETATM    2  C   UNL     1      42.173 -16.483   5.634  1.00  0.00     0.681 C 
HETATM    3  N   UNL     1      42.992 -17.219   4.896  1.00  0.00    -0.177 N 
HETATM    4  C   UNL     1      42.424 -17.388   3.635  1.00  0.00     0.079 A 
HETATM    5  C   UNL     1      41.283 -16.578   3.613  1.00  0.00     0.079 A 
HETATM    6  C   UNL     1      42.812 -18.155   2.541  1.00  0.00     0.032 A 
HETATM    7  C   UNL     1      41.990 -18.073   1.410  1.00  0.00     0.002 A 
HETATM    8  C   UNL     1      40.843 -17.255   1.385  1.00  0.00     0.002 A 
HETATM    9  C   UNL     1      40.465 -16.481   2.491  1.00  0.00     0.032 A 
ENDROOT
BRANCH   1  10
HETATM   10  C   UNL     1      40.319 -14.873   5.254  1.00  0.00     0.184 C 
BRANCH  10  11
HETATM   11  C   UNL     1      40.918 -13.470   5.015  1.00  0.00     0.170 C 
BRANCH  11  12
HETATM   12  C   UNL     1      40.894 -13.121   3.544  1.00  0.00    -0.028 A 
HETATM   13  C   UNL     1      39.691 -12.870   2.865  1.00  0.00     0.012 A 
HETATM   14  C   UNL     1      39.690 -12.495   1.517  1.00  0.00     0.037 A 
HETATM   15  C   UNL     1      40.893 -12.350   0.829  1.00  0.00     0.068 A 
HETATM   16  C   UNL     1      42.092 -12.596   1.498  1.00  0.00     0.037 A 
HETATM   17  C   UNL     1      42.098 -12.980   2.842  1.00  0.00     0.012 A 
BRANCH  15  18
HETATM   18  O   UNL     1      41.035 -11.973  -0.476  1.00  0.00    -0.356 OA
HETATM   19  C   UNL     1      41.623 -12.916  -1.364  1.00  0.00     0.210 C 
ENDBRANCH  15  18
ENDBRANCH  11  12
BRANCH  11  20
HETATM   20  O   UNL     1      42.271 -13.424   5.514  1.00  0.00    -0.389 OA
HETATM   21  H   UNL     1      42.532 -12.481   5.465  1.00  0.00     0.210 HD
ENDBRANCH  11  20
ENDBRANCH  10  11
ENDBRANCH   1  10
BRANCH   2  22
HETATM   22  N   UNL     1      42.275 -16.298   6.947  1.00  0.00    -0.234 N 
HETATM   23  H   UNL     1      43.172 -15.976   7.314  1.00  0.00     0.174 HD
HETATM   24  H   UNL     1      41.459 -16.181   7.528  1.00  0.00     0.174 HD
ENDBRANCH   2  22
BRANCH   3  25
HETATM   25  C   UNL     1      44.302 -17.701   5.308  1.00  0.00     0.186 C 
BRANCH  25  26
HETATM   26  C   UNL     1      44.321 -19.186   5.574  1.00  0.00    -0.039 A 
HETATM   27  C   UNL     1      43.715 -19.789   6.686  1.00  0.00     0.009 A 
HETATM   28  C   UNL     1      43.764 -21.175   6.861  1.00  0.00     0.001 A 
HETATM   29  C   UNL     1      44.409 -21.978   5.924  1.00  0.00     0.000 A 
HETATM   30  C   UNL     1      45.007 -21.398   4.809  1.00  0.00     0.001 A 
HETATM   31  C   UNL     1      44.964 -20.013   4.636  1.00  0.00     0.009 A 
ENDBRANCH  25  26
ENDBRANCH   3  25
TORSDOF 8
ENDMDL
MODEL 7
REMARK VINA RESULT:      -7.4      2.760      6.317
REMARK  8 active torsions:
REMARK  status: ('A' for Active; 'I' for Inactive)
REMARK    1  A    between atoms: O_2  and  C_3 
REMARK    2  A    between atoms: C_6  and  C_7 
REMARK    3  A    between atoms: C_7  and  O_8 
REMARK    4  A    between atoms: C_7  and  C_9 
REMARK    5  A    between atoms: C_9  and  N_10 
REMARK    6  A    between atoms: C_11  and  N_12 
REMARK    7  A    between atoms: N_13  and  C_14 
REMARK    8  A    between atoms: C_14  and  C_15 
ROOT
HETATM    1  N   UNL     1      42.391 -16.728   6.762  1.00  0.00    -0.178 N 
HETATM    2  C   UNL     1      41.389 -16.611   5.899  1.00  0.00     0.681 C 
HETATM    3  N   UNL     1      41.666 -15.652   5.026  1.00  0.00    -0.177 N 
HETATM    4  C   UNL     1      42.781 -14.949   5.477  1.00  0.00     0.079 A 
HETATM    5  C   UNL     1      43.249 -15.644   6.598  1.00  0.00     0.079 A 
HETATM    6  C   UNL     1      43.405 -13.800   5.001  1.00  0.00     0.032 A 
HETATM    7  C   UNL     1      44.534 -13.373   5.712  1.00  0.00     0.002 A 
HETATM    8  C   UNL     1      45.009 -14.074   6.838  1.00  0.00     0.002 A 
HETATM    9  C   UNL     1      44.376 -15.234   7.306  1.00  0.00     0.032 A 
ENDROOT
BRANCH   1  10
HETATM   10  C   UNL     1      42.585 -17.859   7.683  1.00  0.00     0.184 C 
BRANCH  10  11
HETATM   11  C   UNL     1      44.009 -18.454   7.626  1.00  0.00     0.170 C 
BRANCH  11  12
HETATM   12  C   UNL     1      44.141 -19.414   6.465  1.00  0.00    -0.028 A 
HETATM   13  C   UNL     1      44.366 -18.961   5.155  1.00  0.00     0.012 A 
HETATM   14  C   UNL     1      44.541 -19.866   4.101  1.00  0.00     0.037 A 
HETATM   15  C   UNL     1      44.509 -21.237   4.342  1.00  0.00     0.068 A 
HETATM   16  C   UNL     1      44.287 -21.694   5.641  1.00  0.00     0.037 A 
HETATM   17  C   UNL     1      44.103 -20.796   6.696  1.00  0.00     0.012 A 
BRANCH  15  18
HETATM   18  O   UNL     1      44.682 -22.223   3.412  1.00  0.00    -0.356 OA
HETATM   19  C   UNL     1      44.437 -21.884   2.052  1.00  0.00     0.210 C 
ENDBRANCH  15  18
ENDBRANCH  11  12
BRANCH  11  20
HETATM   20  O   UNL     1      44.308 -19.129   8.865  1.00  0.00    -0.389 OA
HETATM   21  H   UNL     1      44.439 -20.069   8.620  1.00  0.00     0.210 HD
ENDBRANCH  11  20
ENDBRANCH  10  11
ENDBRANCH   1  10
BRANCH   2  22
HETATM   22  N   UNL     1      40.276 -17.338   5.918  1.00  0.00    -0.234 N 
HETATM   23  H   UNL     1      40.021 -17.840   5.065  1.00  0.00     0.174 HD
HETATM   24  H   UNL     1      39.856 -17.639   6.784  1.00  0.00     0.174 HD
ENDBRANCH   2  22
BRANCH   3  25
HETATM   25  C   UNL     1      40.970 -15.423   3.769  1.00  0.00     0.186 C 
BRANCH  25  26
HETATM   26  C   UNL     1      41.678 -16.039   2.588  1.00  0.00    -0.039 A 
HETATM   27  C   UNL     1      42.967 -16.591   2.649  1.00  0.00     0.009 A 
HETATM   28  C   UNL     1      43.555 -17.155   1.514  1.00  0.00     0.001 A 
HETATM   29  C   UNL     1      42.863 -17.185   0.306  1.00  0.00     0.000 A 
HETATM   30  C   UNL     1      41.581 -16.651   0.229  1.00  0.00     0.001 A 
HETATM   31  C   UNL     1      40.993 -16.082   1.360  1.00  0.00     0.009 A 
ENDBRANCH  25  26
ENDBRANCH   3  25
TORSDOF 8
ENDMDL
MODEL 8
REMARK VINA RESULT:      -7.2      2.843      5.732
REMARK  8 active torsions:
REMARK  status: ('A' for Active; 'I' for Inactive)
REMARK    1  A    between atoms: O_2  and  C_3 
REMARK    2  A    between atoms: C_6  and  C_7 
REMARK    3  A    between atoms: C_7  and  O_8 
REMARK    4  A    between atoms: C_7  and  C_9 
REMARK    5  A    between atoms: C_9  and  N_10 
REMARK    6  A    between atoms: C_11  and  N_12 
REMARK    7  A    between atoms: N_13  and  C_14 
REMARK    8  A    between atoms: C_14  and  C_15 
ROOT
HETATM    1  N   UNL     1      41.680 -17.373   1.997  1.00  0.00    -0.178 N 
HETATM    2  C   UNL     1      40.983 -16.931   3.037  1.00  0.00     0.681 C 
HETATM    3  N   UNL     1      41.578 -17.308   4.160  1.00  0.00    -0.177 N 
HETATM    4  C   UNL     1      42.569 -18.237   3.848  1.00  0.00     0.079 A 
HETATM    5  C   UNL     1      42.635 -18.278   2.451  1.00  0.00     0.079 A 
HETATM    6  C   UNL     1      43.396 -19.013   4.655  1.00  0.00     0.032 A 
HETATM    7  C   UNL     1      44.302 -19.846   3.986  1.00  0.00     0.002 A 
HETATM    8  C   UNL     1      44.371 -19.886   2.579  1.00  0.00     0.002 A 
HETATM    9  C   UNL     1      43.538 -19.095   1.777  1.00  0.00     0.032 A 
ENDROOT
BRANCH   1  10
HETATM   10  C   UNL     1      41.505 -16.916   0.608  1.00  0.00     0.184 C 
BRANCH  10  11
HETATM   11  C   UNL     1      41.473 -15.378   0.472  1.00  0.00     0.170 C 
BRANCH  11  12
HETATM   12  C   UNL     1      40.626 -14.964  -0.711  1.00  0.00    -0.028 A 
HETATM   13  C   UNL     1      40.855 -15.478  -1.997  1.00  0.00     0.012 A 
HETATM   14  C   UNL     1      40.027 -15.126  -3.069  1.00  0.00     0.037 A 
HETATM   15  C   UNL     1      38.949 -14.267  -2.871  1.00  0.00     0.068 A 
HETATM   16  C   UNL     1      38.715 -13.753  -1.595  1.00  0.00     0.037 A 
HETATM   17  C   UNL     1      39.544 -14.094  -0.522  1.00  0.00     0.012 A 
BRANCH  15  18
HETATM   18  O   UNL     1      38.057 -13.860  -3.822  1.00  0.00    -0.356 OA
HETATM   19  C   UNL     1      36.963 -14.727  -4.101  1.00  0.00     0.210 C 
ENDBRANCH  15  18
ENDBRANCH  11  12
BRANCH  11  20
HETATM   20  O   UNL     1      42.815 -14.872   0.323  1.00  0.00    -0.389 OA
HETATM   21  H   UNL     1      43.362 -15.654   0.100  1.00  0.00     0.210 HD
ENDBRANCH  11  20
ENDBRANCH  10  11
ENDBRANCH   1  10
BRANCH   2  22
HETATM   22  N   UNL     1      39.857 -16.229   2.959  1.00  0.00    -0.234 N 
HETATM   23  H   UNL     1      39.777 -15.538   2.210  1.00  0.00     0.174 HD
HETATM   24  H   UNL     1      39.007 -16.543   3.401  1.00  0.00     0.174 HD
ENDBRANCH   2  22
BRANCH   3  25
HETATM   25  C   UNL     1      41.296 -16.780   5.486  1.00  0.00     0.186 C 
BRANCH  25  26
HETATM   26  C   UNL     1      42.333 -15.790   5.955  1.00  0.00    -0.039 A 
HETATM   27  C   UNL     1      43.371 -16.106   6.845  1.00  0.00     0.009 A 
HETATM   28  C   UNL     1      44.303 -15.138   7.226  1.00  0.00     0.001 A 
HETATM   29  C   UNL     1      44.220 -13.845   6.716  1.00  0.00     0.000 A 
HETATM   30  C   UNL     1      43.205 -13.516   5.824  1.00  0.00     0.001 A 
HETATM   31  C   UNL     1      42.268 -14.480   5.447  1.00  0.00     0.009 A 
ENDBRANCH  25  26
ENDBRANCH   3  25
TORSDOF 8
ENDMDL
MODEL 9
REMARK VINA RESULT:      -7.2      2.051      4.977
REMARK  8 active torsions:
REMARK  status: ('A' for Active; 'I' for Inactive)
REMARK    1  A    between atoms: O_2  and  C_3 
REMARK    2  A    between atoms: C_6  and  C_7 
REMARK    3  A    between atoms: C_7  and  O_8 
REMARK    4  A    between atoms: C_7  and  C_9 
REMARK    5  A    between atoms: C_9  and  N_10 
REMARK    6  A    between atoms: C_11  and  N_12 
REMARK    7  A    between atoms: N_13  and  C_14 
REMARK    8  A    between atoms: C_14  and  C_15 
ROOT
HETATM    1  N   UNL     1      41.579 -17.265   2.225  1.00  0.00    -0.178 N 
HETATM    2  C   UNL     1      41.016 -16.900   3.370  1.00  0.00     0.681 C 
HETATM    3  N   UNL     1      41.739 -17.354   4.383  1.00  0.00    -0.177 N 
HETATM    4  C   UNL     1      42.679 -18.256   3.890  1.00  0.00     0.079 A 
HETATM    5  C   UNL     1      42.576 -18.198   2.495  1.00  0.00     0.079 A 
HETATM    6  C   UNL     1      43.593 -19.085   4.534  1.00  0.00     0.032 A 
HETATM    7  C   UNL     1      44.406 -19.867   3.702  1.00  0.00     0.002 A 
HETATM    8  C   UNL     1      44.305 -19.807   2.299  1.00  0.00     0.002 A 
HETATM    9  C   UNL     1      43.386 -18.963   1.661  1.00  0.00     0.032 A 
ENDROOT
BRANCH   1  10
HETATM   10  C   UNL     1      41.241 -16.712   0.903  1.00  0.00     0.184 C 
BRANCH  10  11
HETATM   11  C   UNL     1      42.028 -15.427   0.561  1.00  0.00     0.170 C 
BRANCH  11  12
HETATM   12  C   UNL     1      41.426 -14.230   1.263  1.00  0.00    -0.028 A 
HETATM   13  C   UNL     1      42.151 -13.491   2.212  1.00  0.00     0.012 A 
HETATM   14  C   UNL     1      41.599 -12.353   2.812  1.00  0.00     0.037 A 
HETATM   15  C   UNL     1      40.320 -11.926   2.461  1.00  0.00     0.068 A 
HETATM   16  C   UNL     1      39.595 -12.655   1.518  1.00  0.00     0.037 A 
HETATM   17  C   UNL     1      40.138 -13.797   0.923  1.00  0.00     0.012 A 
BRANCH  15  18
HETATM   18  O   UNL     1      39.674 -10.828   2.953  1.00  0.00    -0.356 OA
HETATM   19  C   UNL     1      38.537 -11.059   3.777  1.00  0.00     0.210 C 
ENDBRANCH  15  18
ENDBRANCH  11  12
BRANCH  11  20
HETATM   20  O   UNL     1      42.026 -15.218  -0.866  1.00  0.00    -0.389 OA
HETATM   21  H   UNL     1      41.322 -15.806  -1.211  1.00  0.00     0.210 HD
ENDBRANCH  11  20
ENDBRANCH  10  11
ENDBRANCH   1  10
BRANCH   2  22
HETATM   22  N   UNL     1      39.893 -16.196   3.478  1.00  0.00    -0.234 N 
HETATM   23  H   UNL     1      39.969 -15.177   3.490  1.00  0.00     0.174 HD
HETATM   24  H   UNL     1      38.994 -16.599   3.260  1.00  0.00     0.174 HD
ENDBRANCH   2  22
BRANCH   3  25
HETATM   25  C   UNL     1      41.623 -16.922   5.768  1.00  0.00     0.186 C 
BRANCH  25  26
HETATM   26  C   UNL     1      42.607 -15.836   6.126  1.00  0.00    -0.039 A 
HETATM   27  C   UNL     1      43.833 -16.071   6.767  1.00  0.00     0.009 A 
HETATM   28  C   UNL     1      44.700 -15.014   7.058  1.00  0.00     0.001 A 
HETATM   29  C   UNL     1      44.360 -13.711   6.705  1.00  0.00     0.000 A 
HETATM   30  C   UNL     1      43.154 -13.460   6.060  1.00  0.00     0.001 A 
HETATM   31  C   UNL     1      42.283 -14.513   5.774  1.00  0.00     0.009 A 
ENDBRANCH  25  26
ENDBRANCH   3  25
TORSDOF 8
ENDMDL
MODEL 10
REMARK VINA RESULT:      -7.2      3.321      5.283
REMARK  8 active torsions:
REMARK  status: ('A' for Active; 'I' for Inactive)
REMARK    1  A    between atoms: O_2  and  C_3 
REMARK    2  A    between atoms: C_6  and  C_7 
REMARK    3  A    between atoms: C_7  and  O_8 
REMARK    4  A    between atoms: C_7  and  C_9 
REMARK    5  A    between atoms: C_9  and  N_10 
REMARK    6  A    between atoms: C_11  and  N_12 
REMARK    7  A    between atoms: N_13  and  C_14 
REMARK    8  A    between atoms: C_14  and  C_15 
ROOT
HETATM    1  N   UNL     1      41.385 -13.996   4.809  1.00  0.00    -0.178 N 
HETATM    2  C   UNL     1      41.051 -15.178   4.307  1.00  0.00     0.681 C 
HETATM    3  N   UNL     1      41.747 -16.130   4.913  1.00  0.00    -0.177 N 
HETATM    4  C   UNL     1      42.751 -15.531   5.672  1.00  0.00     0.079 A 
HETATM    5  C   UNL     1      42.517 -14.153   5.605  1.00  0.00     0.079 A 
HETATM    6  C   UNL     1      43.807 -16.071   6.400  1.00  0.00     0.032 A 
HETATM    7  C   UNL     1      44.630 -15.152   7.063  1.00  0.00     0.002 A 
HETATM    8  C   UNL     1      44.394 -13.765   6.999  1.00  0.00     0.002 A 
HETATM    9  C   UNL     1      43.323 -13.232   6.269  1.00  0.00     0.032 A 
ENDROOT
BRANCH   1  10
HETATM   10  C   UNL     1      40.632 -12.748   4.606  1.00  0.00     0.184 C 
BRANCH  10  11
HETATM   11  C   UNL     1      39.502 -12.543   5.639  1.00  0.00     0.170 C 
BRANCH  11  12
HETATM   12  C   UNL     1      39.956 -11.629   6.754  1.00  0.00    -0.028 A 
HETATM   13  C   UNL     1      40.898 -10.611   6.535  1.00  0.00     0.012 A 
HETATM   14  C   UNL     1      41.266  -9.738   7.566  1.00  0.00     0.037 A 
HETATM   15  C   UNL     1      40.688  -9.858   8.826  1.00  0.00     0.068 A 
HETATM   16  C   UNL     1      39.750 -10.867   9.051  1.00  0.00     0.037 A 
HETATM   17  C   UNL     1      39.385 -11.747   8.028  1.00  0.00     0.012 A 
BRANCH  15  18
HETATM   18  O   UNL     1      40.942  -9.065   9.909  1.00  0.00    -0.356 OA
HETATM   19  C   UNL     1      41.985  -9.476  10.785  1.00  0.00     0.210 C 
ENDBRANCH  15  18
ENDBRANCH  11  12
BRANCH  11  20
HETATM   20  O   UNL     1      39.096 -13.819   6.177  1.00  0.00    -0.389 OA
HETATM   21  H   UNL     1      39.739 -14.466   5.819  1.00  0.00     0.210 HD
ENDBRANCH  11  20
ENDBRANCH  10  11
ENDBRANCH   1  10
BRANCH   2  22
HETATM   22  N   UNL     1      40.163 -15.372   3.336  1.00  0.00    -0.234 N 
HETATM   23  H   UNL     1      39.760 -16.306   3.240  1.00  0.00     0.174 HD
HETATM   24  H   UNL     1      39.675 -14.602   2.906  1.00  0.00     0.174 HD
ENDBRANCH   2  22
BRANCH   3  25
HETATM   25  C   UNL     1      41.461 -17.555   4.858  1.00  0.00     0.186 C 
BRANCH  25  26
HETATM   26  C   UNL     1      42.494 -18.329   4.078  1.00  0.00    -0.039 A 
HETATM   27  C   UNL     1      43.471 -19.146   4.669  1.00  0.00     0.009 A 
HETATM   28  C   UNL     1      44.389 -19.844   3.880  1.00  0.00     0.001 A 
HETATM   29  C   UNL     1      44.339 -19.745   2.492  1.00  0.00     0.000 A 
HETATM   30  C   UNL     1      43.372 -18.949   1.888  1.00  0.00     0.001 A 
HETATM   31  C   UNL     1      42.457 -18.246   2.674  1.00  0.00     0.009 A 
ENDBRANCH  25  26
ENDBRANCH   3  25
TORSDOF 8
ENDMDL
