MODEL 1
REMARK VINA RESULT:      -7.7      0.000      0.000
REMARK  3 active torsions:
REMARK  status: ('A' for Active; 'I' for Inactive)
REMARK    1  A    between atoms: C_3  and  N_4 
REMARK    2  A    between atoms: C_3  and  C_17 
REMARK       I    between atoms: N_4  and  C_5 
REMARK    3  A    between atoms: C_5  and  C_6 
ROOT
HETATM    1  N   UNL     1      41.388 -16.005   4.905  1.00  0.00    -0.306 N 
HETATM    2  C   UNL     1      42.740 -16.072   5.196  1.00  0.00     0.275 C 
HETATM    3  O   UNL     1      43.399 -15.159   5.681  1.00  0.00    -0.266 OA
HETATM    4  H   UNL     1      41.011 -16.860   4.509  1.00  0.00     0.170 HD
ENDROOT
BRANCH   2   5
HETATM    5  C   UNL     1      43.351 -17.392   4.853  1.00  0.00     0.125 A 
HETATM    6  N   UNL     1      42.947 -17.931   3.665  1.00  0.00    -0.243 NA
HETATM    7  C   UNL     1      43.465 -19.123   3.322  1.00  0.00     0.068 A 
HETATM    8  C   UNL     1      44.392 -19.812   4.138  1.00  0.00    -0.007 A 
HETATM    9  C   UNL     1      43.084 -19.712   2.124  1.00  0.00     0.032 A 
HETATM   10  C   UNL     1      44.780 -19.221   5.349  1.00  0.00     0.016 A 
HETATM   11  C   UNL     1      44.903 -21.056   3.733  1.00  0.00     0.014 A 
HETATM   12  C   UNL     1      44.252 -17.989   5.717  1.00  0.00     0.038 A 
HETATM   13  C   UNL     1      44.501 -21.624   2.526  1.00  0.00     0.001 A 
HETATM   14  C   UNL     1      43.590 -20.951   1.719  1.00  0.00     0.002 A 
ENDBRANCH   2   5
BRANCH   1  15
HETATM   15  C   UNL     1      40.544 -14.952   5.143  1.00  0.00     0.133 C 
HETATM   16  N   UNL     1      40.226 -14.565   6.328  1.00  0.00    -0.283 NA
HETATM   17  H   UNL     1      40.714 -15.169   7.008  1.00  0.00     0.188 HD
BRANCH  15  18
HETATM   18  C   UNL     1      39.986 -14.255   3.987  1.00  0.00     0.016 A 
HETATM   19  C   UNL     1      39.700 -12.899   4.008  1.00  0.00     0.065 A 
HETATM   20  S   UNL     1      39.049 -12.316   2.540  1.00  0.00    -0.113 SA
HETATM   21  C   UNL     1      39.141 -13.863   1.828  1.00  0.00     0.050 A 
HETATM   22  C   UNL     1      39.654 -14.802   2.696  1.00  0.00     0.023 A 
ENDBRANCH  15  18
ENDBRANCH   1  15
TORSDOF 3
ENDMDL
MODEL 2
REMARK VINA RESULT:      -7.7      1.675      1.935
REMARK  3 active torsions:
REMARK  status: ('A' for Active; 'I' for Inactive)
REMARK    1  A    between atoms: C_3  and  N_4 
REMARK    2  A    between atoms: C_3  and  C_17 
REMARK       I    between atoms: N_4  and  C_5 
REMARK    3  A    between atoms: C_5  and  C_6 
ROOT
HETATM    1  N   UNL     1      42.998 -15.652   2.871  1.00  0.00    -0.306 N 
HETATM    2  C   UNL     1      43.232 -16.132   4.147  1.00  0.00     0.275 C 
HETATM    3  O   UNL     1      43.101 -15.481   5.177  1.00  0.00    -0.266 OA
HETATM    4  H   UNL     1      43.157 -16.335   2.139  1.00  0.00     0.170 HD
ENDROOT
BRANCH   2   5
HETATM    5  C   UNL     1      43.679 -17.559   4.166  1.00  0.00     0.125 A 
HETATM    6  N   UNL     1      43.393 -18.274   3.038  1.00  0.00    -0.243 NA
HETATM    7  C   UNL     1      43.769 -19.564   3.017  1.00  0.00     0.068 A 
HETATM    8  C   UNL     1      44.434 -20.181   4.101  1.00  0.00    -0.007 A 
HETATM    9  C   UNL     1      43.499 -20.333   1.892  1.00  0.00     0.032 A 
HETATM   10  C   UNL     1      44.708 -19.408   5.238  1.00  0.00     0.016 A 
HETATM   11  C   UNL     1      44.804 -21.534   4.027  1.00  0.00     0.014 A 
HETATM   12  C   UNL     1      44.325 -18.073   5.276  1.00  0.00     0.038 A 
HETATM   13  C   UNL     1      44.518 -22.281   2.886  1.00  0.00     0.001 A 
HETATM   14  C   UNL     1      43.866 -21.680   1.817  1.00  0.00     0.002 A 
ENDBRANCH   2   5
BRANCH   1  15
HETATM   15  C   UNL     1      42.541 -14.405   2.530  1.00  0.00     0.133 C 
HETATM   16  N   UNL     1      43.165 -13.323   2.838  1.00  0.00    -0.283 NA
HETATM   17  H   UNL     1      44.023 -13.579   3.353  1.00  0.00     0.188 HD
BRANCH  15  18
HETATM   18  C   UNL     1      41.286 -14.322   1.789  1.00  0.00     0.016 A 
HETATM   19  C   UNL     1      40.051 -14.388   2.416  1.00  0.00     0.065 A 
HETATM   20  S   UNL     1      38.731 -14.275   1.337  1.00  0.00    -0.113 SA
HETATM   21  C   UNL     1      39.775 -14.123  -0.003  1.00  0.00     0.050 A 
HETATM   22  C   UNL     1      41.102 -14.163   0.369  1.00  0.00     0.023 A 
ENDBRANCH  15  18
ENDBRANCH   1  15
TORSDOF 3
ENDMDL
MODEL 3
REMARK VINA RESULT:      -7.6      1.969      2.619
REMARK  3 active torsions:
REMARK  status: ('A' for Active; 'I' for Inactive)
REMARK    1  A    between atoms: C_3  and  N_4 
REMARK    2  A    between atoms: C_3  and  C_17 
REMARK       I    between atoms: N_4  and  C_5 
REMARK    3  A    between atoms: C_5  and  C_6 
ROOT
HETATM    1  N   UNL     1      42.810 -15.743   2.459  1.00  0.00    -0.306 N 
HETATM    2  C   UNL     1      43.255 -16.454   3.559  1.00  0.00     0.275 C 
HETATM    3  O   UNL     1      43.425 -15.983   4.678  1.00  0.00    -0.266 OA
HETATM    4  H   UNL     1      42.727 -16.300   1.616  1.00  0.00     0.170 HD
ENDROOT
BRANCH   2   5
HETATM    5  C   UNL     1      43.527 -17.893   3.258  1.00  0.00     0.125 A 
HETATM    6  N   UNL     1      43.955 -18.640   4.318  1.00  0.00    -0.243 NA
HETATM    7  C   UNL     1      44.219 -19.938   4.088  1.00  0.00     0.068 A 
HETATM    8  C   UNL     1      44.069 -20.531   2.814  1.00  0.00    -0.007 A 
HETATM    9  C   UNL     1      44.659 -20.738   5.135  1.00  0.00     0.032 A 
HETATM   10  C   UNL     1      43.625 -19.726   1.755  1.00  0.00     0.016 A 
HETATM   11  C   UNL     1      44.360 -21.893   2.628  1.00  0.00     0.014 A 
HETATM   12  C   UNL     1      43.348 -18.383   1.976  1.00  0.00     0.038 A 
HETATM   13  C   UNL     1      44.800 -22.671   3.697  1.00  0.00     0.001 A 
HETATM   14  C   UNL     1      44.950 -22.094   4.952  1.00  0.00     0.002 A 
ENDBRANCH   2   5
BRANCH   1  15
HETATM   15  C   UNL     1      42.437 -14.424   2.425  1.00  0.00     0.133 C 
HETATM   16  N   UNL     1      43.200 -13.471   2.833  1.00  0.00    -0.283 NA
HETATM   17  H   UNL     1      44.089 -13.884   3.158  1.00  0.00     0.188 HD
BRANCH  15  18
HETATM   18  C   UNL     1      41.109 -14.107   1.906  1.00  0.00     0.016 A 
HETATM   19  C   UNL     1      40.902 -13.115   0.961  1.00  0.00     0.065 A 
HETATM   20  S   UNL     1      39.263 -12.927   0.517  1.00  0.00    -0.113 SA
HETATM   21  C   UNL     1      38.783 -14.179   1.571  1.00  0.00     0.050 A 
HETATM   22  C   UNL     1      39.853 -14.723   2.249  1.00  0.00     0.023 A 
ENDBRANCH  15  18
ENDBRANCH   1  15
TORSDOF 3
ENDMDL
MODEL 4
REMARK VINA RESULT:      -7.5      2.994      3.520
REMARK  3 active torsions:
REMARK  status: ('A' for Active; 'I' for Inactive)
REMARK    1  A    between atoms: C_3  and  N_4 
REMARK    2  A    between atoms: C_3  and  C_17 
REMARK       I    between atoms: N_4  and  C_5 
REMARK    3  A    between atoms: C_5  and  C_6 
ROOT
HETATM    1  N   UNL     1      41.281 -16.100   1.176  1.00  0.00    -0.306 N 
HETATM    2  C   UNL     1      41.631 -15.999   2.511  1.00  0.00     0.275 C 
HETATM    3  O   UNL     1      41.306 -15.081   3.255  1.00  0.00    -0.266 OA
HETATM    4  H   UNL     1      41.638 -16.932   0.719  1.00  0.00     0.170 HD
ENDROOT
BRANCH   2   5
HETATM    5  C   UNL     1      42.471 -17.142   2.986  1.00  0.00     0.125 A 
HETATM    6  N   UNL     1      42.482 -18.236   2.170  1.00  0.00    -0.243 NA
HETATM    7  C   UNL     1      43.218 -19.289   2.564  1.00  0.00     0.068 A 
HETATM    8  C   UNL     1      43.960 -19.292   3.768  1.00  0.00    -0.007 A 
HETATM    9  C   UNL     1      43.260 -20.426   1.767  1.00  0.00     0.032 A 
HETATM   10  C   UNL     1      43.920 -18.146   4.575  1.00  0.00     0.016 A 
HETATM   11  C   UNL     1      44.712 -20.420   4.134  1.00  0.00     0.014 A 
HETATM   12  C   UNL     1      43.163 -17.049   4.181  1.00  0.00     0.038 A 
HETATM   13  C   UNL     1      44.734 -21.547   3.315  1.00  0.00     0.001 A 
HETATM   14  C   UNL     1      44.008 -21.551   2.130  1.00  0.00     0.002 A 
ENDBRANCH   2   5
BRANCH   1  15
HETATM   15  C   UNL     1      40.486 -15.239   0.466  1.00  0.00     0.133 C 
HETATM   16  N   UNL     1      39.330 -14.851   0.878  1.00  0.00    -0.283 NA
HETATM   17  H   UNL     1      39.150 -15.291   1.795  1.00  0.00     0.188 HD
BRANCH  15  18
HETATM   18  C   UNL     1      40.987 -14.756  -0.819  1.00  0.00     0.016 A 
HETATM   19  C   UNL     1      41.693 -13.569  -0.938  1.00  0.00     0.065 A 
HETATM   20  S   UNL     1      42.166 -13.215  -2.541  1.00  0.00    -0.113 SA
HETATM   21  C   UNL     1      41.449 -14.649  -3.122  1.00  0.00     0.050 A 
HETATM   22  C   UNL     1      40.857 -15.378  -2.112  1.00  0.00     0.023 A 
ENDBRANCH  15  18
ENDBRANCH   1  15
TORSDOF 3
ENDMDL
MODEL 5
REMARK VINA RESULT:      -7.5      3.448      4.474
REMARK  3 active torsions:
REMARK  status: ('A' for Active; 'I' for Inactive)
REMARK    1  A    between atoms: C_3  and  N_4 
REMARK    2  A    between atoms: C_3  and  C_17 
REMARK       I    between atoms: N_4  and  C_5 
REMARK    3  A    between atoms: C_5  and  C_6 
ROOT
HETATM    1  N   UNL     1      42.135 -15.341   0.151  1.00  0.00    -0.306 N 
HETATM    2  C   UNL     1      42.289 -15.400   1.525  1.00  0.00     0.275 C 
HETATM    3  O   UNL     1      41.979 -14.507   2.305  1.00  0.00    -0.266 OA
HETATM    4  H   UNL     1      42.445 -16.176  -0.334  1.00  0.00     0.170 HD
ENDROOT
BRANCH   2   5
HETATM    5  C   UNL     1      42.889 -16.686   1.994  1.00  0.00     0.125 A 
HETATM    6  N   UNL     1      43.185 -16.741   3.325  1.00  0.00    -0.243 NA
HETATM    7  C   UNL     1      43.735 -17.877   3.787  1.00  0.00     0.068 A 
HETATM    8  C   UNL     1      44.007 -18.985   2.952  1.00  0.00    -0.007 A 
HETATM    9  C   UNL     1      44.055 -17.979   5.135  1.00  0.00     0.032 A 
HETATM   10  C   UNL     1      43.685 -18.885   1.591  1.00  0.00     0.016 A 
HETATM   11  C   UNL     1      44.584 -20.149   3.485  1.00  0.00     0.014 A 
HETATM   12  C   UNL     1      43.116 -17.717   1.099  1.00  0.00     0.038 A 
HETATM   13  C   UNL     1      44.896 -20.222   4.842  1.00  0.00     0.001 A 
HETATM   14  C   UNL     1      44.631 -19.137   5.668  1.00  0.00     0.002 A 
ENDBRANCH   2   5
BRANCH   1  15
HETATM   15  C   UNL     1      41.578 -14.319  -0.573  1.00  0.00     0.133 C 
HETATM   16  N   UNL     1      41.806 -13.077  -0.322  1.00  0.00    -0.283 NA
HETATM   17  H   UNL     1      42.458 -13.023   0.477  1.00  0.00     0.188 HD
BRANCH  15  18
HETATM   18  C   UNL     1      40.681 -14.675  -1.670  1.00  0.00     0.016 A 
HETATM   19  C   UNL     1      39.487 -14.008  -1.895  1.00  0.00     0.065 A 
HETATM   20  S   UNL     1      38.611 -14.610  -3.232  1.00  0.00    -0.113 SA
HETATM   21  C   UNL     1      39.812 -15.777  -3.556  1.00  0.00     0.050 A 
HETATM   22  C   UNL     1      40.856 -15.708  -2.658  1.00  0.00     0.023 A 
ENDBRANCH  15  18
ENDBRANCH   1  15
TORSDOF 3
ENDMDL
MODEL 6
REMARK VINA RESULT:      -7.4      3.670      4.711
REMARK  3 active torsions:
REMARK  status: ('A' for Active; 'I' for Inactive)
REMARK    1  A    between atoms: C_3  and  N_4 
REMARK    2  A    between atoms: C_3  and  C_17 
REMARK       I    between atoms: N_4  and  C_5 
REMARK    3  A    between atoms: C_5  and  C_6 
ROOT
HETATM    1  N   UNL     1      41.714 -15.734  -0.218  1.00  0.00    -0.306 N 
HETATM    2  C   UNL     1      41.215 -16.153   1.003  1.00  0.00     0.275 C 
HETATM    3  O   UNL     1      40.128 -15.826   1.467  1.00  0.00    -0.266 OA
HETATM    4  H   UNL     1      42.630 -16.110  -0.437  1.00  0.00     0.170 HD
ENDROOT
BRANCH   2   5
HETATM    5  C   UNL     1      42.145 -17.064   1.738  1.00  0.00     0.125 A 
HETATM    6  N   UNL     1      41.865 -17.239   3.062  1.00  0.00    -0.243 NA
HETATM    7  C   UNL     1      42.683 -18.044   3.762  1.00  0.00     0.068 A 
HETATM    8  C   UNL     1      43.794 -18.695   3.178  1.00  0.00    -0.007 A 
HETATM    9  C   UNL     1      42.439 -18.253   5.114  1.00  0.00     0.032 A 
HETATM   10  C   UNL     1      44.043 -18.486   1.814  1.00  0.00     0.016 A 
HETATM   11  C   UNL     1      44.618 -19.525   3.955  1.00  0.00     0.014 A 
HETATM   12  C   UNL     1      43.207 -17.657   1.077  1.00  0.00     0.038 A 
HETATM   13  C   UNL     1      44.349 -19.715   5.309  1.00  0.00     0.001 A 
HETATM   14  C   UNL     1      43.258 -19.079   5.890  1.00  0.00     0.002 A 
ENDBRANCH   2   5
BRANCH   1  15
HETATM   15  C   UNL     1      41.084 -14.936  -1.137  1.00  0.00     0.133 C 
HETATM   16  N   UNL     1      39.977 -15.263  -1.706  1.00  0.00    -0.283 NA
HETATM   17  H   UNL     1      39.686 -16.184  -1.341  1.00  0.00     0.188 HD
BRANCH  15  18
HETATM   18  C   UNL     1      41.716 -13.664  -1.477  1.00  0.00     0.016 A 
HETATM   19  C   UNL     1      41.992 -12.696  -0.524  1.00  0.00     0.065 A 
HETATM   20  S   UNL     1      42.727 -11.295  -1.167  1.00  0.00    -0.113 SA
HETATM   21  C   UNL     1      42.707 -11.948  -2.743  1.00  0.00     0.050 A 
HETATM   22  C   UNL     1      42.147 -13.207  -2.774  1.00  0.00     0.023 A 
ENDBRANCH  15  18
ENDBRANCH   1  15
TORSDOF 3
ENDMDL
MODEL 7
REMARK VINA RESULT:      -7.4      1.917      2.460
REMARK  3 active torsions:
REMARK  status: ('A' for Active; 'I' for Inactive)
REMARK    1  A    between atoms: C_3  and  N_4 
REMARK    2  A    between atoms: C_3  and  C_17 
REMARK       I    between atoms: N_4  and  C_5 
REMARK    3  A    between atoms: C_5  and  C_6 
ROOT
HETATM    1  N   UNL     1      43.162 -15.570   5.167  1.00  0.00    -0.306 N 
HETATM    2  C   UNL     1      43.802 -16.698   5.650  1.00  0.00     0.275 C 
HETATM    3  O   UNL     1      44.302 -16.798   6.764  1.00  0.00    -0.266 OA
HETATM    4  H   UNL     1      42.807 -15.672   4.223  1.00  0.00     0.170 HD
ENDROOT
BRANCH   2   5
HETATM    5  C   UNL     1      43.839 -17.821   4.663  1.00  0.00     0.125 A 
HETATM    6  N   UNL     1      44.252 -19.023   5.162  1.00  0.00    -0.243 NA
HETATM    7  C   UNL     1      44.308 -20.057   4.306  1.00  0.00     0.068 A 
HETATM    8  C   UNL     1      43.959 -19.935   2.941  1.00  0.00    -0.007 A 
HETATM    9  C   UNL     1      44.724 -21.300   4.767  1.00  0.00     0.032 A 
HETATM   10  C   UNL     1      43.540 -18.682   2.473  1.00  0.00     0.016 A 
HETATM   11  C   UNL     1      44.037 -21.049   2.089  1.00  0.00     0.014 A 
HETATM   12  C   UNL     1      43.477 -17.603   3.346  1.00  0.00     0.038 A 
HETATM   13  C   UNL     1      44.459 -22.283   2.579  1.00  0.00     0.001 A 
HETATM   14  C   UNL     1      44.802 -22.409   3.920  1.00  0.00     0.002 A 
ENDBRANCH   2   5
BRANCH   1  15
HETATM   15  C   UNL     1      42.929 -14.401   5.843  1.00  0.00     0.133 C 
HETATM   16  N   UNL     1      43.571 -14.069   6.908  1.00  0.00    -0.283 NA
HETATM   17  H   UNL     1      44.253 -14.815   7.121  1.00  0.00     0.188 HD
BRANCH  15  18
HETATM   18  C   UNL     1      41.898 -13.508   5.320  1.00  0.00     0.016 A 
HETATM   19  C   UNL     1      40.595 -13.526   5.792  1.00  0.00     0.065 A 
HETATM   20  S   UNL     1      39.574 -12.395   5.021  1.00  0.00    -0.113 SA
HETATM   21  C   UNL     1      40.852 -11.838   4.037  1.00  0.00     0.050 A 
HETATM   22  C   UNL     1      42.030 -12.507   4.293  1.00  0.00     0.023 A 
ENDBRANCH  15  18
ENDBRANCH   1  15
TORSDOF 3
ENDMDL
MODEL 8
REMARK VINA RESULT:      -7.2      3.576      4.481
REMARK  3 active torsions:
REMARK  status: ('A' for Active; 'I' for Inactive)
REMARK    1  A    between atoms: C_3  and  N_4 
REMARK    2  A    between atoms: C_3  and  C_17 
REMARK       I    between atoms: N_4  and  C_5 
REMARK    3  A    between atoms: C_5  and  C_6 
ROOT
HETATM    1  N   UNL     1      40.447 -15.261   0.450  1.00  0.00    -0.306 N 
HETATM    2  C   UNL     1      39.998 -15.514   1.734  1.00  0.00     0.275 C 
HETATM    3  O   UNL     1      38.955 -15.081   2.211  1.00  0.00    -0.266 OA
HETATM    4  H   UNL     1      41.331 -15.707   0.229  1.00  0.00     0.170 HD
ENDROOT
BRANCH   2   5
HETATM    5  C   UNL     1      40.924 -16.386   2.520  1.00  0.00     0.125 A 
HETATM    6  N   UNL     1      41.684 -17.245   1.780  1.00  0.00    -0.243 NA
HETATM    7  C   UNL     1      42.525 -18.054   2.448  1.00  0.00     0.068 A 
HETATM    8  C   UNL     1      42.638 -18.037   3.858  1.00  0.00    -0.007 A 
HETATM    9  C   UNL     1      43.318 -18.946   1.739  1.00  0.00     0.032 A 
HETATM   10  C   UNL     1      41.838 -17.137   4.577  1.00  0.00     0.016 A 
HETATM   11  C   UNL     1      43.531 -18.905   4.507  1.00  0.00     0.014 A 
HETATM   12  C   UNL     1      40.964 -16.295   3.900  1.00  0.00     0.038 A 
HETATM   13  C   UNL     1      44.314 -19.790   3.769  1.00  0.00     0.001 A 
HETATM   14  C   UNL     1      44.208 -19.811   2.383  1.00  0.00     0.002 A 
ENDBRANCH   2   5
BRANCH   1  15
HETATM   15  C   UNL     1      39.805 -14.538  -0.521  1.00  0.00     0.133 C 
HETATM   16  N   UNL     1      38.525 -14.414  -0.570  1.00  0.00    -0.283 NA
HETATM   17  H   UNL     1      38.119 -14.933   0.226  1.00  0.00     0.188 HD
BRANCH  15  18
HETATM   18  C   UNL     1      40.627 -13.891  -1.540  1.00  0.00     0.016 A 
HETATM   19  C   UNL     1      41.935 -13.500  -1.298  1.00  0.00     0.065 A 
HETATM   20  S   UNL     1      42.686 -12.760  -2.642  1.00  0.00    -0.113 SA
HETATM   21  C   UNL     1      41.283 -12.952  -3.594  1.00  0.00     0.050 A 
HETATM   22  C   UNL     1      40.264 -13.565  -2.896  1.00  0.00     0.023 A 
ENDBRANCH  15  18
ENDBRANCH   1  15
TORSDOF 3
ENDMDL
MODEL 9
REMARK VINA RESULT:      -7.0      2.170      3.205
REMARK  3 active torsions:
REMARK  status: ('A' for Active; 'I' for Inactive)
REMARK    1  A    between atoms: C_3  and  N_4 
REMARK    2  A    between atoms: C_3  and  C_17 
REMARK       I    between atoms: N_4  and  C_5 
REMARK    3  A    between atoms: C_5  and  C_6 
ROOT
HETATM    1  N   UNL     1      40.438 -15.907   2.482  1.00  0.00    -0.306 N 
HETATM    2  C   UNL     1      41.333 -16.447   1.575  1.00  0.00     0.275 C 
HETATM    3  O   UNL     1      41.402 -16.141   0.390  1.00  0.00    -0.266 OA
HETATM    4  H   UNL     1      40.529 -16.280   3.421  1.00  0.00     0.170 HD
ENDROOT
BRANCH   2   5
HETATM    5  C   UNL     1      42.236 -17.474   2.181  1.00  0.00     0.125 A 
HETATM    6  N   UNL     1      42.150 -17.598   3.537  1.00  0.00    -0.243 NA
HETATM    7  C   UNL     1      42.952 -18.504   4.123  1.00  0.00     0.068 A 
HETATM    8  C   UNL     1      43.856 -19.308   3.391  1.00  0.00    -0.007 A 
HETATM    9  C   UNL     1      42.902 -18.666   5.502  1.00  0.00     0.032 A 
HETATM   10  C   UNL     1      43.909 -19.146   1.999  1.00  0.00     0.016 A 
HETATM   11  C   UNL     1      44.673 -20.239   4.053  1.00  0.00     0.014 A 
HETATM   12  C   UNL     1      43.087 -18.214   1.378  1.00  0.00     0.038 A 
HETATM   13  C   UNL     1      44.601 -20.379   5.437  1.00  0.00     0.001 A 
HETATM   14  C   UNL     1      43.715 -19.592   6.163  1.00  0.00     0.002 A 
ENDBRANCH   2   5
BRANCH   1  15
HETATM   15  C   UNL     1      39.518 -14.920   2.244  1.00  0.00     0.133 C 
HETATM   16  N   UNL     1      38.699 -14.951   1.252  1.00  0.00    -0.283 NA
HETATM   17  H   UNL     1      38.869 -15.819   0.719  1.00  0.00     0.188 HD
BRANCH  15  18
HETATM   18  C   UNL     1      39.484 -13.787   3.166  1.00  0.00     0.016 A 
HETATM   19  C   UNL     1      39.020 -12.537   2.785  1.00  0.00     0.065 A 
HETATM   20  S   UNL     1      39.086 -11.375   4.035  1.00  0.00    -0.113 SA
HETATM   21  C   UNL     1      39.729 -12.516   5.129  1.00  0.00     0.050 A 
HETATM   22  C   UNL     1      39.892 -13.755   4.547  1.00  0.00     0.023 A 
ENDBRANCH  15  18
ENDBRANCH   1  15
TORSDOF 3
ENDMDL
MODEL 10
REMARK VINA RESULT:      -7.0      4.343      5.918
REMARK  3 active torsions:
REMARK  status: ('A' for Active; 'I' for Inactive)
REMARK    1  A    between atoms: C_3  and  N_4 
REMARK    2  A    between atoms: C_3  and  C_17 
REMARK       I    between atoms: N_4  and  C_5 
REMARK    3  A    between atoms: C_5  and  C_6 
ROOT
HETATM    1  N   UNL     1      41.403 -15.615  -1.497  1.00  0.00    -0.306 N 
HETATM    2  C   UNL     1      41.616 -14.957  -0.298  1.00  0.00     0.275 C 
HETATM    3  O   UNL     1      41.622 -13.739  -0.157  1.00  0.00    -0.266 OA
HETATM    4  H   UNL     1      41.431 -16.625  -1.421  1.00  0.00     0.170 HD
ENDROOT
BRANCH   2   5
HETATM    5  C   UNL     1      41.852 -15.886   0.849  1.00  0.00     0.125 A 
HETATM    6  N   UNL     1      42.376 -15.309   1.970  1.00  0.00    -0.243 NA
HETATM    7  C   UNL     1      42.611 -16.111   3.022  1.00  0.00     0.068 A 
HETATM    8  C   UNL     1      42.337 -17.498   2.997  1.00  0.00    -0.007 A 
HETATM    9  C   UNL     1      43.145 -15.570   4.184  1.00  0.00     0.032 A 
HETATM   10  C   UNL     1      41.798 -18.048   1.825  1.00  0.00     0.016 A 
HETATM   11  C   UNL     1      42.603 -18.293   4.125  1.00  0.00     0.014 A 
HETATM   12  C   UNL     1      41.550 -17.231   0.729  1.00  0.00     0.038 A 
HETATM   13  C   UNL     1      43.140 -17.722   5.277  1.00  0.00     0.001 A 
HETATM   14  C   UNL     1      43.411 -16.359   5.308  1.00  0.00     0.002 A 
ENDBRANCH   2   5
BRANCH   1  15
HETATM   15  C   UNL     1      41.118 -15.046  -2.710  1.00  0.00     0.133 C 
HETATM   16  N   UNL     1      42.019 -14.794  -3.595  1.00  0.00    -0.283 NA
HETATM   17  H   UNL     1      42.932 -15.099  -3.221  1.00  0.00     0.188 HD
BRANCH  15  18
HETATM   18  C   UNL     1      39.725 -14.710  -2.992  1.00  0.00     0.016 A 
HETATM   19  C   UNL     1      38.892 -15.553  -3.712  1.00  0.00     0.065 A 
HETATM   20  S   UNL     1      37.311 -14.938  -3.916  1.00  0.00    -0.113 SA
HETATM   21  C   UNL     1      37.692 -13.528  -3.035  1.00  0.00     0.050 A 
HETATM   22  C   UNL     1      39.000 -13.528  -2.600  1.00  0.00     0.023 A 
ENDBRANCH  15  18
ENDBRANCH   1  15
TORSDOF 3
ENDMDL
