MODEL 1
REMARK VINA RESULT:      -8.0      0.000      0.000
REMARK  8 active torsions:
REMARK  status: ('A' for Active; 'I' for Inactive)
REMARK    1  A    between atoms: O_2  and  C_3 
REMARK    2  A    between atoms: C_4  and  O_5 
REMARK    3  A    between atoms: C_8  and  C_9 
REMARK    4  A    between atoms: C_9  and  C_10 
REMARK    5  A    between atoms: C_10  and  N_11 
REMARK       I    between atoms: N_11  and  C_12 
REMARK    6  A    between atoms: C_12  and  C_13 
REMARK    7  A    between atoms: C_14  and  N_15 
REMARK       I    between atoms: N_15  and  C_16 
REMARK    8  A    between atoms: C_16  and  C_17 
ROOT
HETATM    1  C   UNL     1      44.085 -20.078   3.893  1.00  0.00     0.058 A 
HETATM    2  C   UNL     1      43.417 -19.753   2.697  1.00  0.00     0.050 A 
HETATM    3  C   UNL     1      43.482 -20.662   1.625  1.00  0.00     0.030 A 
HETATM    4  C   UNL     1      44.116 -21.900   1.761  1.00  0.00     0.002 A 
HETATM    5  C   UNL     1      44.708 -22.246   2.968  1.00  0.00     0.001 A 
HETATM    6  C   UNL     1      44.702 -21.337   4.024  1.00  0.00     0.019 A 
ENDROOT
BRANCH   1   7
HETATM    7  C   UNL     1      44.356 -19.142   5.019  1.00  0.00     0.253 C 
HETATM    8  N   UNL     1      43.998 -19.596   6.274  1.00  0.00    -0.356 N 
HETATM    9  H   UNL     1      43.708 -20.559   6.375  1.00  0.00     0.162 HD
HETATM   10  O   UNL     1      44.762 -18.007   4.797  1.00  0.00    -0.268 OA
BRANCH   8  11
HETATM   11  C   UNL     1      44.323 -18.834   7.462  1.00  0.00     0.127 C 
BRANCH  11  12
HETATM   12  C   UNL     1      43.141 -18.014   7.987  1.00  0.00     0.058 C 
BRANCH  12  13
HETATM   13  C   UNL     1      43.027 -16.693   7.265  1.00  0.00    -0.054 A 
HETATM   14  C   UNL     1      44.056 -15.742   7.345  1.00  0.00     0.046 A 
HETATM   15  C   UNL     1      43.971 -14.535   6.639  1.00  0.00     0.102 A 
HETATM   16  C   UNL     1      42.845 -14.284   5.837  1.00  0.00     0.101 A 
HETATM   17  C   UNL     1      41.807 -15.220   5.774  1.00  0.00     0.040 A 
HETATM   18  C   UNL     1      41.903 -16.421   6.477  1.00  0.00     0.010 A 
BRANCH  15  19
HETATM   19  O   UNL     1      44.931 -13.554   6.654  1.00  0.00    -0.353 OA
HETATM   20  C   UNL     1      45.325 -13.040   7.917  1.00  0.00     0.210 C 
ENDBRANCH  15  19
BRANCH  16  21
HETATM   21  O   UNL     1      42.800 -13.080   5.176  1.00  0.00    -0.353 OA
HETATM   22  C   UNL     1      41.701 -12.246   5.526  1.00  0.00     0.210 C 
ENDBRANCH  16  21
ENDBRANCH  12  13
ENDBRANCH  11  12
ENDBRANCH   8  11
ENDBRANCH   1   7
BRANCH   2  23
HETATM   23  N   UNL     1      42.641 -18.596   2.443  1.00  0.00    -0.320 N 
HETATM   24  C   UNL     1      43.097 -17.404   1.909  1.00  0.00     0.280 C 
HETATM   25  O   UNL     1      44.224 -17.171   1.497  1.00  0.00    -0.265 OA
HETATM   26  H   UNL     1      41.771 -18.501   2.959  1.00  0.00     0.169 HD
BRANCH  24  27
HETATM   27  C   UNL     1      42.031 -16.333   1.963  1.00  0.00     0.143 C 
HETATM   28  O   UNL     1      40.729 -16.756   2.192  1.00  0.00    -0.345 OA
HETATM   29  C   UNL     1      39.705 -15.775   1.988  1.00  0.00     0.186 C 
HETATM   30  C   UNL     1      39.980 -14.470   2.715  1.00  0.00     0.105 C 
HETATM   31  S   UNL     1      41.410 -13.677   1.934  1.00  0.00    -0.136 SA
HETATM   32  C   UNL     1      42.446 -15.061   1.818  1.00  0.00     0.087 C 
ENDBRANCH  24  27
ENDBRANCH   2  23
TORSDOF 8
ENDMDL
MODEL 2
REMARK VINA RESULT:      -7.5      3.197      6.526
REMARK  8 active torsions:
REMARK  status: ('A' for Active; 'I' for Inactive)
REMARK    1  A    between atoms: O_2  and  C_3 
REMARK    2  A    between atoms: C_4  and  O_5 
REMARK    3  A    between atoms: C_8  and  C_9 
REMARK    4  A    between atoms: C_9  and  C_10 
REMARK    5  A    between atoms: C_10  and  N_11 
REMARK       I    between atoms: N_11  and  C_12 
REMARK    6  A    between atoms: C_12  and  C_13 
REMARK    7  A    between atoms: C_14  and  N_15 
REMARK       I    between atoms: N_15  and  C_16 
REMARK    8  A    between atoms: C_16  and  C_17 
ROOT
HETATM    1  C   UNL     1      43.824 -19.020   2.858  1.00  0.00     0.058 A 
HETATM    2  C   UNL     1      43.771 -18.647   4.215  1.00  0.00     0.050 A 
HETATM    3  C   UNL     1      44.183 -19.582   5.182  1.00  0.00     0.030 A 
HETATM    4  C   UNL     1      44.717 -20.820   4.815  1.00  0.00     0.002 A 
HETATM    5  C   UNL     1      44.837 -21.152   3.472  1.00  0.00     0.001 A 
HETATM    6  C   UNL     1      44.384 -20.262   2.500  1.00  0.00     0.019 A 
ENDROOT
BRANCH   1   7
HETATM    7  C   UNL     1      43.188 -18.287   1.729  1.00  0.00     0.253 C 
HETATM    8  N   UNL     1      41.818 -18.133   1.811  1.00  0.00    -0.356 N 
HETATM    9  H   UNL     1      41.352 -18.397   2.668  1.00  0.00     0.162 HD
HETATM   10  O   UNL     1      43.852 -17.957   0.753  1.00  0.00    -0.268 OA
BRANCH   8  11
HETATM   11  C   UNL     1      41.098 -17.332   0.842  1.00  0.00     0.127 C 
BRANCH  11  12
HETATM   12  C   UNL     1      41.248 -15.827   1.084  1.00  0.00     0.058 C 
BRANCH  12  13
HETATM   13  C   UNL     1      41.318 -15.067  -0.219  1.00  0.00    -0.054 A 
HETATM   14  C   UNL     1      40.946 -15.680  -1.426  1.00  0.00     0.046 A 
HETATM   15  C   UNL     1      40.968 -14.962  -2.628  1.00  0.00     0.102 A 
HETATM   16  C   UNL     1      41.358 -13.611  -2.618  1.00  0.00     0.101 A 
HETATM   17  C   UNL     1      41.751 -13.006  -1.420  1.00  0.00     0.040 A 
HETATM   18  C   UNL     1      41.722 -13.728  -0.227  1.00  0.00     0.010 A 
BRANCH  15  19
HETATM   19  O   UNL     1      40.615 -15.477  -3.851  1.00  0.00    -0.353 OA
HETATM   20  C   UNL     1      39.288 -15.961  -4.002  1.00  0.00     0.210 C 
ENDBRANCH  15  19
BRANCH  16  21
HETATM   21  O   UNL     1      41.377 -12.954  -3.825  1.00  0.00    -0.353 OA
HETATM   22  C   UNL     1      42.229 -11.815  -3.872  1.00  0.00     0.210 C 
ENDBRANCH  16  21
ENDBRANCH  12  13
ENDBRANCH  11  12
ENDBRANCH   8  11
ENDBRANCH   1   7
BRANCH   2  23
HETATM   23  N   UNL     1      43.365 -17.396   4.738  1.00  0.00    -0.320 N 
HETATM   24  C   UNL     1      42.066 -17.001   5.003  1.00  0.00     0.280 C 
HETATM   25  O   UNL     1      41.059 -17.687   4.904  1.00  0.00    -0.265 OA
HETATM   26  H   UNL     1      44.009 -16.618   4.628  1.00  0.00     0.169 HD
BRANCH  24  27
HETATM   27  C   UNL     1      42.000 -15.536   5.369  1.00  0.00     0.143 C 
HETATM   28  O   UNL     1      43.209 -14.867   5.496  1.00  0.00    -0.345 OA
HETATM   29  C   UNL     1      43.146 -13.563   6.087  1.00  0.00     0.186 C 
HETATM   30  C   UNL     1      42.103 -12.668   5.439  1.00  0.00     0.105 C 
HETATM   31  S   UNL     1      40.463 -13.331   5.835  1.00  0.00    -0.136 SA
HETATM   32  C   UNL     1      40.771 -15.003   5.506  1.00  0.00     0.087 C 
ENDBRANCH  24  27
ENDBRANCH   2  23
TORSDOF 8
ENDMDL
MODEL 3
REMARK VINA RESULT:      -7.3      2.680      5.925
REMARK  8 active torsions:
REMARK  status: ('A' for Active; 'I' for Inactive)
REMARK    1  A    between atoms: O_2  and  C_3 
REMARK    2  A    between atoms: C_4  and  O_5 
REMARK    3  A    between atoms: C_8  and  C_9 
REMARK    4  A    between atoms: C_9  and  C_10 
REMARK    5  A    between atoms: C_10  and  N_11 
REMARK       I    between atoms: N_11  and  C_12 
REMARK    6  A    between atoms: C_12  and  C_13 
REMARK    7  A    between atoms: C_14  and  N_15 
REMARK       I    between atoms: N_15  and  C_16 
REMARK    8  A    between atoms: C_16  and  C_17 
ROOT
HETATM    1  C   UNL     1      43.875 -19.626   2.637  1.00  0.00     0.058 A 
HETATM    2  C   UNL     1      44.113 -19.448   4.013  1.00  0.00     0.050 A 
HETATM    3  C   UNL     1      44.482 -20.570   4.778  1.00  0.00     0.030 A 
HETATM    4  C   UNL     1      44.697 -21.817   4.184  1.00  0.00     0.002 A 
HETATM    5  C   UNL     1      44.533 -21.967   2.813  1.00  0.00     0.001 A 
HETATM    6  C   UNL     1      44.114 -20.881   2.046  1.00  0.00     0.019 A 
ENDROOT
BRANCH   1   7
HETATM    7  C   UNL     1      43.223 -18.638   1.734  1.00  0.00     0.253 C 
HETATM    8  N   UNL     1      41.857 -18.501   1.881  1.00  0.00    -0.356 N 
HETATM    9  H   UNL     1      41.406 -18.962   2.659  1.00  0.00     0.162 HD
HETATM   10  O   UNL     1      43.871 -18.086   0.851  1.00  0.00    -0.268 OA
BRANCH   8  11
HETATM   11  C   UNL     1      41.127 -17.485   1.150  1.00  0.00     0.127 C 
BRANCH  11  12
HETATM   12  C   UNL     1      40.538 -16.404   2.061  1.00  0.00     0.058 C 
BRANCH  12  13
HETATM   13  C   UNL     1      39.869 -15.315   1.256  1.00  0.00    -0.054 A 
HETATM   14  C   UNL     1      40.467 -14.818   0.087  1.00  0.00     0.046 A 
HETATM   15  C   UNL     1      39.827 -13.840  -0.684  1.00  0.00     0.102 A 
HETATM   16  C   UNL     1      38.568 -13.361  -0.282  1.00  0.00     0.101 A 
HETATM   17  C   UNL     1      37.981 -13.838   0.895  1.00  0.00     0.040 A 
HETATM   18  C   UNL     1      38.625 -14.815   1.654  1.00  0.00     0.010 A 
BRANCH  15  19
HETATM   19  O   UNL     1      40.333 -13.305  -1.842  1.00  0.00    -0.353 OA
HETATM   20  C   UNL     1      40.428 -14.157  -2.973  1.00  0.00     0.210 C 
ENDBRANCH  15  19
BRANCH  16  21
HETATM   21  O   UNL     1      37.987 -12.391  -1.063  1.00  0.00    -0.353 OA
HETATM   22  C   UNL     1      36.879 -11.727  -0.466  1.00  0.00     0.210 C 
ENDBRANCH  16  21
ENDBRANCH  12  13
ENDBRANCH  11  12
ENDBRANCH   8  11
ENDBRANCH   1   7
BRANCH   2  23
HETATM   23  N   UNL     1      44.050 -18.234   4.739  1.00  0.00    -0.320 N 
HETATM   24  C   UNL     1      42.900 -17.581   5.145  1.00  0.00     0.280 C 
HETATM   25  O   UNL     1      41.750 -17.976   5.014  1.00  0.00    -0.265 OA
HETATM   26  H   UNL     1      44.866 -17.630   4.700  1.00  0.00     0.169 HD
BRANCH  24  27
HETATM   27  C   UNL     1      43.215 -16.220   5.723  1.00  0.00     0.143 C 
HETATM   28  O   UNL     1      44.268 -16.152   6.624  1.00  0.00    -0.345 OA
HETATM   29  C   UNL     1      44.392 -14.924   7.352  1.00  0.00     0.186 C 
HETATM   30  C   UNL     1      44.372 -13.697   6.455  1.00  0.00     0.105 C 
HETATM   31  S   UNL     1      42.711 -13.540   5.748  1.00  0.00    -0.136 SA
HETATM   32  C   UNL     1      42.466 -15.191   5.286  1.00  0.00     0.087 C 
ENDBRANCH  24  27
ENDBRANCH   2  23
TORSDOF 8
ENDMDL
MODEL 4
REMARK VINA RESULT:      -7.3      3.202      7.219
REMARK  8 active torsions:
REMARK  status: ('A' for Active; 'I' for Inactive)
REMARK    1  A    between atoms: O_2  and  C_3 
REMARK    2  A    between atoms: C_4  and  O_5 
REMARK    3  A    between atoms: C_8  and  C_9 
REMARK    4  A    between atoms: C_9  and  C_10 
REMARK    5  A    between atoms: C_10  and  N_11 
REMARK       I    between atoms: N_11  and  C_12 
REMARK    6  A    between atoms: C_12  and  C_13 
REMARK    7  A    between atoms: C_14  and  N_15 
REMARK       I    between atoms: N_15  and  C_16 
REMARK    8  A    between atoms: C_16  and  C_17 
ROOT
HETATM    1  C   UNL     1      41.732 -13.116  -1.011  1.00  0.00     0.058 A 
HETATM    2  C   UNL     1      41.877 -12.155   0.008  1.00  0.00     0.050 A 
HETATM    3  C   UNL     1      42.580 -10.972  -0.285  1.00  0.00     0.030 A 
HETATM    4  C   UNL     1      43.051 -10.706  -1.573  1.00  0.00     0.002 A 
HETATM    5  C   UNL     1      42.839 -11.626  -2.591  1.00  0.00     0.001 A 
HETATM    6  C   UNL     1      42.193 -12.828  -2.310  1.00  0.00     0.019 A 
ENDROOT
BRANCH   1   7
HETATM    7  C   UNL     1      41.269 -14.519  -0.822  1.00  0.00     0.253 C 
HETATM    8  N   UNL     1      42.103 -15.331  -0.078  1.00  0.00    -0.356 N 
HETATM    9  H   UNL     1      42.889 -14.909   0.397  1.00  0.00     0.162 HD
HETATM   10  O   UNL     1      40.266 -14.923  -1.401  1.00  0.00    -0.268 OA
BRANCH   8  11
HETATM   11  C   UNL     1      41.707 -16.677   0.281  1.00  0.00     0.127 C 
BRANCH  11  12
HETATM   12  C   UNL     1      41.131 -16.770   1.697  1.00  0.00     0.058 C 
BRANCH  12  13
HETATM   13  C   UNL     1      42.000 -17.628   2.586  1.00  0.00    -0.054 A 
HETATM   14  C   UNL     1      42.862 -18.587   2.034  1.00  0.00     0.046 A 
HETATM   15  C   UNL     1      43.701 -19.351   2.855  1.00  0.00     0.102 A 
HETATM   16  C   UNL     1      43.680 -19.144   4.245  1.00  0.00     0.101 A 
HETATM   17  C   UNL     1      42.804 -18.205   4.799  1.00  0.00     0.040 A 
HETATM   18  C   UNL     1      41.976 -17.446   3.973  1.00  0.00     0.010 A 
BRANCH  15  19
HETATM   19  O   UNL     1      44.579 -20.305   2.401  1.00  0.00    -0.353 OA
HETATM   20  C   UNL     1      44.039 -21.547   1.977  1.00  0.00     0.210 C 
ENDBRANCH  15  19
BRANCH  16  21
HETATM   21  O   UNL     1      44.510 -19.929   5.010  1.00  0.00    -0.353 OA
HETATM   22  C   UNL     1      44.002 -20.259   6.297  1.00  0.00     0.210 C 
ENDBRANCH  16  21
ENDBRANCH  12  13
ENDBRANCH  11  12
ENDBRANCH   8  11
ENDBRANCH   1   7
BRANCH   2  23
HETATM   23  N   UNL     1      41.361 -12.226   1.324  1.00  0.00    -0.320 N 
HETATM   24  C   UNL     1      41.930 -12.896   2.392  1.00  0.00     0.280 C 
HETATM   25  O   UNL     1      43.007 -13.475   2.402  1.00  0.00    -0.265 OA
HETATM   26  H   UNL     1      40.368 -12.047   1.441  1.00  0.00     0.169 HD
BRANCH  24  27
HETATM   27  C   UNL     1      41.003 -12.914   3.587  1.00  0.00     0.143 C 
HETATM   28  O   UNL     1      40.940 -14.095   4.312  1.00  0.00    -0.345 OA
HETATM   29  C   UNL     1      39.882 -14.184   5.274  1.00  0.00     0.186 C 
HETATM   30  C   UNL     1      39.819 -12.982   6.201  1.00  0.00     0.105 C 
HETATM   31  S   UNL     1      39.309 -11.542   5.226  1.00  0.00    -0.136 SA
HETATM   32  C   UNL     1      40.349 -11.769   3.860  1.00  0.00     0.087 C 
ENDBRANCH  24  27
ENDBRANCH   2  23
TORSDOF 8
ENDMDL
MODEL 5
REMARK VINA RESULT:      -7.3      2.119      4.866
REMARK  8 active torsions:
REMARK  status: ('A' for Active; 'I' for Inactive)
REMARK    1  A    between atoms: O_2  and  C_3 
REMARK    2  A    between atoms: C_4  and  O_5 
REMARK    3  A    between atoms: C_8  and  C_9 
REMARK    4  A    between atoms: C_9  and  C_10 
REMARK    5  A    between atoms: C_10  and  N_11 
REMARK       I    between atoms: N_11  and  C_12 
REMARK    6  A    between atoms: C_12  and  C_13 
REMARK    7  A    between atoms: C_14  and  N_15 
REMARK       I    between atoms: N_15  and  C_16 
REMARK    8  A    between atoms: C_16  and  C_17 
ROOT
HETATM    1  C   UNL     1      43.848 -19.607   2.473  1.00  0.00     0.058 A 
HETATM    2  C   UNL     1      44.113 -19.463   3.848  1.00  0.00     0.050 A 
HETATM    3  C   UNL     1      44.497 -20.602   4.578  1.00  0.00     0.030 A 
HETATM    4  C   UNL     1      44.702 -21.833   3.949  1.00  0.00     0.002 A 
HETATM    5  C   UNL     1      44.511 -21.951   2.579  1.00  0.00     0.001 A 
HETATM    6  C   UNL     1      44.077 -20.847   1.846  1.00  0.00     0.019 A 
ENDROOT
BRANCH   1   7
HETATM    7  C   UNL     1      43.177 -18.598   1.606  1.00  0.00     0.253 C 
HETATM    8  N   UNL     1      41.812 -18.478   1.772  1.00  0.00    -0.356 N 
HETATM    9  H   UNL     1      41.374 -18.965   2.542  1.00  0.00     0.162 HD
HETATM   10  O   UNL     1      43.810 -18.015   0.733  1.00  0.00    -0.268 OA
BRANCH   8  11
HETATM   11  C   UNL     1      41.065 -17.448   1.080  1.00  0.00     0.127 C 
BRANCH  11  12
HETATM   12  C   UNL     1      40.102 -16.690   2.000  1.00  0.00     0.058 C 
BRANCH  12  13
HETATM   13  C   UNL     1      40.397 -15.209   2.000  1.00  0.00    -0.054 A 
HETATM   14  C   UNL     1      39.490 -14.298   2.563  1.00  0.00     0.046 A 
HETATM   15  C   UNL     1      39.783 -12.929   2.605  1.00  0.00     0.102 A 
HETATM   16  C   UNL     1      41.005 -12.470   2.083  1.00  0.00     0.101 A 
HETATM   17  C   UNL     1      41.900 -13.373   1.500  1.00  0.00     0.040 A 
HETATM   18  C   UNL     1      41.601 -14.735   1.468  1.00  0.00     0.010 A 
BRANCH  15  19
HETATM   19  O   UNL     1      38.959 -11.971   3.141  1.00  0.00    -0.353 OA
HETATM   20  C   UNL     1      38.957 -11.823   4.553  1.00  0.00     0.210 C 
ENDBRANCH  15  19
BRANCH  16  21
HETATM   21  O   UNL     1      41.240 -11.117   2.132  1.00  0.00    -0.353 OA
HETATM   22  C   UNL     1      41.339 -10.481   0.864  1.00  0.00     0.210 C 
ENDBRANCH  16  21
ENDBRANCH  12  13
ENDBRANCH  11  12
ENDBRANCH   8  11
ENDBRANCH   1   7
BRANCH   2  23
HETATM   23  N   UNL     1      44.062 -18.266   4.604  1.00  0.00    -0.320 N 
HETATM   24  C   UNL     1      42.919 -17.610   5.023  1.00  0.00     0.280 C 
HETATM   25  O   UNL     1      41.764 -17.987   4.880  1.00  0.00    -0.265 OA
HETATM   26  H   UNL     1      44.885 -17.672   4.582  1.00  0.00     0.169 HD
BRANCH  24  27
HETATM   27  C   UNL     1      43.248 -16.268   5.636  1.00  0.00     0.143 C 
HETATM   28  O   UNL     1      44.257 -16.246   6.589  1.00  0.00    -0.345 OA
HETATM   29  C   UNL     1      44.384 -15.033   7.341  1.00  0.00     0.186 C 
HETATM   30  C   UNL     1      44.449 -13.795   6.462  1.00  0.00     0.105 C 
HETATM   31  S   UNL     1      42.831 -13.573   5.676  1.00  0.00    -0.136 SA
HETATM   32  C   UNL     1      42.556 -15.208   5.178  1.00  0.00     0.087 C 
ENDBRANCH  24  27
ENDBRANCH   2  23
TORSDOF 8
ENDMDL
MODEL 6
REMARK VINA RESULT:      -7.2      3.216      7.972
REMARK  8 active torsions:
REMARK  status: ('A' for Active; 'I' for Inactive)
REMARK    1  A    between atoms: O_2  and  C_3 
REMARK    2  A    between atoms: C_4  and  O_5 
REMARK    3  A    between atoms: C_8  and  C_9 
REMARK    4  A    between atoms: C_9  and  C_10 
REMARK    5  A    between atoms: C_10  and  N_11 
REMARK       I    between atoms: N_11  and  C_12 
REMARK    6  A    between atoms: C_12  and  C_13 
REMARK    7  A    between atoms: C_14  and  N_15 
REMARK       I    between atoms: N_15  and  C_16 
REMARK    8  A    between atoms: C_16  and  C_17 
ROOT
HETATM    1  C   UNL     1      44.532 -11.831   9.037  1.00  0.00     0.058 A 
HETATM    2  C   UNL     1      43.243 -11.266   9.023  1.00  0.00     0.050 A 
HETATM    3  C   UNL     1      42.828 -10.519  10.140  1.00  0.00     0.030 A 
HETATM    4  C   UNL     1      43.695 -10.261  11.205  1.00  0.00     0.002 A 
HETATM    5  C   UNL     1      44.991 -10.759  11.178  1.00  0.00     0.001 A 
HETATM    6  C   UNL     1      45.404 -11.547  10.106  1.00  0.00     0.019 A 
ENDROOT
BRANCH   1   7
HETATM    7  C   UNL     1      45.041 -12.861   8.089  1.00  0.00     0.253 C 
HETATM    8  N   UNL     1      44.198 -13.930   7.857  1.00  0.00    -0.356 N 
HETATM    9  H   UNL     1      43.257 -13.891   8.223  1.00  0.00     0.162 HD
HETATM   10  O   UNL     1      46.184 -12.789   7.653  1.00  0.00    -0.268 OA
BRANCH   8  11
HETATM   11  C   UNL     1      44.522 -14.932   6.862  1.00  0.00     0.127 C 
BRANCH  11  12
HETATM   12  C   UNL     1      44.036 -16.332   7.247  1.00  0.00     0.058 C 
BRANCH  12  13
HETATM   13  C   UNL     1      44.003 -17.250   6.048  1.00  0.00    -0.054 A 
HETATM   14  C   UNL     1      43.345 -16.864   4.870  1.00  0.00     0.046 A 
HETATM   15  C   UNL     1      43.353 -17.695   3.742  1.00  0.00     0.102 A 
HETATM   16  C   UNL     1      44.035 -18.923   3.795  1.00  0.00     0.101 A 
HETATM   17  C   UNL     1      44.672 -19.319   4.976  1.00  0.00     0.040 A 
HETATM   18  C   UNL     1      44.663 -18.483   6.092  1.00  0.00     0.010 A 
BRANCH  15  19
HETATM   19  O   UNL     1      42.743 -17.396   2.549  1.00  0.00    -0.353 OA
HETATM   20  C   UNL     1      41.352 -17.114   2.575  1.00  0.00     0.210 C 
ENDBRANCH  15  19
BRANCH  16  21
HETATM   21  O   UNL     1      44.001 -19.709   2.669  1.00  0.00    -0.353 OA
HETATM   22  C   UNL     1      44.623 -20.981   2.808  1.00  0.00     0.210 C 
ENDBRANCH  16  21
ENDBRANCH  12  13
ENDBRANCH  11  12
ENDBRANCH   8  11
ENDBRANCH   1   7
BRANCH   2  23
HETATM   23  N   UNL     1      42.293 -11.340   7.976  1.00  0.00    -0.320 N 
HETATM   24  C   UNL     1      41.763 -10.273   7.273  1.00  0.00     0.280 C 
HETATM   25  O   UNL     1      42.077  -9.096   7.383  1.00  0.00    -0.265 OA
HETATM   26  H   UNL     1      41.722 -12.179   7.929  1.00  0.00     0.169 HD
BRANCH  24  27
HETATM   27  C   UNL     1      40.638 -10.716   6.365  1.00  0.00     0.143 C 
HETATM   28  O   UNL     1      40.119  -9.763   5.501  1.00  0.00    -0.345 OA
HETATM   29  C   UNL     1      38.899 -10.116   4.837  1.00  0.00     0.186 C 
HETATM   30  C   UNL     1      38.963 -11.475   4.161  1.00  0.00     0.105 C 
HETATM   31  S   UNL     1      39.060 -12.744   5.451  1.00  0.00    -0.136 SA
HETATM   32  C   UNL     1      40.263 -12.006   6.454  1.00  0.00     0.087 C 
ENDBRANCH  24  27
ENDBRANCH   2  23
TORSDOF 8
ENDMDL
MODEL 7
REMARK VINA RESULT:      -7.2      3.574      8.155
REMARK  8 active torsions:
REMARK  status: ('A' for Active; 'I' for Inactive)
REMARK    1  A    between atoms: O_2  and  C_3 
REMARK    2  A    between atoms: C_4  and  O_5 
REMARK    3  A    between atoms: C_8  and  C_9 
REMARK    4  A    between atoms: C_9  and  C_10 
REMARK    5  A    between atoms: C_10  and  N_11 
REMARK       I    between atoms: N_11  and  C_12 
REMARK    6  A    between atoms: C_12  and  C_13 
REMARK    7  A    between atoms: C_14  and  N_15 
REMARK       I    between atoms: N_15  and  C_16 
REMARK    8  A    between atoms: C_16  and  C_17 
ROOT
HETATM    1  C   UNL     1      41.327 -13.006   5.250  1.00  0.00     0.058 A 
HETATM    2  C   UNL     1      40.855 -12.034   6.153  1.00  0.00     0.050 A 
HETATM    3  C   UNL     1      39.723 -11.281   5.794  1.00  0.00     0.030 A 
HETATM    4  C   UNL     1      39.022 -11.541   4.613  1.00  0.00     0.002 A 
HETATM    5  C   UNL     1      39.449 -12.551   3.762  1.00  0.00     0.001 A 
HETATM    6  C   UNL     1      40.600 -13.273   4.073  1.00  0.00     0.019 A 
ENDROOT
BRANCH   1   7
HETATM    7  C   UNL     1      42.643 -13.698   5.327  1.00  0.00     0.253 C 
HETATM    8  N   UNL     1      42.767 -14.639   6.331  1.00  0.00    -0.356 N 
HETATM    9  H   UNL     1      41.942 -14.898   6.855  1.00  0.00     0.162 HD
HETATM   10  O   UNL     1      43.570 -13.348   4.606  1.00  0.00    -0.268 OA
BRANCH   8  11
HETATM   11  C   UNL     1      43.950 -15.469   6.433  1.00  0.00     0.127 C 
BRANCH  11  12
HETATM   12  C   UNL     1      43.628 -16.927   6.770  1.00  0.00     0.058 C 
BRANCH  12  13
HETATM   13  C   UNL     1      43.905 -17.835   5.596  1.00  0.00    -0.054 A 
HETATM   14  C   UNL     1      44.617 -19.033   5.768  1.00  0.00     0.046 A 
HETATM   15  C   UNL     1      44.835 -19.897   4.688  1.00  0.00     0.102 A 
HETATM   16  C   UNL     1      44.325 -19.560   3.422  1.00  0.00     0.101 A 
HETATM   17  C   UNL     1      43.636 -18.356   3.243  1.00  0.00     0.040 A 
HETATM   18  C   UNL     1      43.420 -17.504   4.326  1.00  0.00     0.010 A 
BRANCH  15  19
HETATM   19  O   UNL     1      45.512 -21.089   4.767  1.00  0.00    -0.353 OA
HETATM   20  C   UNL     1      44.818 -22.204   5.305  1.00  0.00     0.210 C 
ENDBRANCH  15  19
BRANCH  16  21
HETATM   21  O   UNL     1      44.578 -20.433   2.391  1.00  0.00    -0.353 OA
HETATM   22  C   UNL     1      43.425 -21.059   1.841  1.00  0.00     0.210 C 
ENDBRANCH  16  21
ENDBRANCH  12  13
ENDBRANCH  11  12
ENDBRANCH   8  11
ENDBRANCH   1   7
BRANCH   2  23
HETATM   23  N   UNL     1      41.384 -11.732   7.431  1.00  0.00    -0.320 N 
HETATM   24  C   UNL     1      41.941 -10.529   7.824  1.00  0.00     0.280 C 
HETATM   25  O   UNL     1      42.003  -9.502   7.164  1.00  0.00    -0.265 OA
HETATM   26  H   UNL     1      41.667 -12.517   8.011  1.00  0.00     0.169 HD
BRANCH  24  27
HETATM   27  C   UNL     1      42.573 -10.636   9.194  1.00  0.00     0.143 C 
HETATM   28  O   UNL     1      43.957 -10.559   9.252  1.00  0.00    -0.345 OA
HETATM   29  C   UNL     1      44.554 -10.914  10.505  1.00  0.00     0.186 C 
HETATM   30  C   UNL     1      43.926 -10.195  11.686  1.00  0.00     0.105 C 
HETATM   31  S   UNL     1      42.236 -10.814  11.894  1.00  0.00    -0.136 SA
HETATM   32  C   UNL     1      41.733 -10.763  10.238  1.00  0.00     0.087 C 
ENDBRANCH  24  27
ENDBRANCH   2  23
TORSDOF 8
ENDMDL
MODEL 8
REMARK VINA RESULT:      -7.2      1.506      2.307
REMARK  8 active torsions:
REMARK  status: ('A' for Active; 'I' for Inactive)
REMARK    1  A    between atoms: O_2  and  C_3 
REMARK    2  A    between atoms: C_4  and  O_5 
REMARK    3  A    between atoms: C_8  and  C_9 
REMARK    4  A    between atoms: C_9  and  C_10 
REMARK    5  A    between atoms: C_10  and  N_11 
REMARK       I    between atoms: N_11  and  C_12 
REMARK    6  A    between atoms: C_12  and  C_13 
REMARK    7  A    between atoms: C_14  and  N_15 
REMARK       I    between atoms: N_15  and  C_16 
REMARK    8  A    between atoms: C_16  and  C_17 
ROOT
HETATM    1  C   UNL     1      44.311 -20.220   4.102  1.00  0.00     0.058 A 
HETATM    2  C   UNL     1      43.818 -19.917   2.818  1.00  0.00     0.050 A 
HETATM    3  C   UNL     1      43.883 -20.912   1.825  1.00  0.00     0.030 A 
HETATM    4  C   UNL     1      44.339 -22.200   2.116  1.00  0.00     0.002 A 
HETATM    5  C   UNL     1      44.754 -22.514   3.403  1.00  0.00     0.001 A 
HETATM    6  C   UNL     1      44.749 -21.528   4.388  1.00  0.00     0.019 A 
ENDROOT
BRANCH   1   7
HETATM    7  C   UNL     1      44.577 -19.235   5.186  1.00  0.00     0.253 C 
HETATM    8  N   UNL     1      43.580 -19.103   6.133  1.00  0.00    -0.356 N 
HETATM    9  H   UNL     1      42.809 -19.756   6.118  1.00  0.00     0.162 HD
HETATM   10  O   UNL     1      45.573 -18.522   5.145  1.00  0.00    -0.268 OA
BRANCH   8  11
HETATM   11  C   UNL     1      43.769 -18.271   7.304  1.00  0.00     0.127 C 
BRANCH  11  12
HETATM   12  C   UNL     1      42.542 -17.416   7.633  1.00  0.00     0.058 C 
BRANCH  12  13
HETATM   13  C   UNL     1      42.407 -16.259   6.672  1.00  0.00    -0.054 A 
HETATM   14  C   UNL     1      41.148 -15.713   6.381  1.00  0.00     0.046 A 
HETATM   15  C   UNL     1      41.027 -14.611   5.525  1.00  0.00     0.102 A 
HETATM   16  C   UNL     1      42.184 -14.044   4.963  1.00  0.00     0.101 A 
HETATM   17  C   UNL     1      43.438 -14.601   5.234  1.00  0.00     0.040 A 
HETATM   18  C   UNL     1      43.549 -15.696   6.090  1.00  0.00     0.010 A 
BRANCH  15  19
HETATM   19  O   UNL     1      39.838 -14.009   5.191  1.00  0.00    -0.353 OA
HETATM   20  C   UNL     1      39.328 -13.026   6.078  1.00  0.00     0.210 C 
ENDBRANCH  15  19
BRANCH  16  21
HETATM   21  O   UNL     1      42.012 -12.974   4.118  1.00  0.00    -0.353 OA
HETATM   22  C   UNL     1      42.709 -13.071   2.881  1.00  0.00     0.210 C 
ENDBRANCH  16  21
ENDBRANCH  12  13
ENDBRANCH  11  12
ENDBRANCH   8  11
ENDBRANCH   1   7
BRANCH   2  23
HETATM   23  N   UNL     1      43.224 -18.702   2.400  1.00  0.00    -0.320 N 
HETATM   24  C   UNL     1      42.174 -18.048   3.020  1.00  0.00     0.280 C 
HETATM   25  O   UNL     1      41.633 -18.364   4.070  1.00  0.00    -0.265 OA
HETATM   26  H   UNL     1      43.346 -18.439   1.427  1.00  0.00     0.169 HD
BRANCH  24  27
HETATM   27  C   UNL     1      41.680 -16.888   2.185  1.00  0.00     0.143 C 
HETATM   28  O   UNL     1      42.459 -16.523   1.097  1.00  0.00    -0.345 OA
HETATM   29  C   UNL     1      42.122 -15.277   0.474  1.00  0.00     0.186 C 
HETATM   30  C   UNL     1      40.645 -15.162   0.138  1.00  0.00     0.105 C 
HETATM   31  S   UNL     1      39.718 -15.058   1.692  1.00  0.00    -0.136 SA
HETATM   32  C   UNL     1      40.509 -16.335   2.554  1.00  0.00     0.087 C 
ENDBRANCH  24  27
ENDBRANCH   2  23
TORSDOF 8
ENDMDL
MODEL 9
REMARK VINA RESULT:      -7.2      2.822      6.748
REMARK  8 active torsions:
REMARK  status: ('A' for Active; 'I' for Inactive)
REMARK    1  A    between atoms: O_2  and  C_3 
REMARK    2  A    between atoms: C_4  and  O_5 
REMARK    3  A    between atoms: C_8  and  C_9 
REMARK    4  A    between atoms: C_9  and  C_10 
REMARK    5  A    between atoms: C_10  and  N_11 
REMARK       I    between atoms: N_11  and  C_12 
REMARK    6  A    between atoms: C_12  and  C_13 
REMARK    7  A    between atoms: C_14  and  N_15 
REMARK       I    between atoms: N_15  and  C_16 
REMARK    8  A    between atoms: C_16  and  C_17 
ROOT
HETATM    1  C   UNL     1      40.360 -14.151   4.518  1.00  0.00     0.058 A 
HETATM    2  C   UNL     1      40.226 -13.106   3.584  1.00  0.00     0.050 A 
HETATM    3  C   UNL     1      39.627 -11.904   4.005  1.00  0.00     0.030 A 
HETATM    4  C   UNL     1      39.253 -11.707   5.337  1.00  0.00     0.002 A 
HETATM    5  C   UNL     1      39.457 -12.715   6.270  1.00  0.00     0.001 A 
HETATM    6  C   UNL     1      39.998 -13.933   5.862  1.00  0.00     0.019 A 
ENDROOT
BRANCH   1   7
HETATM    7  C   UNL     1      40.708 -15.563   4.200  1.00  0.00     0.253 C 
HETATM    8  N   UNL     1      40.374 -15.991   2.930  1.00  0.00    -0.356 N 
HETATM    9  H   UNL     1      40.047 -15.308   2.260  1.00  0.00     0.162 HD
HETATM   10  O   UNL     1      41.155 -16.302   5.070  1.00  0.00    -0.268 OA
BRANCH   8  11
HETATM   11  C   UNL     1      40.772 -17.301   2.456  1.00  0.00     0.127 C 
BRANCH  11  12
HETATM   12  C   UNL     1      42.171 -17.310   1.833  1.00  0.00     0.058 C 
BRANCH  12  13
HETATM   13  C   UNL     1      43.071 -18.307   2.521  1.00  0.00    -0.054 A 
HETATM   14  C   UNL     1      43.552 -18.063   3.817  1.00  0.00     0.046 A 
HETATM   15  C   UNL     1      44.350 -19.008   4.474  1.00  0.00     0.102 A 
HETATM   16  C   UNL     1      44.661 -20.216   3.826  1.00  0.00     0.101 A 
HETATM   17  C   UNL     1      44.202 -20.452   2.526  1.00  0.00     0.040 A 
HETATM   18  C   UNL     1      43.404 -19.506   1.882  1.00  0.00     0.010 A 
BRANCH  15  19
HETATM   19  O   UNL     1      44.857 -18.855   5.741  1.00  0.00    -0.353 OA
HETATM   20  C   UNL     1      43.933 -18.640   6.796  1.00  0.00     0.210 C 
ENDBRANCH  15  19
BRANCH  16  21
HETATM   21  O   UNL     1      45.460 -21.105   4.505  1.00  0.00    -0.353 OA
HETATM   22  C   UNL     1      44.768 -22.197   5.100  1.00  0.00     0.210 C 
ENDBRANCH  16  21
ENDBRANCH  12  13
ENDBRANCH  11  12
ENDBRANCH   8  11
ENDBRANCH   1   7
BRANCH   2  23
HETATM   23  N   UNL     1      40.657 -13.111   2.235  1.00  0.00    -0.320 N 
HETATM   24  C   UNL     1      41.968 -13.076   1.794  1.00  0.00     0.280 C 
HETATM   25  O   UNL     1      42.974 -13.112   2.487  1.00  0.00    -0.265 OA
HETATM   26  H   UNL     1      39.986 -12.807   1.535  1.00  0.00     0.169 HD
BRANCH  24  27
HETATM   27  C   UNL     1      42.039 -12.897   0.294  1.00  0.00     0.143 C 
HETATM   28  O   UNL     1      42.775 -11.817  -0.173  1.00  0.00    -0.345 OA
HETATM   29  C   UNL     1      42.625 -11.511  -1.564  1.00  0.00     0.186 C 
HETATM   30  C   UNL     1      42.818 -12.721  -2.463  1.00  0.00     0.105 C 
HETATM   31  S   UNL     1      41.435 -13.858  -2.186  1.00  0.00    -0.136 SA
HETATM   32  C   UNL     1      41.408 -13.821  -0.455  1.00  0.00     0.087 C 
ENDBRANCH  24  27
ENDBRANCH   2  23
TORSDOF 8
ENDMDL
MODEL 10
REMARK VINA RESULT:      -7.2      2.591      6.523
REMARK  8 active torsions:
REMARK  status: ('A' for Active; 'I' for Inactive)
REMARK    1  A    between atoms: O_2  and  C_3 
REMARK    2  A    between atoms: C_4  and  O_5 
REMARK    3  A    between atoms: C_8  and  C_9 
REMARK    4  A    between atoms: C_9  and  C_10 
REMARK    5  A    between atoms: C_10  and  N_11 
REMARK       I    between atoms: N_11  and  C_12 
REMARK    6  A    between atoms: C_12  and  C_13 
REMARK    7  A    between atoms: C_14  and  N_15 
REMARK       I    between atoms: N_15  and  C_16 
REMARK    8  A    between atoms: C_16  and  C_17 
ROOT
HETATM    1  C   UNL     1      40.435 -13.750   4.918  1.00  0.00     0.058 A 
HETATM    2  C   UNL     1      40.075 -13.148   3.697  1.00  0.00     0.050 A 
HETATM    3  C   UNL     1      39.344 -11.946   3.735  1.00  0.00     0.030 A 
HETATM    4  C   UNL     1      39.054 -11.310   4.945  1.00  0.00     0.002 A 
HETATM    5  C   UNL     1      39.478 -11.872   6.142  1.00  0.00     0.001 A 
HETATM    6  C   UNL     1      40.155 -13.090   6.129  1.00  0.00     0.019 A 
ENDROOT
BRANCH   1   7
HETATM    7  C   UNL     1      40.959 -15.135   5.082  1.00  0.00     0.253 C 
HETATM    8  N   UNL     1      41.656 -15.377   6.249  1.00  0.00    -0.356 N 
HETATM    9  H   UNL     1      41.657 -14.666   6.968  1.00  0.00     0.162 HD
HETATM   10  O   UNL     1      40.860 -15.947   4.169  1.00  0.00    -0.268 OA
BRANCH   8  11
HETATM   11  C   UNL     1      42.107 -16.712   6.585  1.00  0.00     0.127 C 
BRANCH  11  12
HETATM   12  C   UNL     1      43.614 -16.899   6.389  1.00  0.00     0.058 C 
BRANCH  12  13
HETATM   13  C   UNL     1      43.905 -17.989   5.386  1.00  0.00    -0.054 A 
HETATM   14  C   UNL     1      43.676 -17.783   4.017  1.00  0.00     0.046 A 
HETATM   15  C   UNL     1      43.989 -18.778   3.082  1.00  0.00     0.102 A 
HETATM   16  C   UNL     1      44.545 -19.990   3.525  1.00  0.00     0.101 A 
HETATM   17  C   UNL     1      44.752 -20.207   4.891  1.00  0.00     0.040 A 
HETATM   18  C   UNL     1      44.442 -19.208   5.814  1.00  0.00     0.010 A 
BRANCH  15  19
HETATM   19  O   UNL     1      43.805 -18.659   1.726  1.00  0.00    -0.353 OA
HETATM   20  C   UNL     1      43.651 -17.351   1.196  1.00  0.00     0.210 C 
ENDBRANCH  15  19
BRANCH  16  21
HETATM   21  O   UNL     1      44.820 -20.941   2.571  1.00  0.00    -0.353 OA
HETATM   22  C   UNL     1      44.437 -22.266   2.920  1.00  0.00     0.210 C 
ENDBRANCH  16  21
ENDBRANCH  12  13
ENDBRANCH  11  12
ENDBRANCH   8  11
ENDBRANCH   1   7
BRANCH   2  23
HETATM   23  N   UNL     1      40.392 -13.606   2.395  1.00  0.00    -0.320 N 
HETATM   24  C   UNL     1      41.621 -13.509   1.769  1.00  0.00     0.280 C 
HETATM   25  O   UNL     1      42.659 -13.082   2.256  1.00  0.00    -0.265 OA
HETATM   26  H   UNL     1      39.618 -13.733   1.750  1.00  0.00     0.169 HD
BRANCH  24  27
HETATM   27  C   UNL     1      41.535 -13.928   0.319  1.00  0.00     0.143 C 
HETATM   28  O   UNL     1      41.026 -15.192   0.062  1.00  0.00    -0.345 OA
HETATM   29  C   UNL     1      41.186 -15.673  -1.278  1.00  0.00     0.186 C 
HETATM   30  C   UNL     1      40.709 -14.680  -2.325  1.00  0.00     0.105 C 
HETATM   31  S   UNL     1      41.831 -13.258  -2.308  1.00  0.00    -0.136 SA
HETATM   32  C   UNL     1      41.928 -13.021  -0.595  1.00  0.00     0.087 C 
ENDBRANCH  24  27
ENDBRANCH   2  23
TORSDOF 8
ENDMDL
