MODEL 1
REMARK VINA RESULT:      -8.7      0.000      0.000
REMARK  7 active torsions:
REMARK  status: ('A' for Active; 'I' for Inactive)
REMARK    1  A    between atoms: N_2  and  C_4 
REMARK       I    between atoms: N_7  and  C_8 
REMARK    2  A    between atoms: C_8  and  C_9 
REMARK    3  A    between atoms: N_12  and  C_13 
REMARK    4  A    between atoms: C_20  and  C_21 
REMARK    5  A    between atoms: C_21  and  N_22 
REMARK    6  A    between atoms: N_22  and  C_25 
REMARK    7  A    between atoms: C_25  and  C_26 
ROOT
HETATM    1  C   UNL     1      42.814 -16.549   3.892  1.00  0.00     0.719 A 
HETATM    2  N   UNL     1      43.473 -17.758   4.075  1.00  0.00    -0.154 N 
HETATM    3  C   UNL     1      43.961 -17.723   5.388  1.00  0.00     0.083 A 
HETATM    4  C   UNL     1      44.637 -18.871   5.891  1.00  0.00     0.033 A 
HETATM    5  C   UNL     1      44.836 -19.927   5.080  1.00  0.00     0.004 A 
HETATM    6  C   UNL     1      44.396 -19.913   3.699  1.00  0.00     0.018 A 
HETATM    7  C   UNL     1      43.732 -18.843   3.232  1.00  0.00     0.115 A 
HETATM    8  C   UNL     1      43.669 -16.470   5.875  1.00  0.00     0.107 A 
HETATM    9  N   UNL     1      42.962 -15.745   4.940  1.00  0.00    -0.064 NA
ENDROOT
BRANCH   1  10
HETATM   10  N   UNL     1      42.062 -16.154   2.777  1.00  0.00    -0.147 N 
HETATM   11  C   UNL     1      40.691 -15.982   2.781  1.00  0.00     0.233 A 
HETATM   12  N   UNL     1      40.218 -15.590   1.620  1.00  0.00    -0.236 NA
HETATM   13  C   UNL     1      41.306 -15.538   0.776  1.00  0.00     0.142 A 
HETATM   14  C   UNL     1      42.443 -15.901   1.482  1.00  0.00     0.153 A 
BRANCH  13  15
HETATM   15  C   UNL     1      41.306 -15.114  -0.635  1.00  0.00     0.273 C 
HETATM   16  N   UNL     1      41.695 -13.801  -0.978  1.00  0.00    -0.347 N 
HETATM   17  C   UNL     1      41.425 -12.651  -0.119  1.00  0.00     0.128 C 
HETATM   18  C   UNL     1      41.818 -13.524  -2.407  1.00  0.00     0.128 C 
HETATM   19  C   UNL     1      42.406 -11.515  -0.381  1.00  0.00     0.053 C 
HETATM   20  C   UNL     1      42.466 -11.121  -1.864  1.00  0.00     0.190 C 
HETATM   21  C   UNL     1      42.783 -12.377  -2.686  1.00  0.00     0.053 C 
HETATM   22  O   UNL     1      40.992 -15.921  -1.512  1.00  0.00    -0.266 OA
BRANCH  20  23
HETATM   23  N   UNL     1      41.172 -10.438  -2.344  1.00  0.00    -0.074 N 
HETATM   24  C   UNL     1      41.218 -10.063  -3.813  1.00  0.00     0.269 C 
HETATM   25  H   UNL     1      40.388 -11.094  -2.241  1.00  0.00     0.279 HD
HETATM   26  C   UNL     1      40.804  -9.205  -1.543  1.00  0.00     0.269 C 
ENDBRANCH  20  23
ENDBRANCH  13  15
ENDBRANCH   1  10
BRANCH   8  27
HETATM   27  C   UNL     1      44.002 -15.866   7.197  1.00  0.00     0.294 C 
BRANCH  27  28
HETATM   28  N   UNL     1      43.906 -14.389   7.131  1.00  0.00    -0.064 N 
HETATM   29  H   UNL     1      43.444 -14.136   6.247  1.00  0.00     0.278 HD
HETATM   30  H   UNL     1      43.249 -14.050   7.844  1.00  0.00     0.278 HD
BRANCH  28  31
HETATM   31  C   UNL     1      45.184 -13.648   7.261  1.00  0.00     0.297 C 
BRANCH  31  32
HETATM   32  C   UNL     1      45.210 -12.797   8.474  1.00  0.00     0.078 A 
HETATM   33  O   UNL     1      44.395 -13.172   9.506  1.00  0.00    -0.325 OA
HETATM   34  C   UNL     1      44.583 -12.271  10.506  1.00  0.00     0.142 A 
HETATM   35  C   UNL     1      45.512 -11.327  10.134  1.00  0.00     0.027 A 
HETATM   36  C   UNL     1      45.918 -11.666   8.820  1.00  0.00     0.036 A 
ENDBRANCH  31  32
ENDBRANCH  28  31
ENDBRANCH  27  28
ENDBRANCH   8  27
TORSDOF 7
ENDMDL
MODEL 2
REMARK VINA RESULT:      -8.7      2.091      2.662
REMARK  7 active torsions:
REMARK  status: ('A' for Active; 'I' for Inactive)
REMARK    1  A    between atoms: N_2  and  C_4 
REMARK       I    between atoms: N_7  and  C_8 
REMARK    2  A    between atoms: C_8  and  C_9 
REMARK    3  A    between atoms: N_12  and  C_13 
REMARK    4  A    between atoms: C_20  and  C_21 
REMARK    5  A    between atoms: C_21  and  N_22 
REMARK    6  A    between atoms: N_22  and  C_25 
REMARK    7  A    between atoms: C_25  and  C_26 
ROOT
HETATM    1  C   UNL     1      43.102 -18.265   3.063  1.00  0.00     0.719 A 
HETATM    2  N   UNL     1      43.540 -19.568   2.864  1.00  0.00    -0.154 N 
HETATM    3  C   UNL     1      44.191 -19.929   4.050  1.00  0.00     0.083 A 
HETATM    4  C   UNL     1      44.700 -21.255   4.168  1.00  0.00     0.033 A 
HETATM    5  C   UNL     1      44.591 -22.098   3.125  1.00  0.00     0.004 A 
HETATM    6  C   UNL     1      43.986 -21.681   1.876  1.00  0.00     0.018 A 
HETATM    7  C   UNL     1      43.480 -20.441   1.772  1.00  0.00     0.115 A 
HETATM    8  C   UNL     1      44.206 -18.804   4.842  1.00  0.00     0.107 A 
HETATM    9  N   UNL     1      43.532 -17.773   4.220  1.00  0.00    -0.064 NA
ENDROOT
BRANCH   1  10
HETATM   10  N   UNL     1      42.300 -17.500   2.205  1.00  0.00    -0.147 N 
HETATM   11  C   UNL     1      40.961 -17.236   2.418  1.00  0.00     0.233 A 
HETATM   12  N   UNL     1      40.430 -16.481   1.482  1.00  0.00    -0.236 NA
HETATM   13  C   UNL     1      41.439 -16.260   0.570  1.00  0.00     0.142 A 
HETATM   14  C   UNL     1      42.589 -16.901   1.003  1.00  0.00     0.153 A 
BRANCH  13  15
HETATM   15  C   UNL     1      41.358 -15.435  -0.648  1.00  0.00     0.273 C 
HETATM   16  N   UNL     1      41.650 -14.055  -0.587  1.00  0.00    -0.347 N 
HETATM   17  C   UNL     1      41.341 -13.236   0.583  1.00  0.00     0.128 C 
HETATM   18  C   UNL     1      41.701 -13.356  -1.868  1.00  0.00     0.128 C 
HETATM   19  C   UNL     1      42.239 -12.007   0.657  1.00  0.00     0.053 C 
HETATM   20  C   UNL     1      42.217 -11.185  -0.639  1.00  0.00     0.190 C 
HETATM   21  C   UNL     1      42.581 -12.112  -1.807  1.00  0.00     0.053 C 
HETATM   22  O   UNL     1      41.062 -15.963  -1.721  1.00  0.00    -0.266 OA
BRANCH  20  23
HETATM   23  N   UNL     1      40.865 -10.484  -0.868  1.00  0.00    -0.074 N 
HETATM   24  C   UNL     1      40.830  -9.689  -2.160  1.00  0.00     0.269 C 
HETATM   25  H   UNL     1      40.128 -11.195  -0.950  1.00  0.00     0.279 HD
HETATM   26  C   UNL     1      40.453  -9.572   0.270  1.00  0.00     0.269 C 
ENDBRANCH  20  23
ENDBRANCH  13  15
ENDBRANCH   1  10
BRANCH   8  27
HETATM   27  C   UNL     1      44.814 -18.599   6.187  1.00  0.00     0.294 C 
BRANCH  27  28
HETATM   28  N   UNL     1      43.767 -18.615   7.236  1.00  0.00    -0.064 N 
HETATM   29  H   UNL     1      42.861 -18.794   6.783  1.00  0.00     0.278 HD
HETATM   30  H   UNL     1      43.894 -19.435   7.842  1.00  0.00     0.278 HD
BRANCH  28  31
HETATM   31  C   UNL     1      43.677 -17.401   8.082  1.00  0.00     0.297 C 
BRANCH  31  32
HETATM   32  C   UNL     1      43.518 -16.170   7.271  1.00  0.00     0.078 A 
HETATM   33  O   UNL     1      42.313 -15.995   6.650  1.00  0.00    -0.325 OA
HETATM   34  C   UNL     1      42.381 -14.815   5.979  1.00  0.00     0.142 A 
HETATM   35  C   UNL     1      43.611 -14.227   6.166  1.00  0.00     0.027 A 
HETATM   36  C   UNL     1      44.347 -15.103   7.000  1.00  0.00     0.036 A 
ENDBRANCH  31  32
ENDBRANCH  28  31
ENDBRANCH  27  28
ENDBRANCH   8  27
TORSDOF 7
ENDMDL
MODEL 3
REMARK VINA RESULT:      -8.4      2.747      5.415
REMARK  7 active torsions:
REMARK  status: ('A' for Active; 'I' for Inactive)
REMARK    1  A    between atoms: N_2  and  C_4 
REMARK       I    between atoms: N_7  and  C_8 
REMARK    2  A    between atoms: C_8  and  C_9 
REMARK    3  A    between atoms: N_12  and  C_13 
REMARK    4  A    between atoms: C_20  and  C_21 
REMARK    5  A    between atoms: C_21  and  N_22 
REMARK    6  A    between atoms: N_22  and  C_25 
REMARK    7  A    between atoms: C_25  and  C_26 
ROOT
HETATM    1  C   UNL     1      42.211 -16.614   4.519  1.00  0.00     0.719 A 
HETATM    2  N   UNL     1      42.961 -15.682   5.225  1.00  0.00    -0.154 N 
HETATM    3  C   UNL     1      43.609 -16.409   6.232  1.00  0.00     0.083 A 
HETATM    4  C   UNL     1      44.512 -15.720   7.091  1.00  0.00     0.033 A 
HETATM    5  C   UNL     1      44.674 -14.392   6.949  1.00  0.00     0.004 A 
HETATM    6  C   UNL     1      43.933 -13.642   5.955  1.00  0.00     0.018 A 
HETATM    7  C   UNL     1      43.102 -14.294   5.124  1.00  0.00     0.115 A 
HETATM    8  C   UNL     1      43.134 -17.698   6.145  1.00  0.00     0.107 A 
HETATM    9  N   UNL     1      42.263 -17.816   5.083  1.00  0.00    -0.064 NA
ENDROOT
BRANCH   1  10
HETATM   10  N   UNL     1      41.473 -16.396   3.348  1.00  0.00    -0.147 N 
HETATM   11  C   UNL     1      41.302 -17.332   2.346  1.00  0.00     0.233 A 
HETATM   12  N   UNL     1      40.554 -16.898   1.357  1.00  0.00    -0.236 NA
HETATM   13  C   UNL     1      40.240 -15.595   1.677  1.00  0.00     0.142 A 
HETATM   14  C   UNL     1      40.819 -15.276   2.895  1.00  0.00     0.153 A 
BRANCH  13  15
HETATM   15  C   UNL     1      39.384 -14.680   0.900  1.00  0.00     0.273 C 
HETATM   16  N   UNL     1      39.686 -14.408  -0.452  1.00  0.00    -0.347 N 
HETATM   17  C   UNL     1      41.056 -14.345  -0.955  1.00  0.00     0.128 C 
HETATM   18  C   UNL     1      38.694 -13.623  -1.182  1.00  0.00     0.128 C 
HETATM   19  C   UNL     1      41.115 -14.628  -2.451  1.00  0.00     0.053 C 
HETATM   20  C   UNL     1      40.166 -13.729  -3.257  1.00  0.00     0.190 C 
HETATM   21  C   UNL     1      38.752 -13.880  -2.683  1.00  0.00     0.053 C 
HETATM   22  O   UNL     1      38.391 -14.180   1.431  1.00  0.00    -0.266 OA
BRANCH  20  23
HETATM   23  N   UNL     1      40.621 -12.258  -3.272  1.00  0.00    -0.074 N 
HETATM   24  C   UNL     1      39.673 -11.360  -4.044  1.00  0.00     0.269 C 
HETATM   25  H   UNL     1      40.633 -11.900  -2.309  1.00  0.00     0.279 HD
HETATM   26  C   UNL     1      42.022 -12.061  -3.816  1.00  0.00     0.269 C 
ENDBRANCH  20  23
ENDBRANCH  13  15
ENDBRANCH   1  10
BRANCH   8  27
HETATM   27  C   UNL     1      43.440 -18.880   7.000  1.00  0.00     0.294 C 
BRANCH  27  28
HETATM   28  N   UNL     1      43.813 -20.043   6.161  1.00  0.00    -0.064 N 
HETATM   29  H   UNL     1      44.093 -20.813   6.784  1.00  0.00     0.278 HD
HETATM   30  H   UNL     1      42.978 -20.415   5.691  1.00  0.00     0.278 HD
BRANCH  28  31
HETATM   31  C   UNL     1      44.870 -19.803   5.150  1.00  0.00     0.297 C 
BRANCH  31  32
HETATM   32  C   UNL     1      44.537 -20.416   3.842  1.00  0.00     0.078 A 
HETATM   33  O   UNL     1      44.713 -21.767   3.735  1.00  0.00    -0.325 OA
HETATM   34  C   UNL     1      44.342 -22.115   2.474  1.00  0.00     0.142 A 
HETATM   35  C   UNL     1      43.925 -21.008   1.773  1.00  0.00     0.027 A 
HETATM   36  C   UNL     1      44.051 -19.908   2.656  1.00  0.00     0.036 A 
ENDBRANCH  31  32
ENDBRANCH  28  31
ENDBRANCH  27  28
ENDBRANCH   8  27
TORSDOF 7
ENDMDL
MODEL 4
REMARK VINA RESULT:      -8.3      2.169      5.250
REMARK  7 active torsions:
REMARK  status: ('A' for Active; 'I' for Inactive)
REMARK    1  A    between atoms: N_2  and  C_4 
REMARK       I    between atoms: N_7  and  C_8 
REMARK    2  A    between atoms: C_8  and  C_9 
REMARK    3  A    between atoms: N_12  and  C_13 
REMARK    4  A    between atoms: C_20  and  C_21 
REMARK    5  A    between atoms: C_21  and  N_22 
REMARK    6  A    between atoms: N_22  and  C_25 
REMARK    7  A    between atoms: C_25  and  C_26 
ROOT
HETATM    1  C   UNL     1      42.752 -16.294   4.055  1.00  0.00     0.719 A 
HETATM    2  N   UNL     1      43.105 -15.360   5.021  1.00  0.00    -0.154 N 
HETATM    3  C   UNL     1      43.937 -16.043   5.916  1.00  0.00     0.083 A 
HETATM    4  C   UNL     1      44.515 -15.316   6.996  1.00  0.00     0.033 A 
HETATM    5  C   UNL     1      44.203 -14.016   7.156  1.00  0.00     0.004 A 
HETATM    6  C   UNL     1      43.276 -13.346   6.267  1.00  0.00     0.018 A 
HETATM    7  C   UNL     1      42.753 -14.023   5.231  1.00  0.00     0.115 A 
HETATM    8  C   UNL     1      43.948 -17.357   5.508  1.00  0.00     0.107 A 
HETATM    9  N   UNL     1      43.206 -17.506   4.355  1.00  0.00    -0.064 NA
ENDROOT
BRANCH   1  10
HETATM   10  N   UNL     1      42.019 -16.065   2.883  1.00  0.00    -0.147 N 
HETATM   11  C   UNL     1      40.651 -16.222   2.774  1.00  0.00     0.233 A 
HETATM   12  N   UNL     1      40.192 -15.930   1.577  1.00  0.00    -0.236 NA
HETATM   13  C   UNL     1      41.301 -15.605   0.827  1.00  0.00     0.142 A 
HETATM   14  C   UNL     1      42.431 -15.703   1.623  1.00  0.00     0.153 A 
BRANCH  13  15
HETATM   15  C   UNL     1      41.313 -15.165  -0.580  1.00  0.00     0.273 C 
HETATM   16  N   UNL     1      41.679 -13.839  -0.901  1.00  0.00    -0.347 N 
HETATM   17  C   UNL     1      41.370 -12.705  -0.033  1.00  0.00     0.128 C 
HETATM   18  C   UNL     1      41.818 -13.543  -2.324  1.00  0.00     0.128 C 
HETATM   19  C   UNL     1      42.330 -11.546  -0.267  1.00  0.00     0.053 C 
HETATM   20  C   UNL     1      42.404 -11.133  -1.744  1.00  0.00     0.190 C 
HETATM   21  C   UNL     1      42.761 -12.372  -2.576  1.00  0.00     0.053 C 
HETATM   22  O   UNL     1      41.030 -15.967  -1.470  1.00  0.00    -0.266 OA
BRANCH  20  23
HETATM   23  N   UNL     1      41.102 -10.472  -2.236  1.00  0.00    -0.074 N 
HETATM   24  C   UNL     1      41.159 -10.088  -3.703  1.00  0.00     0.269 C 
HETATM   25  H   UNL     1      40.330 -11.144  -2.147  1.00  0.00     0.279 HD
HETATM   26  C   UNL     1      40.700  -9.252  -1.433  1.00  0.00     0.269 C 
ENDBRANCH  20  23
ENDBRANCH  13  15
ENDBRANCH   1  10
BRANCH   8  27
HETATM   27  C   UNL     1      44.624 -18.535   6.122  1.00  0.00     0.294 C 
BRANCH  27  28
HETATM   28  N   UNL     1      43.953 -19.791   5.710  1.00  0.00    -0.064 N 
HETATM   29  H   UNL     1      43.458 -20.174   6.526  1.00  0.00     0.278 HD
HETATM   30  H   UNL     1      43.193 -19.580   5.052  1.00  0.00     0.278 HD
BRANCH  28  31
HETATM   31  C   UNL     1      44.829 -20.830   5.117  1.00  0.00     0.297 C 
BRANCH  31  32
HETATM   32  C   UNL     1      44.459 -21.132   3.714  1.00  0.00     0.078 A 
HETATM   33  O   UNL     1      43.973 -20.094   2.970  1.00  0.00    -0.325 OA
HETATM   34  C   UNL     1      43.712 -20.585   1.729  1.00  0.00     0.142 A 
HETATM   35  C   UNL     1      44.029 -21.922   1.665  1.00  0.00     0.027 A 
HETATM   36  C   UNL     1      44.512 -22.277   2.948  1.00  0.00     0.036 A 
ENDBRANCH  31  32
ENDBRANCH  28  31
ENDBRANCH  27  28
ENDBRANCH   8  27
TORSDOF 7
ENDMDL
MODEL 5
REMARK VINA RESULT:      -8.1      3.736     10.074
REMARK  7 active torsions:
REMARK  status: ('A' for Active; 'I' for Inactive)
REMARK    1  A    between atoms: N_2  and  C_4 
REMARK       I    between atoms: N_7  and  C_8 
REMARK    2  A    between atoms: C_8  and  C_9 
REMARK    3  A    between atoms: N_12  and  C_13 
REMARK    4  A    between atoms: C_20  and  C_21 
REMARK    5  A    between atoms: C_21  and  N_22 
REMARK    6  A    between atoms: N_22  and  C_25 
REMARK    7  A    between atoms: C_25  and  C_26 
ROOT
HETATM    1  C   UNL     1      41.553 -13.820   0.766  1.00  0.00     0.719 A 
HETATM    2  N   UNL     1      41.372 -12.471   1.044  1.00  0.00    -0.154 N 
HETATM    3  C   UNL     1      41.678 -11.799  -0.147  1.00  0.00     0.083 A 
HETATM    4  C   UNL     1      41.520 -10.384  -0.187  1.00  0.00     0.033 A 
HETATM    5  C   UNL     1      41.139  -9.731   0.927  1.00  0.00     0.004 A 
HETATM    6  C   UNL     1      40.906 -10.434   2.172  1.00  0.00     0.018 A 
HETATM    7  C   UNL     1      41.026 -11.772   2.205  1.00  0.00     0.115 A 
HETATM    8  C   UNL     1      42.126 -12.757  -1.027  1.00  0.00     0.107 A 
HETATM    9  N   UNL     1      42.050 -14.008  -0.452  1.00  0.00    -0.064 NA
ENDROOT
BRANCH   1  10
HETATM   10  N   UNL     1      41.265 -14.904   1.606  1.00  0.00    -0.147 N 
HETATM   11  C   UNL     1      40.150 -15.711   1.485  1.00  0.00     0.233 A 
HETATM   12  N   UNL     1      40.112 -16.673   2.379  1.00  0.00    -0.236 NA
HETATM   13  C   UNL     1      41.223 -16.485   3.171  1.00  0.00     0.142 A 
HETATM   14  C   UNL     1      41.928 -15.386   2.708  1.00  0.00     0.153 A 
BRANCH  13  15
HETATM   15  C   UNL     1      41.653 -17.331   4.299  1.00  0.00     0.273 C 
HETATM   16  N   UNL     1      42.741 -18.218   4.142  1.00  0.00    -0.347 N 
HETATM   17  C   UNL     1      43.027 -18.897   2.881  1.00  0.00     0.128 C 
HETATM   18  C   UNL     1      43.194 -18.893   5.355  1.00  0.00     0.128 C 
HETATM   19  C   UNL     1      44.495 -19.292   2.780  1.00  0.00     0.053 C 
HETATM   20  C   UNL     1      44.967 -20.110   3.991  1.00  0.00     0.190 C 
HETATM   21  C   UNL     1      44.657 -19.312   5.264  1.00  0.00     0.053 C 
HETATM   22  O   UNL     1      41.075 -17.239   5.383  1.00  0.00    -0.266 OA
BRANCH  20  23
HETATM   23  N   UNL     1      44.341 -21.516   4.032  1.00  0.00    -0.074 N 
HETATM   24  C   UNL     1      44.948 -22.396   5.108  1.00  0.00     0.269 C 
HETATM   25  H   UNL     1      43.342 -21.432   4.261  1.00  0.00     0.279 HD
HETATM   26  C   UNL     1      44.413 -22.252   2.709  1.00  0.00     0.269 C 
ENDBRANCH  20  23
ENDBRANCH  13  15
ENDBRANCH   1  10
BRANCH   8  27
HETATM   27  C   UNL     1      42.634 -12.601  -2.420  1.00  0.00     0.294 C 
BRANCH  27  28
HETATM   28  N   UNL     1      41.812 -13.396  -3.363  1.00  0.00    -0.064 N 
HETATM   29  H   UNL     1      42.312 -13.448  -4.261  1.00  0.00     0.278 HD
HETATM   30  H   UNL     1      41.780 -14.376  -3.056  1.00  0.00     0.278 HD
BRANCH  28  31
HETATM   31  C   UNL     1      40.428 -12.914  -3.584  1.00  0.00     0.297 C 
BRANCH  31  32
HETATM   32  C   UNL     1      39.455 -14.030  -3.645  1.00  0.00     0.078 A 
HETATM   33  O   UNL     1      39.939 -15.246  -4.041  1.00  0.00    -0.325 OA
HETATM   34  C   UNL     1      38.893 -16.115  -4.017  1.00  0.00     0.142 A 
HETATM   35  C   UNL     1      37.747 -15.476  -3.605  1.00  0.00     0.027 A 
HETATM   36  C   UNL     1      38.108 -14.128  -3.366  1.00  0.00     0.036 A 
ENDBRANCH  31  32
ENDBRANCH  28  31
ENDBRANCH  27  28
ENDBRANCH   8  27
TORSDOF 7
ENDMDL
MODEL 6
REMARK VINA RESULT:      -8.1      1.595      2.036
REMARK  7 active torsions:
REMARK  status: ('A' for Active; 'I' for Inactive)
REMARK    1  A    between atoms: N_2  and  C_4 
REMARK       I    between atoms: N_7  and  C_8 
REMARK    2  A    between atoms: C_8  and  C_9 
REMARK    3  A    between atoms: N_12  and  C_13 
REMARK    4  A    between atoms: C_20  and  C_21 
REMARK    5  A    between atoms: C_21  and  N_22 
REMARK    6  A    between atoms: N_22  and  C_25 
REMARK    7  A    between atoms: C_25  and  C_26 
ROOT
HETATM    1  C   UNL     1      42.419 -16.627   4.233  1.00  0.00     0.719 A 
HETATM    2  N   UNL     1      43.239 -17.748   4.252  1.00  0.00    -0.154 N 
HETATM    3  C   UNL     1      43.913 -17.698   5.479  1.00  0.00     0.083 A 
HETATM    4  C   UNL     1      44.791 -18.768   5.815  1.00  0.00     0.033 A 
HETATM    5  C   UNL     1      44.991 -19.760   4.927  1.00  0.00     0.004 A 
HETATM    6  C   UNL     1      44.347 -19.754   3.629  1.00  0.00     0.018 A 
HETATM    7  C   UNL     1      43.496 -18.761   3.322  1.00  0.00     0.115 A 
HETATM    8  C   UNL     1      43.550 -16.510   6.071  1.00  0.00     0.107 A 
HETATM    9  N   UNL     1      42.626 -15.848   5.290  1.00  0.00    -0.064 NA
ENDROOT
BRANCH   1  10
HETATM   10  N   UNL     1      41.465 -16.292   3.264  1.00  0.00    -0.147 N 
HETATM   11  C   UNL     1      40.680 -17.208   2.590  1.00  0.00     0.233 A 
HETATM   12  N   UNL     1      39.847 -16.648   1.742  1.00  0.00    -0.236 NA
HETATM   13  C   UNL     1      40.107 -15.297   1.807  1.00  0.00     0.142 A 
HETATM   14  C   UNL     1      41.115 -15.074   2.732  1.00  0.00     0.153 A 
BRANCH  13  15
HETATM   15  C   UNL     1      39.406 -14.230   1.070  1.00  0.00     0.273 C 
HETATM   16  N   UNL     1      39.641 -14.054  -0.311  1.00  0.00    -0.347 N 
HETATM   17  C   UNL     1      40.942 -14.303  -0.926  1.00  0.00     0.128 C 
HETATM   18  C   UNL     1      38.785 -13.082  -0.985  1.00  0.00     0.128 C 
HETATM   19  C   UNL     1      40.807 -14.619  -2.411  1.00  0.00     0.053 C 
HETATM   20  C   UNL     1      40.011 -13.547  -3.169  1.00  0.00     0.190 C 
HETATM   21  C   UNL     1      38.653 -13.372  -2.476  1.00  0.00     0.053 C 
HETATM   22  O   UNL     1      38.597 -13.514   1.662  1.00  0.00    -0.266 OA
BRANCH  20  23
HETATM   23  N   UNL     1      40.773 -12.213  -3.274  1.00  0.00    -0.074 N 
HETATM   24  C   UNL     1      40.085 -11.216  -4.188  1.00  0.00     0.269 C 
HETATM   25  H   UNL     1      40.808 -11.772  -2.346  1.00  0.00     0.279 HD
HETATM   26  C   UNL     1      42.211 -12.369  -3.726  1.00  0.00     0.269 C 
ENDBRANCH  20  23
ENDBRANCH  13  15
ENDBRANCH   1  10
BRANCH   8  27
HETATM   27  C   UNL     1      44.004 -15.916   7.361  1.00  0.00     0.294 C 
BRANCH  27  28
HETATM   28  N   UNL     1      43.838 -14.444   7.340  1.00  0.00    -0.064 N 
HETATM   29  H   UNL     1      43.283 -14.195   6.510  1.00  0.00     0.278 HD
HETATM   30  H   UNL     1      43.238 -14.150   8.121  1.00  0.00     0.278 HD
BRANCH  28  31
HETATM   31  C   UNL     1      45.089 -13.649   7.368  1.00  0.00     0.297 C 
BRANCH  31  32
HETATM   32  C   UNL     1      45.043 -12.578   8.391  1.00  0.00     0.078 A 
HETATM   33  O   UNL     1      43.820 -12.021   8.643  1.00  0.00    -0.325 OA
HETATM   34  C   UNL     1      44.005 -11.081   9.608  1.00  0.00     0.142 A 
HETATM   35  C   UNL     1      45.327 -11.031   9.983  1.00  0.00     0.027 A 
HETATM   36  C   UNL     1      46.000 -11.998   9.197  1.00  0.00     0.036 A 
ENDBRANCH  31  32
ENDBRANCH  28  31
ENDBRANCH  27  28
ENDBRANCH   8  27
TORSDOF 7
ENDMDL
MODEL 7
REMARK VINA RESULT:      -8.0      4.500      8.700
REMARK  7 active torsions:
REMARK  status: ('A' for Active; 'I' for Inactive)
REMARK    1  A    between atoms: N_2  and  C_4 
REMARK       I    between atoms: N_7  and  C_8 
REMARK    2  A    between atoms: C_8  and  C_9 
REMARK    3  A    between atoms: N_12  and  C_13 
REMARK    4  A    between atoms: C_20  and  C_21 
REMARK    5  A    between atoms: C_21  and  N_22 
REMARK    6  A    between atoms: N_22  and  C_25 
REMARK    7  A    between atoms: C_25  and  C_26 
ROOT
HETATM    1  C   UNL     1      41.382 -14.972   4.306  1.00  0.00     0.719 A 
HETATM    2  N   UNL     1      41.300 -15.353   2.973  1.00  0.00    -0.154 N 
HETATM    3  C   UNL     1      41.428 -16.748   2.975  1.00  0.00     0.083 A 
HETATM    4  C   UNL     1      41.318 -17.440   1.735  1.00  0.00     0.033 A 
HETATM    5  C   UNL     1      41.152 -16.737   0.599  1.00  0.00     0.004 A 
HETATM    6  C   UNL     1      41.104 -15.289   0.608  1.00  0.00     0.018 A 
HETATM    7  C   UNL     1      41.178 -14.635   1.779  1.00  0.00     0.115 A 
HETATM    8  C   UNL     1      41.687 -17.111   4.277  1.00  0.00     0.107 A 
HETATM    9  N   UNL     1      41.662 -16.003   5.097  1.00  0.00    -0.064 NA
ENDROOT
BRANCH   1  10
HETATM   10  N   UNL     1      41.199 -13.686   4.833  1.00  0.00    -0.147 N 
HETATM   11  C   UNL     1      42.221 -12.789   5.078  1.00  0.00     0.233 A 
HETATM   12  N   UNL     1      41.795 -11.641   5.556  1.00  0.00    -0.236 NA
HETATM   13  C   UNL     1      40.430 -11.779   5.685  1.00  0.00     0.142 A 
HETATM   14  C   UNL     1      40.060 -13.044   5.256  1.00  0.00     0.153 A 
BRANCH  13  15
HETATM   15  C   UNL     1      39.482 -10.749   6.146  1.00  0.00     0.273 C 
HETATM   16  N   UNL     1      39.680 -10.113   7.391  1.00  0.00    -0.347 N 
HETATM   17  C   UNL     1      40.257 -10.801   8.543  1.00  0.00     0.128 C 
HETATM   18  C   UNL     1      38.785  -8.997   7.687  1.00  0.00     0.128 C 
HETATM   19  C   UNL     1      40.898  -9.819   9.516  1.00  0.00     0.053 C 
HETATM   20  C   UNL     1      39.936  -8.699   9.940  1.00  0.00     0.190 C 
HETATM   21  C   UNL     1      39.404  -8.014   8.675  1.00  0.00     0.053 C 
HETATM   22  O   UNL     1      38.534 -10.430   5.426  1.00  0.00    -0.266 OA
BRANCH  20  23
HETATM   23  N   UNL     1      38.792  -9.214  10.834  1.00  0.00    -0.074 N 
HETATM   24  C   UNL     1      37.816  -8.119  11.222  1.00  0.00     0.269 C 
HETATM   25  H   UNL     1      38.246  -9.911  10.312  1.00  0.00     0.279 HD
HETATM   26  C   UNL     1      39.271  -9.904  12.095  1.00  0.00     0.269 C 
ENDBRANCH  20  23
ENDBRANCH  13  15
ENDBRANCH   1  10
BRANCH   8  27
HETATM   27  C   UNL     1      41.962 -18.461   4.847  1.00  0.00     0.294 C 
BRANCH  27  28
HETATM   28  N   UNL     1      43.410 -18.624   5.118  1.00  0.00    -0.064 N 
HETATM   29  H   UNL     1      43.707 -17.865   5.746  1.00  0.00     0.278 HD
HETATM   30  H   UNL     1      43.565 -19.469   5.681  1.00  0.00     0.278 HD
BRANCH  28  31
HETATM   31  C   UNL     1      44.291 -18.669   3.927  1.00  0.00     0.297 C 
BRANCH  31  32
HETATM   32  C   UNL     1      44.162 -19.946   3.188  1.00  0.00     0.078 A 
HETATM   33  O   UNL     1      44.688 -21.058   3.785  1.00  0.00    -0.325 OA
HETATM   34  C   UNL     1      44.451 -22.105   2.950  1.00  0.00     0.142 A 
HETATM   35  C   UNL     1      43.776 -21.682   1.829  1.00  0.00     0.027 A 
HETATM   36  C   UNL     1      43.589 -20.287   1.981  1.00  0.00     0.036 A 
ENDBRANCH  31  32
ENDBRANCH  28  31
ENDBRANCH  27  28
ENDBRANCH   8  27
TORSDOF 7
ENDMDL
MODEL 8
REMARK VINA RESULT:      -7.9      4.255      9.940
REMARK  7 active torsions:
REMARK  status: ('A' for Active; 'I' for Inactive)
REMARK    1  A    between atoms: N_2  and  C_4 
REMARK       I    between atoms: N_7  and  C_8 
REMARK    2  A    between atoms: C_8  and  C_9 
REMARK    3  A    between atoms: N_12  and  C_13 
REMARK    4  A    between atoms: C_20  and  C_21 
REMARK    5  A    between atoms: C_21  and  N_22 
REMARK    6  A    between atoms: N_22  and  C_25 
REMARK    7  A    between atoms: C_25  and  C_26 
ROOT
HETATM    1  C   UNL     1      40.664 -13.731   4.980  1.00  0.00     0.719 A 
HETATM    2  N   UNL     1      40.012 -13.782   3.754  1.00  0.00    -0.154 N 
HETATM    3  C   UNL     1      40.149 -15.104   3.312  1.00  0.00     0.083 A 
HETATM    4  C   UNL     1      39.518 -15.480   2.092  1.00  0.00     0.033 A 
HETATM    5  C   UNL     1      38.859 -14.549   1.376  1.00  0.00     0.004 A 
HETATM    6  C   UNL     1      38.797 -13.168   1.809  1.00  0.00     0.018 A 
HETATM    7  C   UNL     1      39.367 -12.817   2.974  1.00  0.00     0.115 A 
HETATM    8  C   UNL     1      40.959 -15.736   4.228  1.00  0.00     0.107 A 
HETATM    9  N   UNL     1      41.279 -14.876   5.258  1.00  0.00    -0.064 NA
ENDROOT
BRANCH   1  10
HETATM   10  N   UNL     1      40.709 -12.651   5.871  1.00  0.00    -0.147 N 
HETATM   11  C   UNL     1      41.739 -11.731   5.933  1.00  0.00     0.233 A 
HETATM   12  N   UNL     1      41.544 -10.800   6.839  1.00  0.00    -0.236 NA
HETATM   13  C   UNL     1      40.354 -11.125   7.453  1.00  0.00     0.142 A 
HETATM   14  C   UNL     1      39.845 -12.275   6.871  1.00  0.00     0.153 A 
BRANCH  13  15
HETATM   15  C   UNL     1      39.677 -10.364   8.518  1.00  0.00     0.273 C 
HETATM   16  N   UNL     1      40.414  -9.887   9.623  1.00  0.00    -0.347 N 
HETATM   17  C   UNL     1      41.549 -10.615  10.185  1.00  0.00     0.128 C 
HETATM   18  C   UNL     1      39.693  -9.009  10.541  1.00  0.00     0.128 C 
HETATM   19  C   UNL     1      42.501  -9.681  10.923  1.00  0.00     0.053 C 
HETATM   20  C   UNL     1      41.785  -8.831  11.982  1.00  0.00     0.190 C 
HETATM   21  C   UNL     1      40.632  -8.081  11.302  1.00  0.00     0.053 C 
HETATM   22  O   UNL     1      38.472 -10.125   8.422  1.00  0.00    -0.266 OA
BRANCH  20  23
HETATM   23  N   UNL     1      41.294  -9.669  13.177  1.00  0.00    -0.074 N 
HETATM   24  C   UNL     1      40.639  -8.825  14.254  1.00  0.00     0.269 C 
HETATM   25  H   UNL     1      40.574 -10.327  12.852  1.00  0.00     0.279 HD
HETATM   26  C   UNL     1      42.381 -10.509  13.817  1.00  0.00     0.269 C 
ENDBRANCH  20  23
ENDBRANCH  13  15
ENDBRANCH   1  10
BRANCH   8  27
HETATM   27  C   UNL     1      41.477 -17.133   4.229  1.00  0.00     0.294 C 
BRANCH  27  28
HETATM   28  N   UNL     1      42.828 -17.185   3.622  1.00  0.00    -0.064 N 
HETATM   29  H   UNL     1      42.720 -17.321   2.607  1.00  0.00     0.278 HD
HETATM   30  H   UNL     1      43.276 -16.263   3.688  1.00  0.00     0.278 HD
BRANCH  28  31
HETATM   31  C   UNL     1      43.749 -18.209   4.172  1.00  0.00     0.297 C 
BRANCH  31  32
HETATM   32  C   UNL     1      43.826 -19.409   3.305  1.00  0.00     0.078 A 
HETATM   33  O   UNL     1      44.671 -20.405   3.710  1.00  0.00    -0.325 OA
HETATM   34  C   UNL     1      44.579 -21.399   2.787  1.00  0.00     0.142 A 
HETATM   35  C   UNL     1      43.684 -21.058   1.801  1.00  0.00     0.027 A 
HETATM   36  C   UNL     1      43.197 -19.771   2.134  1.00  0.00     0.036 A 
ENDBRANCH  31  32
ENDBRANCH  28  31
ENDBRANCH  27  28
ENDBRANCH   8  27
TORSDOF 7
ENDMDL
MODEL 9
REMARK VINA RESULT:      -7.8      2.747      5.356
REMARK  7 active torsions:
REMARK  status: ('A' for Active; 'I' for Inactive)
REMARK    1  A    between atoms: N_2  and  C_4 
REMARK       I    between atoms: N_7  and  C_8 
REMARK    2  A    between atoms: C_8  and  C_9 
REMARK    3  A    between atoms: N_12  and  C_13 
REMARK    4  A    between atoms: C_20  and  C_21 
REMARK    5  A    between atoms: C_21  and  N_22 
REMARK    6  A    between atoms: N_22  and  C_25 
REMARK    7  A    between atoms: C_25  and  C_26 
ROOT
HETATM    1  C   UNL     1      41.236 -15.517   3.063  1.00  0.00     0.719 A 
HETATM    2  N   UNL     1      41.797 -14.743   4.071  1.00  0.00    -0.154 N 
HETATM    3  C   UNL     1      42.510 -15.639   4.878  1.00  0.00     0.083 A 
HETATM    4  C   UNL     1      43.254 -15.119   5.975  1.00  0.00     0.033 A 
HETATM    5  C   UNL     1      43.208 -13.799   6.237  1.00  0.00     0.004 A 
HETATM    6  C   UNL     1      42.400 -12.899   5.440  1.00  0.00     0.018 A 
HETATM    7  C   UNL     1      41.720 -13.383   4.387  1.00  0.00     0.115 A 
HETATM    8  C   UNL     1      42.250 -16.896   4.382  1.00  0.00     0.107 A 
HETATM    9  N   UNL     1      41.455 -16.813   3.258  1.00  0.00    -0.064 NA
ENDROOT
BRANCH   1  10
HETATM   10  N   UNL     1      40.523 -15.064   1.945  1.00  0.00    -0.147 N 
HETATM   11  C   UNL     1      39.160 -14.839   1.926  1.00  0.00     0.233 A 
HETATM   12  N   UNL     1      38.727 -14.399   0.766  1.00  0.00    -0.236 NA
HETATM   13  C   UNL     1      39.833 -14.369  -0.054  1.00  0.00     0.142 A 
HETATM   14  C   UNL     1      40.940 -14.794   0.664  1.00  0.00     0.153 A 
BRANCH  13  15
HETATM   15  C   UNL     1      39.878 -13.909  -1.454  1.00  0.00     0.273 C 
HETATM   16  N   UNL     1      40.833 -12.947  -1.851  1.00  0.00    -0.347 N 
HETATM   17  C   UNL     1      41.284 -11.876  -0.967  1.00  0.00     0.128 C 
HETATM   18  C   UNL     1      40.907 -12.676  -3.284  1.00  0.00     0.128 C 
HETATM   19  C   UNL     1      42.665 -11.369  -1.364  1.00  0.00     0.053 C 
HETATM   20  C   UNL     1      42.738 -10.961  -2.842  1.00  0.00     0.190 C 
HETATM   21  C   UNL     1      42.277 -12.150  -3.696  1.00  0.00     0.053 C 
HETATM   22  O   UNL     1      39.098 -14.391  -2.277  1.00  0.00    -0.266 OA
BRANCH  20  23
HETATM   23  N   UNL     1      41.919  -9.692  -3.143  1.00  0.00    -0.074 N 
HETATM   24  C   UNL     1      41.974  -9.293  -4.606  1.00  0.00     0.269 C 
HETATM   25  H   UNL     1      40.929  -9.874  -2.935  1.00  0.00     0.279 HD
HETATM   26  C   UNL     1      42.319  -8.497  -2.301  1.00  0.00     0.269 C 
ENDBRANCH  20  23
ENDBRANCH  13  15
ENDBRANCH   1  10
BRANCH   8  27
HETATM   27  C   UNL     1      42.704 -18.225   4.883  1.00  0.00     0.294 C 
BRANCH  27  28
HETATM   28  N   UNL     1      44.177 -18.345   4.770  1.00  0.00    -0.064 N 
HETATM   29  H   UNL     1      44.448 -18.093   3.810  1.00  0.00     0.278 HD
HETATM   30  H   UNL     1      44.630 -17.620   5.340  1.00  0.00     0.278 HD
BRANCH  28  31
HETATM   31  C   UNL     1      44.750 -19.666   5.125  1.00  0.00     0.297 C 
BRANCH  31  32
HETATM   32  C   UNL     1      44.651 -20.632   4.006  1.00  0.00     0.078 A 
HETATM   33  O   UNL     1      44.844 -21.950   4.313  1.00  0.00    -0.325 OA
HETATM   34  C   UNL     1      44.700 -22.651   3.157  1.00  0.00     0.142 A 
HETATM   35  C   UNL     1      44.412 -21.803   2.114  1.00  0.00     0.027 A 
HETATM   36  C   UNL     1      44.381 -20.497   2.661  1.00  0.00     0.036 A 
ENDBRANCH  31  32
ENDBRANCH  28  31
ENDBRANCH  27  28
ENDBRANCH   8  27
TORSDOF 7
ENDMDL
MODEL 10
REMARK VINA RESULT:      -7.7      2.772      5.670
REMARK  7 active torsions:
REMARK  status: ('A' for Active; 'I' for Inactive)
REMARK    1  A    between atoms: N_2  and  C_4 
REMARK       I    between atoms: N_7  and  C_8 
REMARK    2  A    between atoms: C_8  and  C_9 
REMARK    3  A    between atoms: N_12  and  C_13 
REMARK    4  A    between atoms: C_20  and  C_21 
REMARK    5  A    between atoms: C_21  and  N_22 
REMARK    6  A    between atoms: N_22  and  C_25 
REMARK    7  A    between atoms: C_25  and  C_26 
ROOT
HETATM    1  C   UNL     1      42.627 -16.607   4.310  1.00  0.00     0.719 A 
HETATM    2  N   UNL     1      43.079 -15.607   5.161  1.00  0.00    -0.154 N 
HETATM    3  C   UNL     1      43.855 -16.260   6.127  1.00  0.00     0.083 A 
HETATM    4  C   UNL     1      44.513 -15.472   7.115  1.00  0.00     0.033 A 
HETATM    5  C   UNL     1      44.327 -14.138   7.126  1.00  0.00     0.004 A 
HETATM    6  C   UNL     1      43.456 -13.489   6.167  1.00  0.00     0.018 A 
HETATM    7  C   UNL     1      42.857 -14.227   5.217  1.00  0.00     0.115 A 
HETATM    8  C   UNL     1      43.736 -17.607   5.872  1.00  0.00     0.107 A 
HETATM    9  N   UNL     1      42.969 -17.815   4.746  1.00  0.00    -0.064 NA
ENDROOT
BRANCH   1  10
HETATM   10  N   UNL     1      41.904 -16.445   3.121  1.00  0.00    -0.147 N 
HETATM   11  C   UNL     1      41.007 -17.369   2.620  1.00  0.00     0.233 A 
HETATM   12  N   UNL     1      40.440 -16.982   1.500  1.00  0.00    -0.236 NA
HETATM   13  C   UNL     1      41.009 -15.764   1.200  1.00  0.00     0.142 A 
HETATM   14  C   UNL     1      41.925 -15.437   2.188  1.00  0.00     0.153 A 
BRANCH  13  15
HETATM   15  C   UNL     1      40.680 -14.897   0.054  1.00  0.00     0.273 C 
HETATM   16  N   UNL     1      39.864 -13.760   0.241  1.00  0.00    -0.347 N 
HETATM   17  C   UNL     1      38.775 -13.725   1.213  1.00  0.00     0.128 C 
HETATM   18  C   UNL     1      39.727 -12.877  -0.914  1.00  0.00     0.128 C 
HETATM   19  C   UNL     1      38.455 -12.298   1.642  1.00  0.00     0.053 C 
HETATM   20  C   UNL     1      38.186 -11.372   0.447  1.00  0.00     0.190 C 
HETATM   21  C   UNL     1      39.388 -11.448  -0.504  1.00  0.00     0.053 C 
HETATM   22  O   UNL     1      41.144 -15.157  -1.057  1.00  0.00    -0.266 OA
BRANCH  20  23
HETATM   23  N   UNL     1      36.867 -11.709  -0.274  1.00  0.00    -0.074 N 
HETATM   24  C   UNL     1      36.748 -11.029  -1.625  1.00  0.00     0.269 C 
HETATM   25  H   UNL     1      36.835 -12.720  -0.459  1.00  0.00     0.279 HD
HETATM   26  C   UNL     1      35.631 -11.386   0.541  1.00  0.00     0.269 C 
ENDBRANCH  20  23
ENDBRANCH  13  15
ENDBRANCH   1  10
BRANCH   8  27
HETATM   27  C   UNL     1      44.307 -18.766   6.616  1.00  0.00     0.294 C 
BRANCH  27  28
HETATM   28  N   UNL     1      43.982 -20.036   5.925  1.00  0.00    -0.064 N 
HETATM   29  H   UNL     1      43.713 -20.729   6.636  1.00  0.00     0.278 HD
HETATM   30  H   UNL     1      43.123 -19.921   5.373  1.00  0.00     0.278 HD
BRANCH  28  31
HETATM   31  C   UNL     1      45.045 -20.592   5.055  1.00  0.00     0.297 C 
BRANCH  31  32
HETATM   32  C   UNL     1      44.536 -20.930   3.704  1.00  0.00     0.078 A 
HETATM   33  O   UNL     1      44.174 -19.882   2.904  1.00  0.00    -0.325 OA
HETATM   34  C   UNL     1      43.753 -20.412   1.725  1.00  0.00     0.142 A 
HETATM   35  C   UNL     1      43.844 -21.784   1.756  1.00  0.00     0.027 A 
HETATM   36  C   UNL     1      44.350 -22.120   3.034  1.00  0.00     0.036 A 
ENDBRANCH  31  32
ENDBRANCH  28  31
ENDBRANCH  27  28
ENDBRANCH   8  27
TORSDOF 7
ENDMDL
