MODEL 1
REMARK VINA RESULT:      -8.1      0.000      0.000
REMARK  7 active torsions:
REMARK  status: ('A' for Active; 'I' for Inactive)
REMARK    1  A    between atoms: C_2  and  N_3 
REMARK    2  A    between atoms: C_6  and  C_7 
REMARK    3  A    between atoms: C_7  and  O_8 
REMARK    4  A    between atoms: O_8  and  C_9 
REMARK    5  A    between atoms: C_9  and  C_10 
REMARK    6  A    between atoms: C_12  and  N_13 
REMARK    7  A    between atoms: C_22  and  N_23 
ROOT
HETATM    1  O   UNL     1      45.242 -13.067   8.927  1.00  0.00    -0.310 OA
ENDROOT
BRANCH   1   2
HETATM    2  C   UNL     1      45.224 -11.745   9.264  1.00  0.00     0.299 C 
HETATM    3  O   UNL     1      46.063 -10.930   8.898  1.00  0.00    -0.259 OA
BRANCH   2   4
HETATM    4  C   UNL     1      44.121 -11.389  10.133  1.00  0.00     0.103 A 
HETATM    5  C   UNL     1      43.267 -10.275   9.975  1.00  0.00     0.160 A 
HETATM    6  N   UNL     1      42.342 -10.184  10.931  1.00  0.00    -0.182 NA
HETATM    7  N   UNL     1      42.629 -11.218  11.751  1.00  0.00    -0.250 N 
HETATM    8  C   UNL     1      43.657 -12.013  11.279  1.00  0.00     0.136 A 
BRANCH   7   9
HETATM    9  C   UNL     1      41.872 -11.381  12.991  1.00  0.00     0.104 C 
HETATM   10  C   UNL     1      40.371 -11.373  12.714  1.00  0.00     0.034 C 
HETATM   11  C   UNL     1      42.245 -10.336  14.047  1.00  0.00     0.034 C 
ENDBRANCH   7   9
BRANCH   8  12
HETATM   12  N   UNL     1      44.069 -13.142  11.902  1.00  0.00    -0.383 N 
HETATM   13  H   UNL     1      43.759 -13.306  12.861  1.00  0.00     0.157 HD
HETATM   14  H   UNL     1      44.979 -13.556  11.719  1.00  0.00     0.157 HD
ENDBRANCH   8  12
ENDBRANCH   2   4
ENDBRANCH   1   2
BRANCH   1  15
HETATM   15  C   UNL     1      45.253 -13.319   7.513  1.00  0.00     0.259 C 
BRANCH  15  16
HETATM   16  C   UNL     1      44.419 -14.506   7.076  1.00  0.00     0.152 A 
HETATM   17  N   UNL     1      44.218 -15.507   7.953  1.00  0.00    -0.219 NA
HETATM   18  C   UNL     1      43.486 -16.542   7.521  1.00  0.00     0.115 A 
HETATM   19  C   UNL     1      42.974 -16.640   6.222  1.00  0.00     0.033 A 
HETATM   20  C   UNL     1      43.261 -15.552   5.391  1.00  0.00     0.072 A 
HETATM   21  C   UNL     1      42.222 -17.730   5.720  1.00  0.00     0.017 A 
HETATM   22  N   UNL     1      43.979 -14.502   5.803  1.00  0.00    -0.231 NA
HETATM   23  C   UNL     1      42.782 -15.571   4.087  1.00  0.00     0.032 A 
HETATM   24  C   UNL     1      42.031 -16.641   3.590  1.00  0.00     0.002 A 
HETATM   25  C   UNL     1      41.752 -17.726   4.408  1.00  0.00     0.001 A 
BRANCH  18  26
HETATM   26  N   UNL     1      43.276 -17.550   8.473  1.00  0.00    -0.286 NA
HETATM   27  H   UNL     1      43.413 -18.437   7.993  1.00  0.00     0.125 HD
HETATM   28  H   UNL     1      43.922 -17.450   9.248  1.00  0.00     0.125 HD
ENDBRANCH  18  26
ENDBRANCH  15  16
ENDBRANCH   1  15
TORSDOF 7
ENDMDL
MODEL 2
REMARK VINA RESULT:      -7.9      7.043      9.773
REMARK  7 active torsions:
REMARK  status: ('A' for Active; 'I' for Inactive)
REMARK    1  A    between atoms: C_2  and  N_3 
REMARK    2  A    between atoms: C_6  and  C_7 
REMARK    3  A    between atoms: C_7  and  O_8 
REMARK    4  A    between atoms: O_8  and  C_9 
REMARK    5  A    between atoms: C_9  and  C_10 
REMARK    6  A    between atoms: C_12  and  N_13 
REMARK    7  A    between atoms: C_22  and  N_23 
ROOT
HETATM    1  O   UNL     1      40.643 -16.201   2.651  1.00  0.00    -0.310 OA
ENDROOT
BRANCH   1   2
HETATM    2  C   UNL     1      40.112 -15.006   2.262  1.00  0.00     0.299 C 
HETATM    3  O   UNL     1      39.629 -14.183   3.032  1.00  0.00    -0.259 OA
BRANCH   2   4
HETATM    4  C   UNL     1      40.144 -14.804   0.828  1.00  0.00     0.103 A 
HETATM    5  C   UNL     1      39.302 -13.938   0.093  1.00  0.00     0.160 A 
HETATM    6  N   UNL     1      39.544 -13.960  -1.218  1.00  0.00    -0.182 NA
HETATM    7  N   UNL     1      40.517 -14.889  -1.346  1.00  0.00    -0.250 N 
HETATM    8  C   UNL     1      40.956 -15.383  -0.133  1.00  0.00     0.136 A 
BRANCH   7   9
HETATM    9  C   UNL     1      40.976 -15.264  -2.682  1.00  0.00     0.104 C 
HETATM   10  C   UNL     1      41.326 -14.025  -3.503  1.00  0.00     0.034 C 
HETATM   11  C   UNL     1      39.970 -16.151  -3.422  1.00  0.00     0.034 C 
ENDBRANCH   7   9
BRANCH   8  12
HETATM   12  N   UNL     1      41.969 -16.273  -0.016  1.00  0.00    -0.383 N 
HETATM   13  H   UNL     1      42.417 -16.611  -0.870  1.00  0.00     0.157 HD
HETATM   14  H   UNL     1      41.995 -16.965   0.728  1.00  0.00     0.157 HD
ENDBRANCH   8  12
ENDBRANCH   2   4
ENDBRANCH   1   2
BRANCH   1  15
HETATM   15  C   UNL     1      41.777 -16.090   3.526  1.00  0.00     0.259 C 
BRANCH  15  16
HETATM   16  C   UNL     1      42.609 -17.350   3.644  1.00  0.00     0.152 A 
HETATM   17  N   UNL     1      43.462 -17.460   4.680  1.00  0.00    -0.219 NA
HETATM   18  C   UNL     1      44.188 -18.585   4.740  1.00  0.00     0.115 A 
HETATM   19  C   UNL     1      44.127 -19.597   3.775  1.00  0.00     0.033 A 
HETATM   20  C   UNL     1      43.221 -19.367   2.734  1.00  0.00     0.072 A 
HETATM   21  C   UNL     1      44.899 -20.785   3.787  1.00  0.00     0.017 A 
HETATM   22  N   UNL     1      42.477 -18.259   2.659  1.00  0.00    -0.231 NA
HETATM   23  C   UNL     1      43.098 -20.330   1.740  1.00  0.00     0.032 A 
HETATM   24  C   UNL     1      43.851 -21.508   1.752  1.00  0.00     0.002 A 
HETATM   25  C   UNL     1      44.757 -21.736   2.779  1.00  0.00     0.001 A 
BRANCH  18  26
HETATM   26  N   UNL     1      45.042 -18.674   5.847  1.00  0.00    -0.286 NA
HETATM   27  H   UNL     1      45.341 -17.724   6.062  1.00  0.00     0.125 HD
HETATM   28  H   UNL     1      44.564 -19.094   6.636  1.00  0.00     0.125 HD
ENDBRANCH  18  26
ENDBRANCH  15  16
ENDBRANCH   1  15
TORSDOF 7
ENDMDL
MODEL 3
REMARK VINA RESULT:      -7.8      5.756      7.614
REMARK  7 active torsions:
REMARK  status: ('A' for Active; 'I' for Inactive)
REMARK    1  A    between atoms: C_2  and  N_3 
REMARK    2  A    between atoms: C_6  and  C_7 
REMARK    3  A    between atoms: C_7  and  O_8 
REMARK    4  A    between atoms: O_8  and  C_9 
REMARK    5  A    between atoms: C_9  and  C_10 
REMARK    6  A    between atoms: C_12  and  N_13 
REMARK    7  A    between atoms: C_22  and  N_23 
ROOT
HETATM    1  O   UNL     1      41.917 -17.157   0.773  1.00  0.00    -0.310 OA
ENDROOT
BRANCH   1   2
HETATM    2  C   UNL     1      41.633 -15.835   0.584  1.00  0.00     0.299 C 
HETATM    3  O   UNL     1      41.383 -15.333  -0.506  1.00  0.00    -0.259 OA
BRANCH   2   4
HETATM    4  C   UNL     1      41.683 -15.058   1.806  1.00  0.00     0.103 A 
HETATM    5  C   UNL     1      42.134 -13.724   1.921  1.00  0.00     0.160 A 
HETATM    6  N   UNL     1      42.082 -13.260   3.170  1.00  0.00    -0.182 NA
HETATM    7  N   UNL     1      41.642 -14.318   3.885  1.00  0.00    -0.250 N 
HETATM    8  C   UNL     1      41.328 -15.410   3.097  1.00  0.00     0.136 A 
BRANCH   7   9
HETATM    9  C   UNL     1      41.555 -14.213   5.340  1.00  0.00     0.104 C 
HETATM   10  C   UNL     1      40.195 -13.662   5.763  1.00  0.00     0.034 C 
HETATM   11  C   UNL     1      42.697 -13.387   5.938  1.00  0.00     0.034 C 
ENDBRANCH   7   9
BRANCH   8  12
HETATM   12  N   UNL     1      40.806 -16.557   3.591  1.00  0.00    -0.383 N 
HETATM   13  H   UNL     1      39.838 -16.787   3.361  1.00  0.00     0.157 HD
HETATM   14  H   UNL     1      41.081 -16.928   4.497  1.00  0.00     0.157 HD
ENDBRANCH   8  12
ENDBRANCH   2   4
ENDBRANCH   1   2
BRANCH   1  15
HETATM   15  C   UNL     1      43.316 -17.450   0.906  1.00  0.00     0.259 C 
BRANCH  15  16
HETATM   16  C   UNL     1      43.666 -18.344   2.078  1.00  0.00     0.152 A 
HETATM   17  N   UNL     1      43.849 -17.777   3.285  1.00  0.00    -0.219 NA
HETATM   18  C   UNL     1      44.169 -18.602   4.291  1.00  0.00     0.115 A 
HETATM   19  C   UNL     1      44.357 -19.980   4.132  1.00  0.00     0.033 A 
HETATM   20  C   UNL     1      44.161 -20.456   2.831  1.00  0.00     0.072 A 
HETATM   21  C   UNL     1      44.725 -20.879   5.163  1.00  0.00     0.017 A 
HETATM   22  N   UNL     1      43.829 -19.655   1.814  1.00  0.00    -0.231 NA
HETATM   23  C   UNL     1      44.323 -21.815   2.593  1.00  0.00     0.032 A 
HETATM   24  C   UNL     1      44.677 -22.708   3.610  1.00  0.00     0.002 A 
HETATM   25  C   UNL     1      44.881 -22.238   4.899  1.00  0.00     0.001 A 
BRANCH  18  26
HETATM   26  N   UNL     1      44.323 -17.977   5.536  1.00  0.00    -0.286 NA
HETATM   27  H   UNL     1      44.511 -18.715   6.212  1.00  0.00     0.125 HD
HETATM   28  H   UNL     1      45.081 -17.305   5.508  1.00  0.00     0.125 HD
ENDBRANCH  18  26
ENDBRANCH  15  16
ENDBRANCH   1  15
TORSDOF 7
ENDMDL
MODEL 4
REMARK VINA RESULT:      -7.6      5.613      7.733
REMARK  7 active torsions:
REMARK  status: ('A' for Active; 'I' for Inactive)
REMARK    1  A    between atoms: C_2  and  N_3 
REMARK    2  A    between atoms: C_6  and  C_7 
REMARK    3  A    between atoms: C_7  and  O_8 
REMARK    4  A    between atoms: O_8  and  C_9 
REMARK    5  A    between atoms: C_9  and  C_10 
REMARK    6  A    between atoms: C_12  and  N_13 
REMARK    7  A    between atoms: C_22  and  N_23 
ROOT
HETATM    1  O   UNL     1      42.722 -16.095   5.962  1.00  0.00    -0.310 OA
ENDROOT
BRANCH   1   2
HETATM    2  C   UNL     1      42.853 -14.810   5.521  1.00  0.00     0.299 C 
HETATM    3  O   UNL     1      43.244 -13.879   6.216  1.00  0.00    -0.259 OA
BRANCH   2   4
HETATM    4  C   UNL     1      42.455 -14.634   4.139  1.00  0.00     0.103 A 
HETATM    5  C   UNL     1      42.898 -13.609   3.272  1.00  0.00     0.160 A 
HETATM    6  N   UNL     1      42.358 -13.684   2.055  1.00  0.00    -0.182 NA
HETATM    7  N   UNL     1      41.515 -14.736   2.144  1.00  0.00    -0.250 N 
HETATM    8  C   UNL     1      41.584 -15.381   3.364  1.00  0.00     0.136 A 
BRANCH   7   9
HETATM    9  C   UNL     1      40.656 -15.062   1.007  1.00  0.00     0.104 C 
HETATM   10  C   UNL     1      41.382 -15.980   0.026  1.00  0.00     0.034 C 
HETATM   11  C   UNL     1      40.116 -13.815   0.302  1.00  0.00     0.034 C 
ENDBRANCH   7   9
BRANCH   8  12
HETATM   12  N   UNL     1      40.878 -16.500   3.653  1.00  0.00    -0.383 N 
HETATM   13  H   UNL     1      40.242 -16.868   2.943  1.00  0.00     0.157 HD
HETATM   14  H   UNL     1      40.559 -16.707   4.595  1.00  0.00     0.157 HD
ENDBRANCH   8  12
ENDBRANCH   2   4
ENDBRANCH   1   2
BRANCH   1  15
HETATM   15  C   UNL     1      43.958 -16.821   6.051  1.00  0.00     0.259 C 
BRANCH  15  16
HETATM   16  C   UNL     1      44.079 -17.983   5.087  1.00  0.00     0.152 A 
HETATM   17  N   UNL     1      43.874 -17.754   3.777  1.00  0.00    -0.219 NA
HETATM   18  C   UNL     1      43.978 -18.811   2.961  1.00  0.00     0.115 A 
HETATM   19  C   UNL     1      44.241 -20.111   3.409  1.00  0.00     0.033 A 
HETATM   20  C   UNL     1      44.416 -20.235   4.792  1.00  0.00     0.072 A 
HETATM   21  C   UNL     1      44.329 -21.258   2.583  1.00  0.00     0.017 A 
HETATM   22  N   UNL     1      44.329 -19.193   5.624  1.00  0.00    -0.231 NA
HETATM   23  C   UNL     1      44.687 -21.494   5.314  1.00  0.00     0.032 A 
HETATM   24  C   UNL     1      44.784 -22.628   4.501  1.00  0.00     0.002 A 
HETATM   25  C   UNL     1      44.601 -22.510   3.130  1.00  0.00     0.001 A 
BRANCH  18  26
HETATM   26  N   UNL     1      43.786 -18.526   1.603  1.00  0.00    -0.286 NA
HETATM   27  H   UNL     1      42.851 -18.851   1.366  1.00  0.00     0.125 HD
HETATM   28  H   UNL     1      43.883 -17.532   1.428  1.00  0.00     0.125 HD
ENDBRANCH  18  26
ENDBRANCH  15  16
ENDBRANCH   1  15
TORSDOF 7
ENDMDL
MODEL 5
REMARK VINA RESULT:      -7.6      2.760      8.538
REMARK  7 active torsions:
REMARK  status: ('A' for Active; 'I' for Inactive)
REMARK    1  A    between atoms: C_2  and  N_3 
REMARK    2  A    between atoms: C_6  and  C_7 
REMARK    3  A    between atoms: C_7  and  O_8 
REMARK    4  A    between atoms: O_8  and  C_9 
REMARK    5  A    between atoms: C_9  and  C_10 
REMARK    6  A    between atoms: C_12  and  N_13 
REMARK    7  A    between atoms: C_22  and  N_23 
ROOT
HETATM    1  O   UNL     1      43.392 -15.389   6.623  1.00  0.00    -0.310 OA
ENDROOT
BRANCH   1   2
HETATM    2  C   UNL     1      43.347 -16.723   6.910  1.00  0.00     0.299 C 
HETATM    3  O   UNL     1      43.213 -17.181   8.039  1.00  0.00    -0.259 OA
BRANCH   2   4
HETATM    4  C   UNL     1      43.506 -17.566   5.742  1.00  0.00     0.103 A 
HETATM    5  C   UNL     1      44.369 -18.680   5.635  1.00  0.00     0.160 A 
HETATM    6  N   UNL     1      44.322 -19.266   4.438  1.00  0.00    -0.182 NA
HETATM    7  N   UNL     1      43.459 -18.495   3.740  1.00  0.00    -0.250 N 
HETATM    8  C   UNL     1      42.893 -17.491   4.503  1.00  0.00     0.136 A 
BRANCH   7   9
HETATM    9  C   UNL     1      43.231 -18.777   2.324  1.00  0.00     0.104 C 
HETATM   10  C   UNL     1      43.582 -20.227   1.998  1.00  0.00     0.034 C 
HETATM   11  C   UNL     1      43.977 -17.807   1.404  1.00  0.00     0.034 C 
ENDBRANCH   7   9
BRANCH   8  12
HETATM   12  N   UNL     1      41.951 -16.641   4.030  1.00  0.00    -0.383 N 
HETATM   13  H   UNL     1      42.191 -16.048   3.233  1.00  0.00     0.157 HD
HETATM   14  H   UNL     1      41.268 -16.201   4.640  1.00  0.00     0.157 HD
ENDBRANCH   8  12
ENDBRANCH   2   4
ENDBRANCH   1   2
BRANCH   1  15
HETATM   15  C   UNL     1      44.716 -14.865   6.444  1.00  0.00     0.259 C 
BRANCH  15  16
HETATM   16  C   UNL     1      45.076 -13.725   7.374  1.00  0.00     0.152 A 
HETATM   17  N   UNL     1      46.215 -13.044   7.146  1.00  0.00    -0.219 NA
HETATM   18  C   UNL     1      46.501 -12.052   7.999  1.00  0.00     0.115 A 
HETATM   19  C   UNL     1      45.709 -11.734   9.109  1.00  0.00     0.033 A 
HETATM   20  C   UNL     1      44.562 -12.520   9.260  1.00  0.00     0.072 A 
HETATM   21  C   UNL     1      45.994 -10.714  10.050  1.00  0.00     0.017 A 
HETATM   22  N   UNL     1      44.248 -13.506   8.414  1.00  0.00    -0.231 NA
HETATM   23  C   UNL     1      43.720 -12.261  10.335  1.00  0.00     0.032 A 
HETATM   24  C   UNL     1      43.992 -11.249  11.261  1.00  0.00     0.002 A 
HETATM   25  C   UNL     1      45.135 -10.474  11.120  1.00  0.00     0.001 A 
BRANCH  18  26
HETATM   26  N   UNL     1      47.679 -11.351   7.710  1.00  0.00    -0.286 NA
HETATM   27  H   UNL     1      48.451 -11.981   7.916  1.00  0.00     0.125 HD
HETATM   28  H   UNL     1      47.693 -11.060   6.739  1.00  0.00     0.125 HD
ENDBRANCH  18  26
ENDBRANCH  15  16
ENDBRANCH   1  15
TORSDOF 7
ENDMDL
MODEL 6
REMARK VINA RESULT:      -7.4      5.587      7.687
REMARK  7 active torsions:
REMARK  status: ('A' for Active; 'I' for Inactive)
REMARK    1  A    between atoms: C_2  and  N_3 
REMARK    2  A    between atoms: C_6  and  C_7 
REMARK    3  A    between atoms: C_7  and  O_8 
REMARK    4  A    between atoms: O_8  and  C_9 
REMARK    5  A    between atoms: C_9  and  C_10 
REMARK    6  A    between atoms: C_12  and  N_13 
REMARK    7  A    between atoms: C_22  and  N_23 
ROOT
HETATM    1  O   UNL     1      41.299 -14.675   5.775  1.00  0.00    -0.310 OA
ENDROOT
BRANCH   1   2
HETATM    2  C   UNL     1      40.383 -13.968   5.051  1.00  0.00     0.299 C 
HETATM    3  O   UNL     1      39.548 -13.217   5.542  1.00  0.00    -0.259 OA
BRANCH   2   4
HETATM    4  C   UNL     1      40.468 -14.210   3.625  1.00  0.00     0.103 A 
HETATM    5  C   UNL     1      39.407 -14.091   2.699  1.00  0.00     0.160 A 
HETATM    6  N   UNL     1      39.767 -14.387   1.450  1.00  0.00    -0.182 NA
HETATM    7  N   UNL     1      41.062 -14.754   1.570  1.00  0.00    -0.250 N 
HETATM    8  C   UNL     1      41.549 -14.605   2.855  1.00  0.00     0.136 A 
BRANCH   7   9
HETATM    9  C   UNL     1      41.776 -15.253   0.396  1.00  0.00     0.104 C 
HETATM   10  C   UNL     1      41.242 -14.604  -0.879  1.00  0.00     0.034 C 
HETATM   11  C   UNL     1      41.745 -16.780   0.295  1.00  0.00     0.034 C 
ENDBRANCH   7   9
BRANCH   8  12
HETATM   12  N   UNL     1      42.837 -14.848   3.194  1.00  0.00    -0.383 N 
HETATM   13  H   UNL     1      43.367 -14.103   3.649  1.00  0.00     0.157 HD
HETATM   14  H   UNL     1      43.434 -15.456   2.640  1.00  0.00     0.157 HD
ENDBRANCH   8  12
ENDBRANCH   2   4
ENDBRANCH   1   2
BRANCH   1  15
HETATM   15  C   UNL     1      40.837 -15.959   6.223  1.00  0.00     0.259 C 
BRANCH  15  16
HETATM   16  C   UNL     1      41.833 -17.086   6.044  1.00  0.00     0.152 A 
HETATM   17  N   UNL     1      42.425 -17.600   7.139  1.00  0.00    -0.219 NA
HETATM   18  C   UNL     1      43.308 -18.586   6.935  1.00  0.00     0.115 A 
HETATM   19  C   UNL     1      43.660 -19.058   5.665  1.00  0.00     0.033 A 
HETATM   20  C   UNL     1      42.998 -18.439   4.600  1.00  0.00     0.072 A 
HETATM   21  C   UNL     1      44.610 -20.077   5.407  1.00  0.00     0.017 A 
HETATM   22  N   UNL     1      42.104 -17.462   4.779  1.00  0.00    -0.231 NA
HETATM   23  C   UNL     1      43.289 -18.857   3.307  1.00  0.00     0.032 A 
HETATM   24  C   UNL     1      44.219 -19.869   3.048  1.00  0.00     0.002 A 
HETATM   25  C   UNL     1      44.885 -20.480   4.102  1.00  0.00     0.001 A 
BRANCH  18  26
HETATM   26  N   UNL     1      43.880 -19.112   8.101  1.00  0.00    -0.286 NA
HETATM   27  H   UNL     1      43.850 -20.126   8.009  1.00  0.00     0.125 HD
HETATM   28  H   UNL     1      44.832 -18.783   8.213  1.00  0.00     0.125 HD
ENDBRANCH  18  26
ENDBRANCH  15  16
ENDBRANCH   1  15
TORSDOF 7
ENDMDL
MODEL 7
REMARK VINA RESULT:      -7.2      6.606      9.642
REMARK  7 active torsions:
REMARK  status: ('A' for Active; 'I' for Inactive)
REMARK    1  A    between atoms: C_2  and  N_3 
REMARK    2  A    between atoms: C_6  and  C_7 
REMARK    3  A    between atoms: C_7  and  O_8 
REMARK    4  A    between atoms: O_8  and  C_9 
REMARK    5  A    between atoms: C_9  and  C_10 
REMARK    6  A    between atoms: C_12  and  N_13 
REMARK    7  A    between atoms: C_22  and  N_23 
ROOT
HETATM    1  O   UNL     1      38.838 -15.412   1.886  1.00  0.00    -0.310 OA
ENDROOT
BRANCH   1   2
HETATM    2  C   UNL     1      38.328 -14.446   1.068  1.00  0.00     0.299 C 
HETATM    3  O   UNL     1      37.137 -14.168   0.989  1.00  0.00    -0.259 OA
BRANCH   2   4
HETATM    4  C   UNL     1      39.336 -13.786   0.264  1.00  0.00     0.103 A 
HETATM    5  C   UNL     1      39.448 -12.392   0.054  1.00  0.00     0.160 A 
HETATM    6  N   UNL     1      40.465 -12.062  -0.742  1.00  0.00    -0.182 NA
HETATM    7  N   UNL     1      40.990 -13.255  -1.099  1.00  0.00    -0.250 N 
HETATM    8  C   UNL     1      40.382 -14.324  -0.468  1.00  0.00     0.136 A 
BRANCH   7   9
HETATM    9  C   UNL     1      42.083 -13.294  -2.069  1.00  0.00     0.104 C 
HETATM   10  C   UNL     1      42.936 -12.031  -1.976  1.00  0.00     0.034 C 
HETATM   11  C   UNL     1      41.590 -13.525  -3.500  1.00  0.00     0.034 C 
ENDBRANCH   7   9
BRANCH   8  12
HETATM   12  N   UNL     1      40.787 -15.606  -0.622  1.00  0.00    -0.383 N 
HETATM   13  H   UNL     1      41.105 -15.906  -1.546  1.00  0.00     0.157 HD
HETATM   14  H   UNL     1      40.372 -16.369  -0.096  1.00  0.00     0.157 HD
ENDBRANCH   8  12
ENDBRANCH   2   4
ENDBRANCH   1   2
BRANCH   1  15
HETATM   15  C   UNL     1      39.775 -14.930   2.862  1.00  0.00     0.259 C 
BRANCH  15  16
HETATM   16  C   UNL     1      40.791 -15.955   3.323  1.00  0.00     0.152 A 
HETATM   17  N   UNL     1      41.129 -15.981   4.626  1.00  0.00    -0.219 NA
HETATM   18  C   UNL     1      42.040 -16.894   4.989  1.00  0.00     0.115 A 
HETATM   19  C   UNL     1      42.664 -17.765   4.088  1.00  0.00     0.033 A 
HETATM   20  C   UNL     1      42.250 -17.635   2.758  1.00  0.00     0.072 A 
HETATM   21  C   UNL     1      43.652 -18.722   4.428  1.00  0.00     0.017 A 
HETATM   22  N   UNL     1      41.334 -16.741   2.374  1.00  0.00    -0.231 NA
HETATM   23  C   UNL     1      42.820 -18.469   1.804  1.00  0.00     0.032 A 
HETATM   24  C   UNL     1      43.788 -19.422   2.136  1.00  0.00     0.002 A 
HETATM   25  C   UNL     1      44.208 -19.547   3.453  1.00  0.00     0.001 A 
BRANCH  18  26
HETATM   26  N   UNL     1      42.343 -16.908   6.357  1.00  0.00    -0.286 NA
HETATM   27  H   UNL     1      43.026 -16.169   6.512  1.00  0.00     0.125 HD
HETATM   28  H   UNL     1      41.508 -16.756   6.911  1.00  0.00     0.125 HD
ENDBRANCH  18  26
ENDBRANCH  15  16
ENDBRANCH   1  15
TORSDOF 7
ENDMDL
MODEL 8
REMARK VINA RESULT:      -7.1      6.020      8.948
REMARK  7 active torsions:
REMARK  status: ('A' for Active; 'I' for Inactive)
REMARK    1  A    between atoms: C_2  and  N_3 
REMARK    2  A    between atoms: C_6  and  C_7 
REMARK    3  A    between atoms: C_7  and  O_8 
REMARK    4  A    between atoms: O_8  and  C_9 
REMARK    5  A    between atoms: C_9  and  C_10 
REMARK    6  A    between atoms: C_12  and  N_13 
REMARK    7  A    between atoms: C_22  and  N_23 
ROOT
HETATM    1  O   UNL     1      42.114 -15.477   3.167  1.00  0.00    -0.310 OA
ENDROOT
BRANCH   1   2
HETATM    2  C   UNL     1      42.576 -14.385   2.492  1.00  0.00     0.299 C 
HETATM    3  O   UNL     1      43.385 -13.585   2.948  1.00  0.00    -0.259 OA
BRANCH   2   4
HETATM    4  C   UNL     1      41.992 -14.235   1.174  1.00  0.00     0.103 A 
HETATM    5  C   UNL     1      41.977 -13.051   0.403  1.00  0.00     0.160 A 
HETATM    6  N   UNL     1      41.359 -13.198  -0.770  1.00  0.00    -0.182 NA
HETATM    7  N   UNL     1      40.921 -14.475  -0.741  1.00  0.00    -0.250 N 
HETATM    8  C   UNL     1      41.330 -15.162   0.386  1.00  0.00     0.136 A 
BRANCH   7   9
HETATM    9  C   UNL     1      40.094 -14.973  -1.839  1.00  0.00     0.104 C 
HETATM   10  C   UNL     1      40.966 -15.508  -2.973  1.00  0.00     0.034 C 
HETATM   11  C   UNL     1      39.104 -13.923  -2.351  1.00  0.00     0.034 C 
ENDBRANCH   7   9
BRANCH   8  12
HETATM   12  N   UNL     1      41.064 -16.473   0.594  1.00  0.00    -0.383 N 
HETATM   13  H   UNL     1      41.187 -16.848   1.537  1.00  0.00     0.157 HD
HETATM   14  H   UNL     1      41.230 -17.176  -0.120  1.00  0.00     0.157 HD
ENDBRANCH   8  12
ENDBRANCH   2   4
ENDBRANCH   1   2
BRANCH   1  15
HETATM   15  C   UNL     1      42.646 -15.624   4.493  1.00  0.00     0.259 C 
BRANCH  15  16
HETATM   16  C   UNL     1      43.092 -17.030   4.842  1.00  0.00     0.152 A 
HETATM   17  N   UNL     1      43.149 -17.380   6.140  1.00  0.00    -0.219 NA
HETATM   18  C   UNL     1      43.559 -18.627   6.406  1.00  0.00     0.115 A 
HETATM   19  C   UNL     1      43.959 -19.536   5.420  1.00  0.00     0.033 A 
HETATM   20  C   UNL     1      43.878 -19.058   4.108  1.00  0.00     0.072 A 
HETATM   21  C   UNL     1      44.427 -20.851   5.662  1.00  0.00     0.017 A 
HETATM   22  N   UNL     1      43.459 -17.822   3.817  1.00  0.00    -0.231 NA
HETATM   23  C   UNL     1      44.251 -19.904   3.071  1.00  0.00     0.032 A 
HETATM   24  C   UNL     1      44.705 -21.206   3.304  1.00  0.00     0.002 A 
HETATM   25  C   UNL     1      44.796 -21.681   4.605  1.00  0.00     0.001 A 
BRANCH  18  26
HETATM   26  N   UNL     1      43.577 -18.962   7.766  1.00  0.00    -0.286 NA
HETATM   27  H   UNL     1      43.579 -19.979   7.817  1.00  0.00     0.125 HD
HETATM   28  H   UNL     1      44.396 -18.572   8.220  1.00  0.00     0.125 HD
ENDBRANCH  18  26
ENDBRANCH  15  16
ENDBRANCH   1  15
TORSDOF 7
ENDMDL
MODEL 9
REMARK VINA RESULT:      -7.1      6.516      9.259
REMARK  7 active torsions:
REMARK  status: ('A' for Active; 'I' for Inactive)
REMARK    1  A    between atoms: C_2  and  N_3 
REMARK    2  A    between atoms: C_6  and  C_7 
REMARK    3  A    between atoms: C_7  and  O_8 
REMARK    4  A    between atoms: O_8  and  C_9 
REMARK    5  A    between atoms: C_9  and  C_10 
REMARK    6  A    between atoms: C_12  and  N_13 
REMARK    7  A    between atoms: C_22  and  N_23 
ROOT
HETATM    1  O   UNL     1      42.996 -14.280   3.504  1.00  0.00    -0.310 OA
ENDROOT
BRANCH   1   2
HETATM    2  C   UNL     1      42.179 -15.141   4.177  1.00  0.00     0.299 C 
HETATM    3  O   UNL     1      41.193 -14.796   4.818  1.00  0.00    -0.259 OA
BRANCH   2   4
HETATM    4  C   UNL     1      42.605 -16.523   4.089  1.00  0.00     0.103 A 
HETATM    5  C   UNL     1      42.387 -17.522   5.065  1.00  0.00     0.160 A 
HETATM    6  N   UNL     1      42.900 -18.705   4.726  1.00  0.00    -0.182 NA
HETATM    7  N   UNL     1      43.504 -18.463   3.542  1.00  0.00    -0.250 N 
HETATM    8  C   UNL     1      43.302 -17.175   3.085  1.00  0.00     0.136 A 
BRANCH   7   9
HETATM    9  C   UNL     1      44.276 -19.527   2.903  1.00  0.00     0.104 C 
HETATM   10  C   UNL     1      43.400 -20.331   1.944  1.00  0.00     0.034 C 
HETATM   11  C   UNL     1      44.970 -20.441   3.917  1.00  0.00     0.034 C 
ENDBRANCH   7   9
BRANCH   8  12
HETATM   12  N   UNL     1      43.757 -16.730   1.890  1.00  0.00    -0.383 N 
HETATM   13  H   UNL     1      44.593 -16.143   1.879  1.00  0.00     0.157 HD
HETATM   14  H   UNL     1      43.129 -16.515   1.121  1.00  0.00     0.157 HD
ENDBRANCH   8  12
ENDBRANCH   2   4
ENDBRANCH   1   2
BRANCH   1  15
HETATM   15  C   UNL     1      42.319 -13.157   2.917  1.00  0.00     0.259 C 
BRANCH  15  16
HETATM   16  C   UNL     1      42.122 -13.251   1.418  1.00  0.00     0.152 A 
HETATM   17  N   UNL     1      41.639 -14.397   0.905  1.00  0.00    -0.219 NA
HETATM   18  C   UNL     1      41.492 -14.442  -0.426  1.00  0.00     0.115 A 
HETATM   19  C   UNL     1      41.851 -13.392  -1.280  1.00  0.00     0.033 A 
HETATM   20  C   UNL     1      42.362 -12.258  -0.639  1.00  0.00     0.072 A 
HETATM   21  C   UNL     1      41.740 -13.413  -2.692  1.00  0.00     0.017 A 
HETATM   22  N   UNL     1      42.505 -12.185   0.688  1.00  0.00    -0.231 NA
HETATM   23  C   UNL     1      42.735 -11.170  -1.418  1.00  0.00     0.032 A 
HETATM   24  C   UNL     1      42.618 -11.182  -2.812  1.00  0.00     0.002 A 
HETATM   25  C   UNL     1      42.121 -12.309  -3.452  1.00  0.00     0.001 A 
BRANCH  18  26
HETATM   26  N   UNL     1      40.960 -15.641  -0.918  1.00  0.00    -0.286 NA
HETATM   27  H   UNL     1      41.749 -16.259  -1.097  1.00  0.00     0.125 HD
HETATM   28  H   UNL     1      40.320 -16.051  -0.246  1.00  0.00     0.125 HD
ENDBRANCH  18  26
ENDBRANCH  15  16
ENDBRANCH   1  15
TORSDOF 7
ENDMDL
MODEL 10
REMARK VINA RESULT:      -7.1      7.261      9.282
REMARK  7 active torsions:
REMARK  status: ('A' for Active; 'I' for Inactive)
REMARK    1  A    between atoms: C_2  and  N_3 
REMARK    2  A    between atoms: C_6  and  C_7 
REMARK    3  A    between atoms: C_7  and  O_8 
REMARK    4  A    between atoms: O_8  and  C_9 
REMARK    5  A    between atoms: C_9  and  C_10 
REMARK    6  A    between atoms: C_12  and  N_13 
REMARK    7  A    between atoms: C_22  and  N_23 
ROOT
HETATM    1  O   UNL     1      41.556 -16.720   1.824  1.00  0.00    -0.310 OA
ENDROOT
BRANCH   1   2
HETATM    2  C   UNL     1      41.384 -15.452   2.298  1.00  0.00     0.299 C 
HETATM    3  O   UNL     1      41.049 -15.185   3.446  1.00  0.00    -0.259 OA
BRANCH   2   4
HETATM    4  C   UNL     1      41.607 -14.430   1.295  1.00  0.00     0.103 A 
HETATM    5  C   UNL     1      42.203 -13.168   1.516  1.00  0.00     0.160 A 
HETATM    6  N   UNL     1      42.271 -12.421   0.413  1.00  0.00    -0.182 NA
HETATM    7  N   UNL     1      41.667 -13.182  -0.525  1.00  0.00    -0.250 N 
HETATM    8  C   UNL     1      41.303 -14.431  -0.056  1.00  0.00     0.136 A 
BRANCH   7   9
HETATM    9  C   UNL     1      41.461 -12.637  -1.865  1.00  0.00     0.104 C 
HETATM   10  C   UNL     1      42.769 -12.627  -2.653  1.00  0.00     0.034 C 
HETATM   11  C   UNL     1      40.819 -11.247  -1.842  1.00  0.00     0.034 C 
ENDBRANCH   7   9
BRANCH   8  12
HETATM   12  N   UNL     1      40.744 -15.384  -0.838  1.00  0.00    -0.383 N 
HETATM   13  H   UNL     1      39.727 -15.476  -0.837  1.00  0.00     0.157 HD
HETATM   14  H   UNL     1      41.206 -16.270  -1.021  1.00  0.00     0.157 HD
ENDBRANCH   8  12
ENDBRANCH   2   4
ENDBRANCH   1   2
BRANCH   1  15
HETATM   15  C   UNL     1      42.927 -17.098   1.624  1.00  0.00     0.259 C 
BRANCH  15  16
HETATM   16  C   UNL     1      43.440 -18.150   2.586  1.00  0.00     0.152 A 
HETATM   17  N   UNL     1      43.802 -17.766   3.824  1.00  0.00    -0.219 NA
HETATM   18  C   UNL     1      44.261 -18.725   4.638  1.00  0.00     0.115 A 
HETATM   19  C   UNL     1      44.415 -20.061   4.249  1.00  0.00     0.033 A 
HETATM   20  C   UNL     1      44.027 -20.342   2.935  1.00  0.00     0.072 A 
HETATM   21  C   UNL     1      44.925 -21.097   5.070  1.00  0.00     0.017 A 
HETATM   22  N   UNL     1      43.554 -19.404   2.108  1.00  0.00    -0.231 NA
HETATM   23  C   UNL     1      44.144 -21.648   2.476  1.00  0.00     0.032 A 
HETATM   24  C   UNL     1      44.638 -22.676   3.285  1.00  0.00     0.002 A 
HETATM   25  C   UNL     1      45.033 -22.399   4.586  1.00  0.00     0.001 A 
BRANCH  18  26
HETATM   26  N   UNL     1      44.600 -18.290   5.926  1.00  0.00    -0.286 NA
HETATM   27  H   UNL     1      43.800 -17.768   6.277  1.00  0.00     0.125 HD
HETATM   28  H   UNL     1      44.814 -19.078   6.526  1.00  0.00     0.125 HD
ENDBRANCH  18  26
ENDBRANCH  15  16
ENDBRANCH   1  15
TORSDOF 7
ENDMDL
