MODEL 1
REMARK VINA RESULT:      -9.2      0.000      0.000
REMARK  5 active torsions:
REMARK  status: ('A' for Active; 'I' for Inactive)
REMARK    1  A    between atoms: C_7  and  C_8 
REMARK    2  A    between atoms: N_9  and  N_10 
REMARK       I    between atoms: N_10  and  C_11 
REMARK    3  A    between atoms: C_11  and  C_12 
REMARK    4  A    between atoms: C_12  and  N_13 
REMARK       I    between atoms: N_13  and  C_14 
REMARK    5  A    between atoms: C_14  and  C_15 
ROOT
HETATM    1  N   UNL     1      43.638 -13.994   6.984  1.00  0.00    -0.246 N 
HETATM    2  C   UNL     1      44.262 -13.124   7.865  1.00  0.00     0.255 C 
HETATM    3  O   UNL     1      45.305 -13.341   8.479  1.00  0.00    -0.270 OA
HETATM    4  H   UNL     1      42.818 -13.670   6.461  1.00  0.00     0.192 HD
ENDROOT
BRANCH   1   5
HETATM    5  N   UNL     1      44.134 -15.247   6.782  1.00  0.00    -0.184 NA
HETATM    6  C   UNL     1      43.356 -16.057   6.141  1.00  0.00     0.153 C 
BRANCH   6   7
HETATM    7  C   UNL     1      43.769 -17.429   5.895  1.00  0.00     0.018 A 
HETATM    8  C   UNL     1      44.089 -18.389   6.847  1.00  0.00     0.018 A 
HETATM    9  C   UNL     1      44.115 -18.325   8.334  1.00  0.00     0.069 C 
HETATM   10  N   UNL     1      44.413 -19.545   6.183  1.00  0.00    -0.358 N 
HETATM   11  H   UNL     1      44.684 -20.411   6.626  1.00  0.00     0.166 HD
HETATM   12  C   UNL     1      44.309 -19.370   4.824  1.00  0.00     0.043 A 
HETATM   13  C   UNL     1      43.909 -18.052   4.610  1.00  0.00     0.004 A 
HETATM   14  C   UNL     1      44.539 -20.277   3.782  1.00  0.00     0.030 A 
HETATM   15  C   UNL     1      43.728 -17.619   3.277  1.00  0.00     0.014 A 
HETATM   16  C   UNL     1      43.952 -18.512   2.222  1.00  0.00     0.001 A 
HETATM   17  C   UNL     1      44.352 -19.822   2.474  1.00  0.00     0.002 A 
ENDBRANCH   6   7
ENDBRANCH   1   5
BRANCH   2  18
HETATM   18  C   UNL     1      43.477 -11.825   8.058  1.00  0.00     0.227 C 
BRANCH  18  19
HETATM   19  N   UNL     1      43.062 -11.600   9.434  1.00  0.00    -0.348 N 
HETATM   20  C   UNL     1      43.783 -10.790  10.281  1.00  0.00     0.252 C 
HETATM   21  O   UNL     1      44.864 -10.302   9.968  1.00  0.00    -0.268 OA
HETATM   22  H   UNL     1      42.328 -12.191   9.804  1.00  0.00     0.163 HD
BRANCH  20  23
HETATM   23  C   UNL     1      43.207 -10.577  11.635  1.00  0.00     0.032 A 
HETATM   24  C   UNL     1      43.840  -9.677  12.501  1.00  0.00     0.018 A 
HETATM   25  C   UNL     1      43.312  -9.441  13.774  1.00  0.00     0.025 A 
HETATM   26  C   UNL     1      42.146 -10.095  14.172  1.00  0.00     0.034 A 
HETATM   27 CL   UNL     1      41.489  -9.798  15.734  1.00  0.00    -0.084 Cl
HETATM   28  C   UNL     1      41.502 -10.982  13.309  1.00  0.00     0.025 A 
HETATM   29  C   UNL     1      42.031 -11.224  12.037  1.00  0.00     0.018 A 
ENDBRANCH  20  23
ENDBRANCH  18  19
ENDBRANCH   2  18
TORSDOF 5
ENDMDL
MODEL 2
REMARK VINA RESULT:      -9.0      1.915      2.230
REMARK  5 active torsions:
REMARK  status: ('A' for Active; 'I' for Inactive)
REMARK    1  A    between atoms: C_7  and  C_8 
REMARK    2  A    between atoms: N_9  and  N_10 
REMARK       I    between atoms: N_10  and  C_11 
REMARK    3  A    between atoms: C_11  and  C_12 
REMARK    4  A    between atoms: C_12  and  N_13 
REMARK       I    between atoms: N_13  and  C_14 
REMARK    5  A    between atoms: C_14  and  C_15 
ROOT
HETATM    1  N   UNL     1      42.403 -14.424   6.345  1.00  0.00    -0.246 N 
HETATM    2  C   UNL     1      42.445 -13.286   5.552  1.00  0.00     0.255 C 
HETATM    3  O   UNL     1      43.085 -13.154   4.511  1.00  0.00    -0.270 OA
HETATM    4  H   UNL     1      41.763 -14.450   7.144  1.00  0.00     0.192 HD
ENDROOT
BRANCH   1   5
HETATM    5  N   UNL     1      43.170 -15.507   6.038  1.00  0.00    -0.184 NA
HETATM    6  C   UNL     1      42.530 -16.624   5.910  1.00  0.00     0.153 C 
BRANCH   6   7
HETATM    7  C   UNL     1      43.249 -17.852   5.613  1.00  0.00     0.018 A 
HETATM    8  C   UNL     1      43.911 -18.672   6.519  1.00  0.00     0.018 A 
HETATM    9  C   UNL     1      44.088 -18.563   7.993  1.00  0.00     0.069 C 
HETATM   10  N   UNL     1      44.441 -19.725   5.818  1.00  0.00    -0.358 N 
HETATM   11  H   UNL     1      44.975 -20.481   6.224  1.00  0.00     0.166 HD
HETATM   12  C   UNL     1      44.143 -19.620   4.481  1.00  0.00     0.043 A 
HETATM   13  C   UNL     1      43.397 -18.453   4.319  1.00  0.00     0.004 A 
HETATM   14  C   UNL     1      44.477 -20.467   3.417  1.00  0.00     0.030 A 
HETATM   15  C   UNL     1      42.961 -18.117   3.018  1.00  0.00     0.014 A 
HETATM   16  C   UNL     1      43.285 -18.953   1.942  1.00  0.00     0.001 A 
HETATM   17  C   UNL     1      44.032 -20.110   2.141  1.00  0.00     0.002 A 
ENDBRANCH   6   7
ENDBRANCH   1   5
BRANCH   2  18
HETATM   18  C   UNL     1      41.625 -12.136   6.137  1.00  0.00     0.227 C 
BRANCH  18  19
HETATM   19  N   UNL     1      42.032 -11.762   7.483  1.00  0.00    -0.348 N 
HETATM   20  C   UNL     1      42.099 -10.445   7.875  1.00  0.00     0.252 C 
HETATM   21  O   UNL     1      41.929  -9.513   7.095  1.00  0.00    -0.268 OA
HETATM   22  H   UNL     1      42.433 -12.484   8.068  1.00  0.00     0.163 HD
BRANCH  20  23
HETATM   23  C   UNL     1      42.449 -10.200   9.299  1.00  0.00     0.032 A 
HETATM   24  C   UNL     1      43.634 -10.748   9.805  1.00  0.00     0.018 A 
HETATM   25  C   UNL     1      44.000 -10.519  11.135  1.00  0.00     0.025 A 
HETATM   26  C   UNL     1      43.188  -9.732  11.950  1.00  0.00     0.034 A 
HETATM   27 CL   UNL     1      43.642  -9.441  13.584  1.00  0.00    -0.084 Cl
HETATM   28  C   UNL     1      42.014  -9.169  11.449  1.00  0.00     0.025 A 
HETATM   29  C   UNL     1      41.642  -9.401  10.121  1.00  0.00     0.018 A 
ENDBRANCH  20  23
ENDBRANCH  18  19
ENDBRANCH   2  18
TORSDOF 5
ENDMDL
MODEL 3
REMARK VINA RESULT:      -8.9      7.117      9.467
REMARK  5 active torsions:
REMARK  status: ('A' for Active; 'I' for Inactive)
REMARK    1  A    between atoms: C_7  and  C_8 
REMARK    2  A    between atoms: N_9  and  N_10 
REMARK       I    between atoms: N_10  and  C_11 
REMARK    3  A    between atoms: C_11  and  C_12 
REMARK    4  A    between atoms: C_12  and  N_13 
REMARK       I    between atoms: N_13  and  C_14 
REMARK    5  A    between atoms: C_14  and  C_15 
ROOT
HETATM    1  N   UNL     1      42.897 -15.078   2.479  1.00  0.00    -0.246 N 
HETATM    2  C   UNL     1      43.150 -13.856   3.084  1.00  0.00     0.255 C 
HETATM    3  O   UNL     1      44.042 -13.624   3.897  1.00  0.00    -0.270 OA
HETATM    4  H   UNL     1      42.181 -15.132   1.747  1.00  0.00     0.192 HD
ENDROOT
BRANCH   1   5
HETATM    5  N   UNL     1      43.619 -16.181   2.821  1.00  0.00    -0.184 NA
HETATM    6  C   UNL     1      43.036 -16.997   3.638  1.00  0.00     0.153 C 
BRANCH   6   7
HETATM    7  C   UNL     1      43.724 -18.192   4.096  1.00  0.00     0.018 A 
HETATM    8  C   UNL     1      44.394 -18.361   5.302  1.00  0.00     0.018 A 
HETATM    9  C   UNL     1      44.612 -17.427   6.441  1.00  0.00     0.069 C 
HETATM   10  N   UNL     1      44.886 -19.641   5.331  1.00  0.00    -0.358 N 
HETATM   11  H   UNL     1      45.415 -20.040   6.093  1.00  0.00     0.166 HD
HETATM   12  C   UNL     1      44.554 -20.316   4.182  1.00  0.00     0.043 A 
HETATM   13  C   UNL     1      43.826 -19.435   3.384  1.00  0.00     0.004 A 
HETATM   14  C   UNL     1      44.844 -21.632   3.798  1.00  0.00     0.030 A 
HETATM   15  C   UNL     1      43.362 -19.897   2.133  1.00  0.00     0.014 A 
HETATM   16  C   UNL     1      43.641 -21.209   1.732  1.00  0.00     0.001 A 
HETATM   17  C   UNL     1      44.372 -22.062   2.555  1.00  0.00     0.002 A 
ENDBRANCH   6   7
ENDBRANCH   1   5
BRANCH   2  18
HETATM   18  C   UNL     1      42.146 -12.779   2.670  1.00  0.00     0.227 C 
BRANCH  18  19
HETATM   19  N   UNL     1      42.385 -12.248   1.337  1.00  0.00    -0.348 N 
HETATM   20  C   UNL     1      41.783 -12.792   0.226  1.00  0.00     0.252 C 
HETATM   21  O   UNL     1      41.104 -13.813   0.275  1.00  0.00    -0.268 OA
HETATM   22  H   UNL     1      43.139 -11.581   1.227  1.00  0.00     0.163 HD
BRANCH  20  23
HETATM   23  C   UNL     1      42.045 -12.105  -1.066  1.00  0.00     0.032 A 
HETATM   24  C   UNL     1      41.629 -12.722  -2.253  1.00  0.00     0.018 A 
HETATM   25  C   UNL     1      41.845 -12.092  -3.482  1.00  0.00     0.025 A 
HETATM   26  C   UNL     1      42.463 -10.843  -3.521  1.00  0.00     0.034 A 
HETATM   27 CL   UNL     1      42.720 -10.062  -5.032  1.00  0.00    -0.084 Cl
HETATM   28  C   UNL     1      42.866 -10.215  -2.342  1.00  0.00     0.025 A 
HETATM   29  C   UNL     1      42.657 -10.845  -1.112  1.00  0.00     0.018 A 
ENDBRANCH  20  23
ENDBRANCH  18  19
ENDBRANCH   2  18
TORSDOF 5
ENDMDL
MODEL 4
REMARK VINA RESULT:      -8.9      7.176      9.667
REMARK  5 active torsions:
REMARK  status: ('A' for Active; 'I' for Inactive)
REMARK    1  A    between atoms: C_7  and  C_8 
REMARK    2  A    between atoms: N_9  and  N_10 
REMARK       I    between atoms: N_10  and  C_11 
REMARK    3  A    between atoms: C_11  and  C_12 
REMARK    4  A    between atoms: C_12  and  N_13 
REMARK       I    between atoms: N_13  and  C_14 
REMARK    5  A    between atoms: C_14  and  C_15 
ROOT
HETATM    1  N   UNL     1      42.889 -15.159   2.336  1.00  0.00    -0.246 N 
HETATM    2  C   UNL     1      43.145 -13.896   2.851  1.00  0.00     0.255 C 
HETATM    3  O   UNL     1      44.049 -13.604   3.632  1.00  0.00    -0.270 OA
HETATM    4  H   UNL     1      42.162 -15.267   1.623  1.00  0.00     0.192 HD
ENDROOT
BRANCH   1   5
HETATM    5  N   UNL     1      43.625 -16.232   2.742  1.00  0.00    -0.184 NA
HETATM    6  C   UNL     1      43.010 -17.068   3.514  1.00  0.00     0.153 C 
BRANCH   6   7
HETATM    7  C   UNL     1      43.704 -18.234   4.034  1.00  0.00     0.018 A 
HETATM    8  C   UNL     1      44.351 -18.345   5.258  1.00  0.00     0.018 A 
HETATM    9  C   UNL     1      44.532 -17.364   6.364  1.00  0.00     0.069 C 
HETATM   10  N   UNL     1      44.860 -19.615   5.348  1.00  0.00    -0.358 N 
HETATM   11  H   UNL     1      45.379 -19.977   6.137  1.00  0.00     0.166 HD
HETATM   12  C   UNL     1      44.563 -20.340   4.220  1.00  0.00     0.043 A 
HETATM   13  C   UNL     1      43.840 -19.501   3.373  1.00  0.00     0.004 A 
HETATM   14  C   UNL     1      44.879 -21.665   3.894  1.00  0.00     0.030 A 
HETATM   15  C   UNL     1      43.409 -20.019   2.132  1.00  0.00     0.014 A 
HETATM   16  C   UNL     1      43.715 -21.342   1.789  1.00  0.00     0.001 A 
HETATM   17  C   UNL     1      44.440 -22.151   2.660  1.00  0.00     0.002 A 
ENDBRANCH   6   7
ENDBRANCH   1   5
BRANCH   2  18
HETATM   18  C   UNL     1      42.128 -12.856   2.380  1.00  0.00     0.227 C 
BRANCH  18  19
HETATM   19  N   UNL     1      41.315 -13.308   1.262  1.00  0.00    -0.348 N 
HETATM   20  C   UNL     1      41.625 -12.972  -0.036  1.00  0.00     0.252 C 
HETATM   21  O   UNL     1      42.528 -12.191  -0.319  1.00  0.00    -0.268 OA
HETATM   22  H   UNL     1      40.419 -13.729   1.474  1.00  0.00     0.163 HD
BRANCH  20  23
HETATM   23  C   UNL     1      40.763 -13.565  -1.093  1.00  0.00     0.032 A 
HETATM   24  C   UNL     1      41.365 -14.314  -2.111  1.00  0.00     0.018 A 
HETATM   25  C   UNL     1      40.578 -14.899  -3.108  1.00  0.00     0.025 A 
HETATM   26  C   UNL     1      39.193 -14.746  -3.076  1.00  0.00     0.034 A 
HETATM   27 CL   UNL     1      38.223 -15.474  -4.296  1.00  0.00    -0.084 Cl
HETATM   28  C   UNL     1      38.585 -14.014  -2.056  1.00  0.00     0.025 A 
HETATM   29  C   UNL     1      39.369 -13.422  -1.061  1.00  0.00     0.018 A 
ENDBRANCH  20  23
ENDBRANCH  18  19
ENDBRANCH   2  18
TORSDOF 5
ENDMDL
MODEL 5
REMARK VINA RESULT:      -8.8      1.966      2.920
REMARK  5 active torsions:
REMARK  status: ('A' for Active; 'I' for Inactive)
REMARK    1  A    between atoms: C_7  and  C_8 
REMARK    2  A    between atoms: N_9  and  N_10 
REMARK       I    between atoms: N_10  and  C_11 
REMARK    3  A    between atoms: C_11  and  C_12 
REMARK    4  A    between atoms: C_12  and  N_13 
REMARK       I    between atoms: N_13  and  C_14 
REMARK    5  A    between atoms: C_14  and  C_15 
ROOT
HETATM    1  N   UNL     1      43.753 -15.595   6.697  1.00  0.00    -0.246 N 
HETATM    2  C   UNL     1      44.162 -14.285   6.497  1.00  0.00     0.255 C 
HETATM    3  O   UNL     1      44.022 -13.634   5.463  1.00  0.00    -0.270 OA
HETATM    4  H   UNL     1      43.843 -16.006   7.631  1.00  0.00     0.192 HD
ENDROOT
BRANCH   1   5
HETATM    5  N   UNL     1      43.198 -16.309   5.678  1.00  0.00    -0.184 NA
HETATM    6  C   UNL     1      44.024 -17.025   4.987  1.00  0.00     0.153 C 
BRANCH   6   7
HETATM    7  C   UNL     1      43.549 -17.804   3.855  1.00  0.00     0.018 A 
HETATM    8  C   UNL     1      42.712 -17.372   2.835  1.00  0.00     0.018 A 
HETATM    9  C   UNL     1      42.068 -16.052   2.587  1.00  0.00     0.069 C 
HETATM   10  N   UNL     1      42.527 -18.422   1.972  1.00  0.00    -0.358 N 
HETATM   11  H   UNL     1      41.963 -18.391   1.134  1.00  0.00     0.166 HD
HETATM   12  C   UNL     1      43.223 -19.528   2.396  1.00  0.00     0.043 A 
HETATM   13  C   UNL     1      43.873 -19.175   3.577  1.00  0.00     0.004 A 
HETATM   14  C   UNL     1      43.321 -20.802   1.823  1.00  0.00     0.030 A 
HETATM   15  C   UNL     1      44.667 -20.152   4.219  1.00  0.00     0.014 A 
HETATM   16  C   UNL     1      44.777 -21.431   3.660  1.00  0.00     0.001 A 
HETATM   17  C   UNL     1      44.112 -21.749   2.478  1.00  0.00     0.002 A 
ENDBRANCH   6   7
ENDBRANCH   1   5
BRANCH   2  18
HETATM   18  C   UNL     1      44.884 -13.705   7.714  1.00  0.00     0.227 C 
BRANCH  18  19
HETATM   19  N   UNL     1      44.108 -12.698   8.420  1.00  0.00    -0.348 N 
HETATM   20  C   UNL     1      44.519 -12.191   9.632  1.00  0.00     0.252 C 
HETATM   21  O   UNL     1      45.492 -12.630  10.237  1.00  0.00    -0.268 OA
HETATM   22  H   UNL     1      43.172 -12.507   8.085  1.00  0.00     0.163 HD
BRANCH  20  23
HETATM   23  C   UNL     1      43.680 -11.108  10.210  1.00  0.00     0.032 A 
HETATM   24  C   UNL     1      44.009 -10.604  11.474  1.00  0.00     0.018 A 
HETATM   25  C   UNL     1      43.250  -9.573  12.036  1.00  0.00     0.025 A 
HETATM   26  C   UNL     1      42.174  -9.039  11.327  1.00  0.00     0.034 A 
HETATM   27 CL   UNL     1      41.246  -7.764  12.013  1.00  0.00    -0.084 Cl
HETATM   28  C   UNL     1      41.850  -9.526  10.061  1.00  0.00     0.025 A 
HETATM   29  C   UNL     1      42.603 -10.562   9.499  1.00  0.00     0.018 A 
ENDBRANCH  20  23
ENDBRANCH  18  19
ENDBRANCH   2  18
TORSDOF 5
ENDMDL
MODEL 6
REMARK VINA RESULT:      -8.6      2.333      3.305
REMARK  5 active torsions:
REMARK  status: ('A' for Active; 'I' for Inactive)
REMARK    1  A    between atoms: C_7  and  C_8 
REMARK    2  A    between atoms: N_9  and  N_10 
REMARK       I    between atoms: N_10  and  C_11 
REMARK    3  A    between atoms: C_11  and  C_12 
REMARK    4  A    between atoms: C_12  and  N_13 
REMARK       I    between atoms: N_13  and  C_14 
REMARK    5  A    between atoms: C_14  and  C_15 
ROOT
HETATM    1  N   UNL     1      41.951 -13.838   4.424  1.00  0.00    -0.246 N 
HETATM    2  C   UNL     1      42.524 -13.306   5.570  1.00  0.00     0.255 C 
HETATM    3  O   UNL     1      43.572 -13.680   6.095  1.00  0.00    -0.270 OA
HETATM    4  H   UNL     1      41.121 -13.387   4.028  1.00  0.00     0.192 HD
ENDROOT
BRANCH   1   5
HETATM    5  N   UNL     1      42.510 -14.919   3.810  1.00  0.00    -0.184 NA
HETATM    6  C   UNL     1      41.858 -16.029   3.937  1.00  0.00     0.153 C 
BRANCH   6   7
HETATM    7  C   UNL     1      42.375 -17.254   3.350  1.00  0.00     0.018 A 
HETATM    8  C   UNL     1      42.079 -17.768   2.094  1.00  0.00     0.018 A 
HETATM    9  C   UNL     1      41.191 -17.263   1.011  1.00  0.00     0.069 C 
HETATM   10  N   UNL     1      42.789 -18.932   1.941  1.00  0.00    -0.358 N 
HETATM   11  H   UNL     1      42.770 -19.519   1.118  1.00  0.00     0.166 HD
HETATM   12  C   UNL     1      43.544 -19.192   3.059  1.00  0.00     0.043 A 
HETATM   13  C   UNL     1      43.305 -18.159   3.964  1.00  0.00     0.004 A 
HETATM   14  C   UNL     1      44.412 -20.257   3.329  1.00  0.00     0.030 A 
HETATM   15  C   UNL     1      43.973 -18.195   5.208  1.00  0.00     0.014 A 
HETATM   16  C   UNL     1      44.845 -19.252   5.495  1.00  0.00     0.001 A 
HETATM   17  C   UNL     1      45.060 -20.267   4.567  1.00  0.00     0.002 A 
ENDBRANCH   6   7
ENDBRANCH   1   5
BRANCH   2  18
HETATM   18  C   UNL     1      41.676 -12.192   6.185  1.00  0.00     0.227 C 
BRANCH  18  19
HETATM   19  N   UNL     1      42.108 -11.807   7.519  1.00  0.00    -0.348 N 
HETATM   20  C   UNL     1      42.132 -10.489   7.916  1.00  0.00     0.252 C 
HETATM   21  O   UNL     1      41.902  -9.562   7.146  1.00  0.00    -0.268 OA
HETATM   22  H   UNL     1      42.554 -12.514   8.090  1.00  0.00     0.163 HD
BRANCH  20  23
HETATM   23  C   UNL     1      42.514 -10.235   9.330  1.00  0.00     0.032 A 
HETATM   24  C   UNL     1      41.689  -9.421  10.115  1.00  0.00     0.018 A 
HETATM   25  C   UNL     1      42.013  -9.179  11.453  1.00  0.00     0.025 A 
HETATM   26  C   UNL     1      43.151  -9.763  12.007  1.00  0.00     0.034 A 
HETATM   27 CL   UNL     1      43.544  -9.475  13.657  1.00  0.00    -0.084 Cl
HETATM   28  C   UNL     1      43.970 -10.588  11.236  1.00  0.00     0.025 A 
HETATM   29  C   UNL     1      43.653 -10.827   9.895  1.00  0.00     0.018 A 
ENDBRANCH  20  23
ENDBRANCH  18  19
ENDBRANCH   2  18
TORSDOF 5
ENDMDL
MODEL 7
REMARK VINA RESULT:      -8.5      7.727     10.953
REMARK  5 active torsions:
REMARK  status: ('A' for Active; 'I' for Inactive)
REMARK    1  A    between atoms: C_7  and  C_8 
REMARK    2  A    between atoms: N_9  and  N_10 
REMARK       I    between atoms: N_10  and  C_11 
REMARK    3  A    between atoms: C_11  and  C_12 
REMARK    4  A    between atoms: C_12  and  N_13 
REMARK       I    between atoms: N_13  and  C_14 
REMARK    5  A    between atoms: C_14  and  C_15 
ROOT
HETATM    1  N   UNL     1      42.298 -15.895   2.310  1.00  0.00    -0.246 N 
HETATM    2  C   UNL     1      41.574 -16.064   1.138  1.00  0.00     0.255 C 
HETATM    3  O   UNL     1      41.032 -17.103   0.768  1.00  0.00    -0.270 OA
HETATM    4  H   UNL     1      42.630 -14.959   2.558  1.00  0.00     0.192 HD
ENDROOT
BRANCH   1   5
HETATM    5  N   UNL     1      42.525 -16.952   3.139  1.00  0.00    -0.184 NA
HETATM    6  C   UNL     1      43.748 -17.372   3.183  1.00  0.00     0.153 C 
BRANCH   6   7
HETATM    7  C   UNL     1      44.103 -18.513   4.010  1.00  0.00     0.018 A 
HETATM    8  C   UNL     1      44.363 -18.507   5.375  1.00  0.00     0.018 A 
HETATM    9  C   UNL     1      44.364 -17.398   6.369  1.00  0.00     0.069 C 
HETATM   10  N   UNL     1      44.646 -19.795   5.753  1.00  0.00    -0.358 N 
HETATM   11  H   UNL     1      44.870 -20.087   6.694  1.00  0.00     0.166 HD
HETATM   12  C   UNL     1      44.576 -20.644   4.675  1.00  0.00     0.043 A 
HETATM   13  C   UNL     1      44.239 -19.870   3.565  1.00  0.00     0.004 A 
HETATM   14  C   UNL     1      44.783 -22.027   4.606  1.00  0.00     0.030 A 
HETATM   15  C   UNL     1      44.102 -20.519   2.318  1.00  0.00     0.014 A 
HETATM   16  C   UNL     1      44.305 -21.902   2.230  1.00  0.00     0.001 A 
HETATM   17  C   UNL     1      44.641 -22.643   3.360  1.00  0.00     0.002 A 
ENDBRANCH   6   7
ENDBRANCH   1   5
BRANCH   2  18
HETATM   18  C   UNL     1      41.548 -14.799   0.280  1.00  0.00     0.227 C 
BRANCH  18  19
HETATM   19  N   UNL     1      40.369 -14.699  -0.566  1.00  0.00    -0.348 N 
HETATM   20  C   UNL     1      40.443 -14.210  -1.850  1.00  0.00     0.252 C 
HETATM   21  O   UNL     1      41.472 -13.732  -2.317  1.00  0.00    -0.268 OA
HETATM   22  H   UNL     1      39.466 -14.833  -0.128  1.00  0.00     0.163 HD
BRANCH  20  23
HETATM   23  C   UNL     1      39.182 -14.235  -2.637  1.00  0.00     0.032 A 
HETATM   24  C   UNL     1      38.337 -13.120  -2.590  1.00  0.00     0.018 A 
HETATM   25  C   UNL     1      37.153 -13.108  -3.334  1.00  0.00     0.025 A 
HETATM   26  C   UNL     1      36.826 -14.202  -4.134  1.00  0.00     0.034 A 
HETATM   27 CL   UNL     1      35.375 -14.183  -5.058  1.00  0.00    -0.084 Cl
HETATM   28  C   UNL     1      37.670 -15.311  -4.197  1.00  0.00     0.025 A 
HETATM   29  C   UNL     1      38.852 -15.329  -3.449  1.00  0.00     0.018 A 
ENDBRANCH  20  23
ENDBRANCH  18  19
ENDBRANCH   2  18
TORSDOF 5
ENDMDL
MODEL 8
REMARK VINA RESULT:      -8.3      7.348     10.805
REMARK  5 active torsions:
REMARK  status: ('A' for Active; 'I' for Inactive)
REMARK    1  A    between atoms: C_7  and  C_8 
REMARK    2  A    between atoms: N_9  and  N_10 
REMARK       I    between atoms: N_10  and  C_11 
REMARK    3  A    between atoms: C_11  and  C_12 
REMARK    4  A    between atoms: C_12  and  N_13 
REMARK       I    between atoms: N_13  and  C_14 
REMARK    5  A    between atoms: C_14  and  C_15 
ROOT
HETATM    1  N   UNL     1      40.765 -15.105   1.677  1.00  0.00    -0.246 N 
HETATM    2  C   UNL     1      40.436 -14.522   2.892  1.00  0.00     0.255 C 
HETATM    3  O   UNL     1      40.000 -13.384   3.053  1.00  0.00    -0.270 OA
HETATM    4  H   UNL     1      41.035 -16.093   1.656  1.00  0.00     0.192 HD
ENDROOT
BRANCH   1   5
HETATM    5  N   UNL     1      40.687 -14.386   0.522  1.00  0.00    -0.184 NA
HETATM    6  C   UNL     1      41.612 -14.629  -0.348  1.00  0.00     0.153 C 
BRANCH   6   7
HETATM    7  C   UNL     1      41.647 -13.899  -1.605  1.00  0.00     0.018 A 
HETATM    8  C   UNL     1      41.202 -14.345  -2.843  1.00  0.00     0.018 A 
HETATM    9  C   UNL     1      40.586 -15.636  -3.257  1.00  0.00     0.069 C 
HETATM   10  N   UNL     1      41.414 -13.338  -3.750  1.00  0.00    -0.358 N 
HETATM   11  H   UNL     1      41.181 -13.385  -4.732  1.00  0.00     0.166 HD
HETATM   12  C   UNL     1      41.980 -12.245  -3.141  1.00  0.00     0.043 A 
HETATM   13  C   UNL     1      42.143 -12.565  -1.794  1.00  0.00     0.004 A 
HETATM   14  C   UNL     1      42.356 -11.009  -3.682  1.00  0.00     0.030 A 
HETATM   15  C   UNL     1      42.712 -11.593  -0.942  1.00  0.00     0.014 A 
HETATM   16  C   UNL     1      43.092 -10.351  -1.465  1.00  0.00     0.001 A 
HETATM   17  C   UNL     1      42.916 -10.067  -2.817  1.00  0.00     0.002 A 
ENDBRANCH   6   7
ENDBRANCH   1   5
BRANCH   2  18
HETATM   18  C   UNL     1      40.722 -15.444   4.078  1.00  0.00     0.227 C 
BRANCH  18  19
HETATM   19  N   UNL     1      41.364 -16.692   3.699  1.00  0.00    -0.348 N 
HETATM   20  C   UNL     1      42.709 -16.900   3.900  1.00  0.00     0.252 C 
HETATM   21  O   UNL     1      43.462 -16.019   4.304  1.00  0.00    -0.268 OA
HETATM   22  H   UNL     1      40.834 -17.336   3.125  1.00  0.00     0.163 HD
BRANCH  20  23
HETATM   23  C   UNL     1      43.227 -18.248   3.545  1.00  0.00     0.032 A 
HETATM   24  C   UNL     1      42.835 -18.820   2.329  1.00  0.00     0.018 A 
HETATM   25  C   UNL     1      43.320 -20.079   1.959  1.00  0.00     0.025 A 
HETATM   26  C   UNL     1      44.206 -20.753   2.797  1.00  0.00     0.034 A 
HETATM   27 CL   UNL     1      44.811 -22.297   2.338  1.00  0.00    -0.084 Cl
HETATM   28  C   UNL     1      44.613 -20.183   4.004  1.00  0.00     0.025 A 
HETATM   29  C   UNL     1      44.125 -18.928   4.380  1.00  0.00     0.018 A 
ENDBRANCH  20  23
ENDBRANCH  18  19
ENDBRANCH   2  18
TORSDOF 5
ENDMDL
MODEL 9
REMARK VINA RESULT:      -8.3      3.679      4.543
REMARK  5 active torsions:
REMARK  status: ('A' for Active; 'I' for Inactive)
REMARK    1  A    between atoms: C_7  and  C_8 
REMARK    2  A    between atoms: N_9  and  N_10 
REMARK       I    between atoms: N_10  and  C_11 
REMARK    3  A    between atoms: C_11  and  C_12 
REMARK    4  A    between atoms: C_12  and  N_13 
REMARK       I    between atoms: N_13  and  C_14 
REMARK    5  A    between atoms: C_14  and  C_15 
ROOT
HETATM    1  N   UNL     1      42.803 -15.167   2.754  1.00  0.00    -0.246 N 
HETATM    2  C   UNL     1      43.251 -13.906   3.120  1.00  0.00     0.255 C 
HETATM    3  O   UNL     1      44.343 -13.645   3.621  1.00  0.00    -0.270 OA
HETATM    4  H   UNL     1      41.908 -15.253   2.262  1.00  0.00     0.192 HD
ENDROOT
BRANCH   1   5
HETATM    5  N   UNL     1      43.562 -16.270   3.005  1.00  0.00    -0.184 NA
HETATM    6  C   UNL     1      43.019 -17.155   3.777  1.00  0.00     0.153 C 
BRANCH   6   7
HETATM    7  C   UNL     1      43.749 -18.359   4.139  1.00  0.00     0.018 A 
HETATM    8  C   UNL     1      44.491 -18.571   5.295  1.00  0.00     0.018 A 
HETATM    9  C   UNL     1      44.762 -17.687   6.462  1.00  0.00     0.069 C 
HETATM   10  N   UNL     1      45.001 -19.843   5.236  1.00  0.00    -0.358 N 
HETATM   11  H   UNL     1      45.579 -20.268   5.947  1.00  0.00     0.166 HD
HETATM   12  C   UNL     1      44.612 -20.471   4.078  1.00  0.00     0.043 A 
HETATM   13  C   UNL     1      43.826 -19.565   3.365  1.00  0.00     0.004 A 
HETATM   14  C   UNL     1      44.896 -21.762   3.617  1.00  0.00     0.030 A 
HETATM   15  C   UNL     1      43.296 -19.978   2.123  1.00  0.00     0.014 A 
HETATM   16  C   UNL     1      43.569 -21.266   1.646  1.00  0.00     0.001 A 
HETATM   17  C   UNL     1      44.358 -22.143   2.385  1.00  0.00     0.002 A 
ENDBRANCH   6   7
ENDBRANCH   1   5
BRANCH   2  18
HETATM   18  C   UNL     1      42.201 -12.821   2.881  1.00  0.00     0.227 C 
BRANCH  18  19
HETATM   19  N   UNL     1      41.864 -12.070   4.080  1.00  0.00    -0.348 N 
HETATM   20  C   UNL     1      41.253 -12.668   5.158  1.00  0.00     0.252 C 
HETATM   21  O   UNL     1      40.858 -13.830   5.133  1.00  0.00    -0.268 OA
HETATM   22  H   UNL     1      41.932 -11.061   4.036  1.00  0.00     0.163 HD
BRANCH  20  23
HETATM   23  C   UNL     1      41.037 -11.810   6.352  1.00  0.00     0.032 A 
HETATM   24  C   UNL     1      39.725 -11.538   6.758  1.00  0.00     0.018 A 
HETATM   25  C   UNL     1      39.491 -10.749   7.888  1.00  0.00     0.025 A 
HETATM   26  C   UNL     1      40.568 -10.248   8.618  1.00  0.00     0.034 A 
HETATM   27 CL   UNL     1      40.281  -9.286  10.015  1.00  0.00    -0.084 Cl
HETATM   28  C   UNL     1      41.878 -10.527   8.229  1.00  0.00     0.025 A 
HETATM   29  C   UNL     1      42.116 -11.311   7.096  1.00  0.00     0.018 A 
ENDBRANCH  20  23
ENDBRANCH  18  19
ENDBRANCH   2  18
TORSDOF 5
ENDMDL
MODEL 10
REMARK VINA RESULT:      -8.2      2.099      2.863
REMARK  5 active torsions:
REMARK  status: ('A' for Active; 'I' for Inactive)
REMARK    1  A    between atoms: C_7  and  C_8 
REMARK    2  A    between atoms: N_9  and  N_10 
REMARK       I    between atoms: N_10  and  C_11 
REMARK    3  A    between atoms: C_11  and  C_12 
REMARK    4  A    between atoms: C_12  and  N_13 
REMARK       I    between atoms: N_13  and  C_14 
REMARK    5  A    between atoms: C_14  and  C_15 
ROOT
HETATM    1  N   UNL     1      44.035 -13.947   7.377  1.00  0.00    -0.246 N 
HETATM    2  C   UNL     1      45.142 -13.198   7.746  1.00  0.00     0.255 C 
HETATM    3  O   UNL     1      46.139 -12.993   7.056  1.00  0.00    -0.270 OA
HETATM    4  H   UNL     1      43.223 -13.975   8.001  1.00  0.00     0.192 HD
ENDROOT
BRANCH   1   5
HETATM    5  N   UNL     1      44.010 -14.599   6.181  1.00  0.00    -0.184 NA
HETATM    6  C   UNL     1      43.299 -15.679   6.151  1.00  0.00     0.153 C 
BRANCH   6   7
HETATM    7  C   UNL     1      43.223 -16.475   4.937  1.00  0.00     0.018 A 
HETATM    8  C   UNL     1      42.599 -16.125   3.746  1.00  0.00     0.018 A 
HETATM    9  C   UNL     1      41.850 -14.899   3.354  1.00  0.00     0.069 C 
HETATM   10  N   UNL     1      42.777 -17.158   2.861  1.00  0.00    -0.358 N 
HETATM   11  H   UNL     1      42.430 -17.174   1.912  1.00  0.00     0.166 HD
HETATM   12  C   UNL     1      43.503 -18.172   3.437  1.00  0.00     0.043 A 
HETATM   13  C   UNL     1      43.797 -17.776   4.741  1.00  0.00     0.004 A 
HETATM   14  C   UNL     1      43.916 -19.398   2.901  1.00  0.00     0.030 A 
HETATM   15  C   UNL     1      44.547 -18.657   5.552  1.00  0.00     0.014 A 
HETATM   16  C   UNL     1      44.969 -19.886   5.032  1.00  0.00     0.001 A 
HETATM   17  C   UNL     1      44.656 -20.249   3.725  1.00  0.00     0.002 A 
ENDBRANCH   6   7
ENDBRANCH   1   5
BRANCH   2  18
HETATM   18  C   UNL     1      45.036 -12.662   9.174  1.00  0.00     0.227 C 
BRANCH  18  19
HETATM   19  N   UNL     1      43.726 -12.114   9.490  1.00  0.00    -0.348 N 
HETATM   20  C   UNL     1      43.436 -11.614  10.739  1.00  0.00     0.252 C 
HETATM   21  O   UNL     1      44.215 -11.699  11.682  1.00  0.00    -0.268 OA
HETATM   22  H   UNL     1      42.981 -12.268   8.823  1.00  0.00     0.163 HD
BRANCH  20  23
HETATM   23  C   UNL     1      42.089 -11.008  10.908  1.00  0.00     0.032 A 
HETATM   24  C   UNL     1      41.526 -10.309   9.834  1.00  0.00     0.018 A 
HETATM   25  C   UNL     1      40.253  -9.744   9.957  1.00  0.00     0.025 A 
HETATM   26  C   UNL     1      39.541  -9.892  11.147  1.00  0.00     0.034 A 
HETATM   27 CL   UNL     1      37.971  -9.207  11.296  1.00  0.00    -0.084 Cl
HETATM   28  C   UNL     1      40.090 -10.600  12.217  1.00  0.00     0.025 A 
HETATM   29  C   UNL     1      41.365 -11.161  12.099  1.00  0.00     0.018 A 
ENDBRANCH  20  23
ENDBRANCH  18  19
ENDBRANCH   2  18
TORSDOF 5
ENDMDL
