MODEL 1
REMARK VINA RESULT:     -11.0      0.000      0.000
REMARK  5 active torsions:
REMARK  status: ('A' for Active; 'I' for Inactive)
REMARK    1  A    between atoms: C_4  and  C_5 
REMARK    2  A    between atoms: C_5  and  C_6 
REMARK    3  A    between atoms: N_15  and  N_16 
REMARK       I    between atoms: N_16  and  C_17 
REMARK    4  A    between atoms: C_17  and  C_18 
REMARK    5  A    between atoms: C_18  and  C_19 
ROOT
HETATM    1  C   UNL     1      43.017 -17.808   3.212  1.00  0.00     0.173 A 
HETATM    2  N   UNL     1      41.561 -17.750   3.174  1.00  0.00    -0.315 N 
HETATM    3  C   UNL     1      41.082 -16.993   2.132  1.00  0.00     0.346 A 
HETATM    4  O   UNL     1      39.898 -16.848   1.874  1.00  0.00    -0.245 OA
HETATM    5  N   UNL     1      42.149 -16.506   1.435  1.00  0.00    -0.167 N 
HETATM    6  C   UNL     1      43.344 -16.991   1.917  1.00  0.00     0.285 A 
HETATM    7  O   UNL     1      44.453 -16.833   1.417  1.00  0.00    -0.267 OA
HETATM    8  H   UNL     1      40.949 -18.140   3.875  1.00  0.00     0.166 HD
ENDROOT
BRANCH   5   9
HETATM    9  N   UNL     1      42.020 -15.813   0.237  1.00  0.00    -0.256 N 
HETATM   10  C   UNL     1      41.820 -14.444   0.309  1.00  0.00     0.242 C 
HETATM   11  O   UNL     1      41.806 -13.799   1.356  1.00  0.00    -0.271 OA
HETATM   12  H   UNL     1      41.479 -16.306  -0.473  1.00  0.00     0.191 HD
BRANCH  10  13
HETATM   13  C   UNL     1      41.761 -13.776  -1.045  1.00  0.00     0.166 C 
BRANCH  13  14
HETATM   14  C   UNL     1      40.802 -14.384  -2.047  1.00  0.00     0.074 A 
HETATM   15  N   UNL     1      41.128 -15.515  -2.596  1.00  0.00    -0.175 NA
HETATM   16  N   UNL     1      40.264 -16.082  -3.478  1.00  0.00    -0.243 N 
HETATM   17  C   UNL     1      39.042 -15.579  -3.853  1.00  0.00     0.272 A 
HETATM   18  H   UNL     1      40.533 -16.985  -3.864  1.00  0.00     0.192 HD
HETATM   19  O   UNL     1      38.300 -16.163  -4.634  1.00  0.00    -0.266 OA
HETATM   20  C   UNL     1      38.672 -14.281  -3.267  1.00  0.00     0.046 A 
HETATM   21  C   UNL     1      39.536 -13.674  -2.357  1.00  0.00     0.006 A 
HETATM   22  C   UNL     1      37.468 -13.664  -3.626  1.00  0.00     0.018 A 
HETATM   23  C   UNL     1      39.192 -12.437  -1.799  1.00  0.00     0.014 A 
HETATM   24  C   UNL     1      37.992 -11.816  -2.165  1.00  0.00     0.001 A 
HETATM   25  C   UNL     1      37.132 -12.427  -3.076  1.00  0.00     0.001 A 
ENDBRANCH  13  14
ENDBRANCH  10  13
ENDBRANCH   5   9
BRANCH   1  26
HETATM   26  C   UNL     1      43.464 -17.136   4.518  1.00  0.00    -0.016 A 
HETATM   27  C   UNL     1      44.137 -17.837   5.534  1.00  0.00     0.010 A 
HETATM   28  C   UNL     1      44.577 -17.180   6.688  1.00  0.00     0.001 A 
HETATM   29  C   UNL     1      44.360 -15.814   6.847  1.00  0.00     0.000 A 
HETATM   30  C   UNL     1      43.706 -15.098   5.851  1.00  0.00     0.001 A 
HETATM   31  C   UNL     1      43.270 -15.749   4.695  1.00  0.00     0.010 A 
ENDBRANCH   1  26
BRANCH   1  32
HETATM   32  C   UNL     1      43.555 -19.239   3.039  1.00  0.00    -0.016 A 
HETATM   33  C   UNL     1      44.431 -19.839   3.962  1.00  0.00     0.010 A 
HETATM   34  C   UNL     1      44.880 -21.150   3.775  1.00  0.00     0.001 A 
HETATM   35  C   UNL     1      44.462 -21.885   2.669  1.00  0.00     0.000 A 
HETATM   36  C   UNL     1      43.593 -21.313   1.746  1.00  0.00     0.001 A 
HETATM   37  C   UNL     1      43.144 -20.004   1.929  1.00  0.00     0.010 A 
ENDBRANCH   1  32
TORSDOF 5
ENDMDL
MODEL 2
REMARK VINA RESULT:     -10.7      1.426      2.115
REMARK  5 active torsions:
REMARK  status: ('A' for Active; 'I' for Inactive)
REMARK    1  A    between atoms: C_4  and  C_5 
REMARK    2  A    between atoms: C_5  and  C_6 
REMARK    3  A    between atoms: N_15  and  N_16 
REMARK       I    between atoms: N_16  and  C_17 
REMARK    4  A    between atoms: C_17  and  C_18 
REMARK    5  A    between atoms: C_18  and  C_19 
ROOT
HETATM    1  C   UNL     1      42.859 -17.807   3.388  1.00  0.00     0.173 A 
HETATM    2  N   UNL     1      41.409 -17.806   3.239  1.00  0.00    -0.315 N 
HETATM    3  C   UNL     1      40.977 -17.009   2.206  1.00  0.00     0.346 A 
HETATM    4  O   UNL     1      39.811 -16.896   1.864  1.00  0.00    -0.245 OA
HETATM    5  N   UNL     1      42.072 -16.438   1.624  1.00  0.00    -0.167 N 
HETATM    6  C   UNL     1      43.247 -16.902   2.171  1.00  0.00     0.285 A 
HETATM    7  O   UNL     1      44.382 -16.671   1.769  1.00  0.00    -0.267 OA
HETATM    8  H   UNL     1      40.764 -18.261   3.867  1.00  0.00     0.166 HD
ENDROOT
BRANCH   5   9
HETATM    9  N   UNL     1      42.003 -15.681   0.460  1.00  0.00    -0.256 N 
HETATM   10  C   UNL     1      41.759 -14.325   0.594  1.00  0.00     0.242 C 
HETATM   11  O   UNL     1      41.654 -13.741   1.671  1.00  0.00    -0.271 OA
HETATM   12  H   UNL     1      41.526 -16.147  -0.312  1.00  0.00     0.191 HD
BRANCH  10  13
HETATM   13  C   UNL     1      41.771 -13.581  -0.722  1.00  0.00     0.166 C 
BRANCH  13  14
HETATM   14  C   UNL     1      40.417 -13.289  -1.335  1.00  0.00     0.074 A 
HETATM   15  N   UNL     1      39.806 -12.200  -0.978  1.00  0.00    -0.175 NA
HETATM   16  N   UNL     1      38.603 -11.917  -1.541  1.00  0.00    -0.243 N 
HETATM   17  C   UNL     1      37.949 -12.674  -2.483  1.00  0.00     0.272 A 
HETATM   18  H   UNL     1      38.167 -11.039  -1.267  1.00  0.00     0.192 HD
HETATM   19  O   UNL     1      36.876 -12.339  -2.970  1.00  0.00    -0.266 OA
HETATM   20  C   UNL     1      38.611 -13.929  -2.873  1.00  0.00     0.046 A 
HETATM   21  C   UNL     1      39.848 -14.248  -2.315  1.00  0.00     0.006 A 
HETATM   22  C   UNL     1      37.999 -14.792  -3.790  1.00  0.00     0.018 A 
HETATM   23  C   UNL     1      40.481 -15.443  -2.679  1.00  0.00     0.014 A 
HETATM   24  C   UNL     1      39.865 -16.310  -3.589  1.00  0.00     0.001 A 
HETATM   25  C   UNL     1      38.627 -15.986  -4.143  1.00  0.00     0.001 A 
ENDBRANCH  13  14
ENDBRANCH  10  13
ENDBRANCH   5   9
BRANCH   1  26
HETATM   26  C   UNL     1      43.175 -17.196   4.761  1.00  0.00    -0.016 A 
HETATM   27  C   UNL     1      43.629 -15.874   4.910  1.00  0.00     0.010 A 
HETATM   28  C   UNL     1      43.857 -15.334   6.181  1.00  0.00     0.001 A 
HETATM   29  C   UNL     1      43.631 -16.099   7.323  1.00  0.00     0.000 A 
HETATM   30  C   UNL     1      43.171 -17.405   7.199  1.00  0.00     0.001 A 
HETATM   31  C   UNL     1      42.938 -17.946   5.933  1.00  0.00     0.010 A 
ENDBRANCH   1  26
BRANCH   1  32
HETATM   32  C   UNL     1      43.472 -19.202   3.178  1.00  0.00    -0.016 A 
HETATM   33  C   UNL     1      44.369 -19.785   4.093  1.00  0.00     0.010 A 
HETATM   34  C   UNL     1      44.887 -21.064   3.872  1.00  0.00     0.001 A 
HETATM   35  C   UNL     1      44.518 -21.786   2.739  1.00  0.00     0.000 A 
HETATM   36  C   UNL     1      43.630 -21.232   1.824  1.00  0.00     0.001 A 
HETATM   37  C   UNL     1      43.111 -19.954   2.041  1.00  0.00     0.010 A 
ENDBRANCH   1  32
TORSDOF 5
ENDMDL
MODEL 3
REMARK VINA RESULT:     -10.4      2.325      8.774
REMARK  5 active torsions:
REMARK  status: ('A' for Active; 'I' for Inactive)
REMARK    1  A    between atoms: C_4  and  C_5 
REMARK    2  A    between atoms: C_5  and  C_6 
REMARK    3  A    between atoms: N_15  and  N_16 
REMARK       I    between atoms: N_16  and  C_17 
REMARK    4  A    between atoms: C_17  and  C_18 
REMARK    5  A    between atoms: C_18  and  C_19 
ROOT
HETATM    1  C   UNL     1      40.849 -14.525  -0.842  1.00  0.00     0.173 A 
HETATM    2  N   UNL     1      41.904 -15.530  -0.817  1.00  0.00    -0.315 N 
HETATM    3  C   UNL     1      41.925 -16.256   0.349  1.00  0.00     0.346 A 
HETATM    4  O   UNL     1      42.688 -17.183   0.569  1.00  0.00    -0.245 OA
HETATM    5  N   UNL     1      40.925 -15.793   1.155  1.00  0.00    -0.167 N 
HETATM    6  C   UNL     1      40.161 -14.836   0.529  1.00  0.00     0.285 A 
HETATM    7  O   UNL     1      39.123 -14.336   0.952  1.00  0.00    -0.267 OA
HETATM    8  H   UNL     1      42.612 -15.642  -1.528  1.00  0.00     0.166 HD
ENDROOT
BRANCH   5   9
HETATM    9  N   UNL     1      40.579 -16.400   2.356  1.00  0.00    -0.256 N 
HETATM   10  C   UNL     1      41.255 -15.995   3.495  1.00  0.00     0.242 C 
HETATM   11  O   UNL     1      42.097 -15.099   3.520  1.00  0.00    -0.271 OA
HETATM   12  H   UNL     1      40.394 -17.401   2.280  1.00  0.00     0.191 HD
BRANCH  10  13
HETATM   13  C   UNL     1      40.758 -16.664   4.756  1.00  0.00     0.166 C 
BRANCH  13  14
HETATM   14  C   UNL     1      41.822 -17.230   5.673  1.00  0.00     0.074 A 
HETATM   15  N   UNL     1      41.838 -16.834   6.910  1.00  0.00    -0.175 NA
HETATM   16  N   UNL     1      42.772 -17.354   7.747  1.00  0.00    -0.243 N 
HETATM   17  C   UNL     1      43.723 -18.291   7.420  1.00  0.00     0.272 A 
HETATM   18  H   UNL     1      42.736 -17.050   8.718  1.00  0.00     0.192 HD
HETATM   19  O   UNL     1      44.517 -18.739   8.239  1.00  0.00    -0.266 OA
HETATM   20  C   UNL     1      43.741 -18.726   6.014  1.00  0.00     0.046 A 
HETATM   21  C   UNL     1      42.794 -18.211   5.130  1.00  0.00     0.006 A 
HETATM   22  C   UNL     1      44.705 -19.641   5.573  1.00  0.00     0.018 A 
HETATM   23  C   UNL     1      42.810 -18.618   3.790  1.00  0.00     0.014 A 
HETATM   24  C   UNL     1      43.778 -19.526   3.348  1.00  0.00     0.001 A 
HETATM   25  C   UNL     1      44.724 -20.037   4.236  1.00  0.00     0.001 A 
ENDBRANCH  13  14
ENDBRANCH  10  13
ENDBRANCH   5   9
BRANCH   1  26
HETATM   26  C   UNL     1      41.531 -13.151  -0.915  1.00  0.00    -0.016 A 
HETATM   27  C   UNL     1      41.621 -12.296   0.198  1.00  0.00     0.010 A 
HETATM   28  C   UNL     1      42.296 -11.074   0.108  1.00  0.00     0.001 A 
HETATM   29  C   UNL     1      42.897 -10.686  -1.087  1.00  0.00     0.000 A 
HETATM   30  C   UNL     1      42.830 -11.521  -2.196  1.00  0.00     0.001 A 
HETATM   31  C   UNL     1      42.161 -12.744  -2.110  1.00  0.00     0.010 A 
ENDBRANCH   1  26
BRANCH   1  32
HETATM   32  C   UNL     1      39.830 -14.768  -1.970  1.00  0.00    -0.016 A 
HETATM   33  C   UNL     1      38.638 -14.030  -2.090  1.00  0.00     0.010 A 
HETATM   34  C   UNL     1      37.750 -14.270  -3.142  1.00  0.00     0.001 A 
HETATM   35  C   UNL     1      38.035 -15.246  -4.094  1.00  0.00     0.000 A 
HETATM   36  C   UNL     1      39.210 -15.984  -3.997  1.00  0.00     0.001 A 
HETATM   37  C   UNL     1      40.099 -15.747  -2.947  1.00  0.00     0.010 A 
ENDBRANCH   1  32
TORSDOF 5
ENDMDL
MODEL 4
REMARK VINA RESULT:     -10.3      2.376      9.104
REMARK  5 active torsions:
REMARK  status: ('A' for Active; 'I' for Inactive)
REMARK    1  A    between atoms: C_4  and  C_5 
REMARK    2  A    between atoms: C_5  and  C_6 
REMARK    3  A    between atoms: N_15  and  N_16 
REMARK       I    between atoms: N_16  and  C_17 
REMARK    4  A    between atoms: C_17  and  C_18 
REMARK    5  A    between atoms: C_18  and  C_19 
ROOT
HETATM    1  C   UNL     1      40.647 -12.460  -0.483  1.00  0.00     0.173 A 
HETATM    2  N   UNL     1      41.462 -12.172   0.689  1.00  0.00    -0.315 N 
HETATM    3  C   UNL     1      42.064 -13.291   1.212  1.00  0.00     0.346 A 
HETATM    4  O   UNL     1      42.832 -13.280   2.161  1.00  0.00    -0.245 OA
HETATM    5  N   UNL     1      41.696 -14.364   0.454  1.00  0.00    -0.167 N 
HETATM    6  C   UNL     1      40.937 -13.992  -0.632  1.00  0.00     0.285 A 
HETATM    7  O   UNL     1      40.574 -14.715  -1.553  1.00  0.00    -0.267 OA
HETATM    8  H   UNL     1      41.524 -11.272   1.143  1.00  0.00     0.166 HD
ENDROOT
BRANCH   5   9
HETATM    9  N   UNL     1      42.237 -15.633   0.624  1.00  0.00    -0.256 N 
HETATM   10  C   UNL     1      41.467 -16.572   1.291  1.00  0.00     0.242 C 
HETATM   11  O   UNL     1      40.322 -16.372   1.690  1.00  0.00    -0.271 OA
HETATM   12  H   UNL     1      43.233 -15.636   0.844  1.00  0.00     0.191 HD
BRANCH  10  13
HETATM   13  C   UNL     1      42.115 -17.936   1.364  1.00  0.00     0.166 C 
BRANCH  13  14
HETATM   14  C   UNL     1      42.940 -18.217   2.602  1.00  0.00     0.074 A 
HETATM   15  N   UNL     1      43.096 -17.257   3.463  1.00  0.00    -0.175 NA
HETATM   16  N   UNL     1      43.814 -17.506   4.590  1.00  0.00    -0.243 N 
HETATM   17  C   UNL     1      44.399 -18.701   4.931  1.00  0.00     0.272 A 
HETATM   18  H   UNL     1      43.888 -16.745   5.261  1.00  0.00     0.192 HD
HETATM   19  O   UNL     1      45.008 -18.862   5.982  1.00  0.00    -0.266 OA
HETATM   20  C   UNL     1      44.261 -19.790   3.950  1.00  0.00     0.046 A 
HETATM   21  C   UNL     1      43.529 -19.567   2.784  1.00  0.00     0.006 A 
HETATM   22  C   UNL     1      44.864 -21.031   4.185  1.00  0.00     0.018 A 
HETATM   23  C   UNL     1      43.398 -20.596   1.845  1.00  0.00     0.014 A 
HETATM   24  C   UNL     1      44.008 -21.835   2.077  1.00  0.00     0.001 A 
HETATM   25  C   UNL     1      44.740 -22.052   3.244  1.00  0.00     0.001 A 
ENDBRANCH  13  14
ENDBRANCH  10  13
ENDBRANCH   5   9
BRANCH   1  26
HETATM   26  C   UNL     1      39.194 -12.120  -0.123  1.00  0.00    -0.016 A 
HETATM   27  C   UNL     1      38.220 -13.110   0.094  1.00  0.00     0.010 A 
HETATM   28  C   UNL     1      36.918 -12.764   0.473  1.00  0.00     0.001 A 
HETATM   29  C   UNL     1      36.567 -11.427   0.648  1.00  0.00     0.000 A 
HETATM   30  C   UNL     1      37.517 -10.432   0.450  1.00  0.00     0.001 A 
HETATM   31  C   UNL     1      38.819 -10.774   0.077  1.00  0.00     0.010 A 
ENDBRANCH   1  26
BRANCH   1  32
HETATM   32  C   UNL     1      41.154 -11.740  -1.746  1.00  0.00    -0.016 A 
HETATM   33  C   UNL     1      40.433 -11.723  -2.954  1.00  0.00     0.010 A 
HETATM   34  C   UNL     1      40.922 -11.040  -4.071  1.00  0.00     0.001 A 
HETATM   35  C   UNL     1      42.135 -10.358  -4.002  1.00  0.00     0.000 A 
HETATM   36  C   UNL     1      42.862 -10.358  -2.817  1.00  0.00     0.001 A 
HETATM   37  C   UNL     1      42.377 -11.041  -1.700  1.00  0.00     0.010 A 
ENDBRANCH   1  32
TORSDOF 5
ENDMDL
MODEL 5
REMARK VINA RESULT:     -10.1      2.388      3.651
REMARK  5 active torsions:
REMARK  status: ('A' for Active; 'I' for Inactive)
REMARK    1  A    between atoms: C_4  and  C_5 
REMARK    2  A    between atoms: C_5  and  C_6 
REMARK    3  A    between atoms: N_15  and  N_16 
REMARK       I    between atoms: N_16  and  C_17 
REMARK    4  A    between atoms: C_17  and  C_18 
REMARK    5  A    between atoms: C_18  and  C_19 
ROOT
HETATM    1  C   UNL     1      42.657 -17.392   3.719  1.00  0.00     0.173 A 
HETATM    2  N   UNL     1      41.206 -17.355   3.599  1.00  0.00    -0.315 N 
HETATM    3  C   UNL     1      40.764 -16.379   2.739  1.00  0.00     0.346 A 
HETATM    4  O   UNL     1      39.593 -16.198   2.445  1.00  0.00    -0.245 OA
HETATM    5  N   UNL     1      41.854 -15.718   2.251  1.00  0.00    -0.167 N 
HETATM    6  C   UNL     1      43.033 -16.282   2.682  1.00  0.00     0.285 A 
HETATM    7  O   UNL     1      44.164 -15.988   2.308  1.00  0.00    -0.267 OA
HETATM    8  H   UNL     1      40.567 -17.913   4.145  1.00  0.00     0.166 HD
ENDROOT
BRANCH   5   9
HETATM    9  N   UNL     1      41.773 -14.760   1.248  1.00  0.00    -0.256 N 
HETATM   10  C   UNL     1      41.623 -15.208  -0.054  1.00  0.00     0.242 C 
HETATM   11  O   UNL     1      41.502 -16.390  -0.371  1.00  0.00    -0.271 OA
HETATM   12  H   UNL     1      42.402 -13.967   1.377  1.00  0.00     0.191 HD
BRANCH  10  13
HETATM   13  C   UNL     1      41.476 -14.089  -1.060  1.00  0.00     0.166 C 
BRANCH  13  14
HETATM   14  C   UNL     1      40.930 -12.782  -0.527  1.00  0.00     0.074 A 
HETATM   15  N   UNL     1      39.762 -12.793   0.042  1.00  0.00    -0.175 NA
HETATM   16  N   UNL     1      39.274 -11.629   0.545  1.00  0.00    -0.243 N 
HETATM   17  C   UNL     1      39.905 -10.409   0.527  1.00  0.00     0.272 A 
HETATM   18  H   UNL     1      38.372 -11.679   1.016  1.00  0.00     0.192 HD
HETATM   19  O   UNL     1      39.415  -9.405   1.030  1.00  0.00    -0.266 OA
HETATM   20  C   UNL     1      41.214 -10.371  -0.144  1.00  0.00     0.046 A 
HETATM   21  C   UNL     1      41.744 -11.549  -0.670  1.00  0.00     0.006 A 
HETATM   22  C   UNL     1      41.913  -9.163  -0.256  1.00  0.00     0.018 A 
HETATM   23  C   UNL     1      42.987 -11.518  -1.313  1.00  0.00     0.014 A 
HETATM   24  C   UNL     1      43.681 -10.309  -1.433  1.00  0.00     0.001 A 
HETATM   25  C   UNL     1      43.146  -9.134  -0.906  1.00  0.00     0.001 A 
ENDBRANCH  13  14
ENDBRANCH  10  13
ENDBRANCH   5   9
BRANCH   1  26
HETATM   26  C   UNL     1      43.003 -17.046   5.175  1.00  0.00    -0.016 A 
HETATM   27  C   UNL     1      43.792 -15.934   5.518  1.00  0.00     0.010 A 
HETATM   28  C   UNL     1      44.043 -15.619   6.857  1.00  0.00     0.001 A 
HETATM   29  C   UNL     1      43.507 -16.401   7.878  1.00  0.00     0.000 A 
HETATM   30  C   UNL     1      42.714 -17.499   7.562  1.00  0.00     0.001 A 
HETATM   31  C   UNL     1      42.458 -17.814   6.226  1.00  0.00     0.010 A 
ENDBRANCH   1  26
BRANCH   1  32
HETATM   32  C   UNL     1      43.254 -18.729   3.246  1.00  0.00    -0.016 A 
HETATM   33  C   UNL     1      42.837 -19.374   2.067  1.00  0.00     0.010 A 
HETATM   34  C   UNL     1      43.420 -20.579   1.663  1.00  0.00     0.001 A 
HETATM   35  C   UNL     1      44.432 -21.159   2.425  1.00  0.00     0.000 A 
HETATM   36  C   UNL     1      44.863 -20.536   3.591  1.00  0.00     0.001 A 
HETATM   37  C   UNL     1      44.282 -19.334   3.997  1.00  0.00     0.010 A 
ENDBRANCH   1  32
TORSDOF 5
ENDMDL
MODEL 6
REMARK VINA RESULT:     -10.1      2.415      3.426
REMARK  5 active torsions:
REMARK  status: ('A' for Active; 'I' for Inactive)
REMARK    1  A    between atoms: C_4  and  C_5 
REMARK    2  A    between atoms: C_5  and  C_6 
REMARK    3  A    between atoms: N_15  and  N_16 
REMARK       I    between atoms: N_16  and  C_17 
REMARK    4  A    between atoms: C_17  and  C_18 
REMARK    5  A    between atoms: C_18  and  C_19 
ROOT
HETATM    1  C   UNL     1      42.515 -17.340   3.743  1.00  0.00     0.173 A 
HETATM    2  N   UNL     1      41.064 -17.430   3.644  1.00  0.00    -0.315 N 
HETATM    3  C   UNL     1      40.531 -16.534   2.749  1.00  0.00     0.346 A 
HETATM    4  O   UNL     1      39.346 -16.466   2.465  1.00  0.00    -0.245 OA
HETATM    5  N   UNL     1      41.556 -15.808   2.215  1.00  0.00    -0.167 N 
HETATM    6  C   UNL     1      42.783 -16.250   2.651  1.00  0.00     0.285 A 
HETATM    7  O   UNL     1      43.880 -15.880   2.248  1.00  0.00    -0.267 OA
HETATM    8  H   UNL     1      40.480 -18.015   4.225  1.00  0.00     0.166 HD
ENDROOT
BRANCH   5   9
HETATM    9  N   UNL     1      41.382 -14.906   1.171  1.00  0.00    -0.256 N 
HETATM   10  C   UNL     1      41.492 -15.394  -0.120  1.00  0.00     0.242 C 
HETATM   11  O   UNL     1      41.677 -16.576  -0.401  1.00  0.00    -0.271 OA
HETATM   12  H   UNL     1      41.797 -13.989   1.339  1.00  0.00     0.191 HD
BRANCH  10  13
HETATM   13  C   UNL     1      41.219 -14.351  -1.180  1.00  0.00     0.166 C 
BRANCH  13  14
HETATM   14  C   UNL     1      41.757 -12.963  -0.903  1.00  0.00     0.074 A 
HETATM   15  N   UNL     1      41.935 -12.611   0.334  1.00  0.00    -0.175 NA
HETATM   16  N   UNL     1      42.441 -11.377   0.592  1.00  0.00    -0.243 N 
HETATM   17  C   UNL     1      42.806 -10.439  -0.342  1.00  0.00     0.272 A 
HETATM   18  H   UNL     1      42.601 -11.145   1.570  1.00  0.00     0.192 HD
HETATM   19  O   UNL     1      43.286  -9.354  -0.035  1.00  0.00    -0.266 OA
HETATM   20  C   UNL     1      42.580 -10.808  -1.749  1.00  0.00     0.046 A 
HETATM   21  C   UNL     1      42.063 -12.068  -2.047  1.00  0.00     0.006 A 
HETATM   22  C   UNL     1      42.875  -9.899  -2.772  1.00  0.00     0.018 A 
HETATM   23  C   UNL     1      41.841 -12.423  -3.383  1.00  0.00     0.014 A 
HETATM   24  C   UNL     1      42.129 -11.511  -4.405  1.00  0.00     0.001 A 
HETATM   25  C   UNL     1      42.644 -10.252  -4.101  1.00  0.00     0.001 A 
ENDBRANCH  13  14
ENDBRANCH  10  13
ENDBRANCH   5   9
BRANCH   1  26
HETATM   26  C   UNL     1      42.847 -16.900   5.176  1.00  0.00    -0.016 A 
HETATM   27  C   UNL     1      42.412 -17.617   6.305  1.00  0.00     0.010 A 
HETATM   28  C   UNL     1      42.778 -17.216   7.594  1.00  0.00     0.001 A 
HETATM   29  C   UNL     1      43.588 -16.098   7.781  1.00  0.00     0.000 A 
HETATM   30  C   UNL     1      44.039 -15.381   6.679  1.00  0.00     0.001 A 
HETATM   31  C   UNL     1      43.679 -15.781   5.390  1.00  0.00     0.010 A 
ENDBRANCH   1  26
BRANCH   1  32
HETATM   32  C   UNL     1      43.216 -18.643   3.320  1.00  0.00    -0.016 A 
HETATM   33  C   UNL     1      44.243 -19.235   4.078  1.00  0.00     0.010 A 
HETATM   34  C   UNL     1      44.839 -20.430   3.666  1.00  0.00     0.001 A 
HETATM   35  C   UNL     1      44.421 -21.057   2.495  1.00  0.00     0.000 A 
HETATM   36  C   UNL     1      43.404 -20.492   1.732  1.00  0.00     0.001 A 
HETATM   37  C   UNL     1      42.808 -19.298   2.140  1.00  0.00     0.010 A 
ENDBRANCH   1  32
TORSDOF 5
ENDMDL
MODEL 7
REMARK VINA RESULT:     -10.0      2.126      3.135
REMARK  5 active torsions:
REMARK  status: ('A' for Active; 'I' for Inactive)
REMARK    1  A    between atoms: C_4  and  C_5 
REMARK    2  A    between atoms: C_5  and  C_6 
REMARK    3  A    between atoms: N_15  and  N_16 
REMARK       I    between atoms: N_16  and  C_17 
REMARK    4  A    between atoms: C_17  and  C_18 
REMARK    5  A    between atoms: C_18  and  C_19 
ROOT
HETATM    1  C   UNL     1      42.652 -17.377   3.772  1.00  0.00     0.173 A 
HETATM    2  N   UNL     1      41.206 -17.383   3.592  1.00  0.00    -0.315 N 
HETATM    3  C   UNL     1      40.770 -16.410   2.726  1.00  0.00     0.346 A 
HETATM    4  O   UNL     1      39.607 -16.262   2.386  1.00  0.00    -0.245 OA
HETATM    5  N   UNL     1      41.857 -15.710   2.291  1.00  0.00    -0.167 N 
HETATM    6  C   UNL     1      43.035 -16.242   2.764  1.00  0.00     0.285 A 
HETATM    7  O   UNL     1      44.170 -15.909   2.441  1.00  0.00    -0.267 OA
HETATM    8  H   UNL     1      40.563 -17.968   4.105  1.00  0.00     0.166 HD
ENDROOT
BRANCH   5   9
HETATM    9  N   UNL     1      41.787 -14.741   1.297  1.00  0.00    -0.256 N 
HETATM   10  C   UNL     1      41.673 -15.177  -0.013  1.00  0.00     0.242 C 
HETATM   11  O   UNL     1      41.575 -16.356  -0.345  1.00  0.00    -0.271 OA
HETATM   12  H   UNL     1      42.402 -13.942   1.450  1.00  0.00     0.191 HD
BRANCH  10  13
HETATM   13  C   UNL     1      41.535 -14.049  -1.009  1.00  0.00     0.166 C 
BRANCH  13  14
HETATM   14  C   UNL     1      41.388 -12.659  -0.427  1.00  0.00     0.074 A 
HETATM   15  N   UNL     1      42.455 -12.064   0.015  1.00  0.00    -0.175 NA
HETATM   16  N   UNL     1      42.337 -10.807   0.517  1.00  0.00    -0.243 N 
HETATM   17  C   UNL     1      41.180 -10.072   0.600  1.00  0.00     0.272 A 
HETATM   18  H   UNL     1      43.197 -10.356   0.822  1.00  0.00     0.192 HD
HETATM   19  O   UNL     1      41.155  -8.928   1.038  1.00  0.00    -0.266 OA
HETATM   20  C   UNL     1      39.955 -10.743   0.135  1.00  0.00     0.046 A 
HETATM   21  C   UNL     1      40.042 -12.033  -0.387  1.00  0.00     0.006 A 
HETATM   22  C   UNL     1      38.719 -10.093   0.225  1.00  0.00     0.018 A 
HETATM   23  C   UNL     1      38.880 -12.679  -0.826  1.00  0.00     0.014 A 
HETATM   24  C   UNL     1      37.643 -12.031  -0.729  1.00  0.00     0.001 A 
HETATM   25  C   UNL     1      37.562 -10.742  -0.204  1.00  0.00     0.001 A 
ENDBRANCH  13  14
ENDBRANCH  10  13
ENDBRANCH   5   9
BRANCH   1  26
HETATM   26  C   UNL     1      42.927 -17.039   5.244  1.00  0.00    -0.016 A 
HETATM   27  C   UNL     1      42.486 -17.857   6.300  1.00  0.00     0.010 A 
HETATM   28  C   UNL     1      42.800 -17.546   7.627  1.00  0.00     0.001 A 
HETATM   29  C   UNL     1      43.563 -16.419   7.925  1.00  0.00     0.000 A 
HETATM   30  C   UNL     1      44.019 -15.602   6.896  1.00  0.00     0.001 A 
HETATM   31  C   UNL     1      43.711 -15.913   5.570  1.00  0.00     0.010 A 
ENDBRANCH   1  26
BRANCH   1  32
HETATM   32  C   UNL     1      43.309 -18.689   3.307  1.00  0.00    -0.016 A 
HETATM   33  C   UNL     1      44.362 -19.304   4.010  1.00  0.00     0.010 A 
HETATM   34  C   UNL     1      44.917 -20.506   3.563  1.00  0.00     0.001 A 
HETATM   35  C   UNL     1      44.430 -21.118   2.410  1.00  0.00     0.000 A 
HETATM   36  C   UNL     1      43.387 -20.531   1.702  1.00  0.00     0.001 A 
HETATM   37  C   UNL     1      42.832 -19.330   2.146  1.00  0.00     0.010 A 
ENDBRANCH   1  32
TORSDOF 5
ENDMDL
MODEL 8
REMARK VINA RESULT:      -9.8      2.361      9.067
REMARK  5 active torsions:
REMARK  status: ('A' for Active; 'I' for Inactive)
REMARK    1  A    between atoms: C_4  and  C_5 
REMARK    2  A    between atoms: C_5  and  C_6 
REMARK    3  A    between atoms: N_15  and  N_16 
REMARK       I    between atoms: N_16  and  C_17 
REMARK    4  A    between atoms: C_17  and  C_18 
REMARK    5  A    between atoms: C_18  and  C_19 
ROOT
HETATM    1  C   UNL     1      40.698 -12.705  -0.818  1.00  0.00     0.173 A 
HETATM    2  N   UNL     1      40.424 -13.638  -1.902  1.00  0.00    -0.315 N 
HETATM    3  C   UNL     1      40.974 -14.880  -1.693  1.00  0.00     0.346 A 
HETATM    4  O   UNL     1      40.829 -15.832  -2.442  1.00  0.00    -0.245 OA
HETATM    5  N   UNL     1      41.635 -14.855  -0.499  1.00  0.00    -0.167 N 
HETATM    6  C   UNL     1      41.469 -13.657   0.157  1.00  0.00     0.285 A 
HETATM    7  O   UNL     1      41.834 -13.390   1.297  1.00  0.00    -0.267 OA
HETATM    8  H   UNL     1      39.959 -13.400  -2.766  1.00  0.00     0.166 HD
ENDROOT
BRANCH   5   9
HETATM    9  N   UNL     1      42.191 -15.988   0.083  1.00  0.00    -0.256 N 
HETATM   10  C   UNL     1      41.405 -16.699   0.974  1.00  0.00     0.242 C 
HETATM   11  O   UNL     1      40.236 -16.426   1.240  1.00  0.00    -0.271 OA
HETATM   12  H   UNL     1      43.174 -15.887   0.337  1.00  0.00     0.191 HD
BRANCH  10  13
HETATM   13  C   UNL     1      42.074 -17.949   1.498  1.00  0.00     0.166 C 
BRANCH  13  14
HETATM   14  C   UNL     1      42.763 -17.823   2.841  1.00  0.00     0.074 A 
HETATM   15  N   UNL     1      42.620 -16.714   3.500  1.00  0.00    -0.175 NA
HETATM   16  N   UNL     1      43.213 -16.600   4.718  1.00  0.00    -0.243 N 
HETATM   17  C   UNL     1      43.960 -17.565   5.349  1.00  0.00     0.272 A 
HETATM   18  H   UNL     1      43.052 -15.732   5.224  1.00  0.00     0.192 HD
HETATM   19  O   UNL     1      44.440 -17.402   6.464  1.00  0.00    -0.266 OA
HETATM   20  C   UNL     1      44.161 -18.817   4.601  1.00  0.00     0.046 A 
HETATM   21  C   UNL     1      43.564 -18.965   3.350  1.00  0.00     0.006 A 
HETATM   22  C   UNL     1      44.948 -19.840   5.141  1.00  0.00     0.018 A 
HETATM   23  C   UNL     1      43.755 -20.151   2.632  1.00  0.00     0.014 A 
HETATM   24  C   UNL     1      44.549 -21.172   3.168  1.00  0.00     0.001 A 
HETATM   25  C   UNL     1      45.145 -21.017   4.419  1.00  0.00     0.001 A 
ENDBRANCH  13  14
ENDBRANCH  10  13
ENDBRANCH   5   9
BRANCH   1  26
HETATM   26  C   UNL     1      41.548 -11.567  -1.401  1.00  0.00    -0.016 A 
HETATM   27  C   UNL     1      41.125 -10.796  -2.498  1.00  0.00     0.010 A 
HETATM   28  C   UNL     1      41.902  -9.733  -2.970  1.00  0.00     0.001 A 
HETATM   29  C   UNL     1      43.111  -9.416  -2.354  1.00  0.00     0.000 A 
HETATM   30  C   UNL     1      43.544 -10.158  -1.260  1.00  0.00     0.001 A 
HETATM   31  C   UNL     1      42.768 -11.217  -0.784  1.00  0.00     0.010 A 
ENDBRANCH   1  26
BRANCH   1  32
HETATM   32  C   UNL     1      39.416 -12.220  -0.119  1.00  0.00    -0.016 A 
HETATM   33  C   UNL     1      38.236 -12.986  -0.074  1.00  0.00     0.010 A 
HETATM   34  C   UNL     1      37.100 -12.514   0.589  1.00  0.00     0.001 A 
HETATM   35  C   UNL     1      37.120 -11.275   1.224  1.00  0.00     0.000 A 
HETATM   36  C   UNL     1      38.277 -10.503   1.197  1.00  0.00     0.001 A 
HETATM   37  C   UNL     1      39.413 -10.970   0.534  1.00  0.00     0.010 A 
ENDBRANCH   1  32
TORSDOF 5
ENDMDL
MODEL 9
REMARK VINA RESULT:      -9.8      2.208      9.395
REMARK  5 active torsions:
REMARK  status: ('A' for Active; 'I' for Inactive)
REMARK    1  A    between atoms: C_4  and  C_5 
REMARK    2  A    between atoms: C_5  and  C_6 
REMARK    3  A    between atoms: N_15  and  N_16 
REMARK       I    between atoms: N_16  and  C_17 
REMARK    4  A    between atoms: C_17  and  C_18 
REMARK    5  A    between atoms: C_18  and  C_19 
ROOT
HETATM    1  C   UNL     1      39.712 -13.395  -2.027  1.00  0.00     0.173 A 
HETATM    2  N   UNL     1      39.238 -13.087  -0.684  1.00  0.00    -0.315 N 
HETATM    3  C   UNL     1      39.479 -14.097   0.215  1.00  0.00     0.346 A 
HETATM    4  O   UNL     1      39.216 -14.038   1.405  1.00  0.00    -0.245 OA
HETATM    5  N   UNL     1      40.102 -15.115  -0.448  1.00  0.00    -0.167 N 
HETATM    6  C   UNL     1      40.378 -14.785  -1.755  1.00  0.00     0.285 A 
HETATM    7  O   UNL     1      41.041 -15.443  -2.551  1.00  0.00    -0.267 OA
HETATM    8  H   UNL     1      38.707 -12.266  -0.434  1.00  0.00     0.166 HD
ENDROOT
BRANCH   5   9
HETATM    9  N   UNL     1      40.612 -16.237   0.194  1.00  0.00    -0.256 N 
HETATM   10  C   UNL     1      41.882 -16.141   0.737  1.00  0.00     0.242 C 
HETATM   11  O   UNL     1      42.561 -15.116   0.735  1.00  0.00    -0.271 OA
HETATM   12  H   UNL     1      40.390 -17.119  -0.269  1.00  0.00     0.191 HD
BRANCH  10  13
HETATM   13  C   UNL     1      42.317 -17.389   1.470  1.00  0.00     0.166 C 
BRANCH  13  14
HETATM   14  C   UNL     1      42.103 -17.389   2.969  1.00  0.00     0.074 A 
HETATM   15  N   UNL     1      41.200 -16.594   3.459  1.00  0.00    -0.175 NA
HETATM   16  N   UNL     1      40.984 -16.605   4.800  1.00  0.00    -0.243 N 
HETATM   17  C   UNL     1      41.627 -17.397   5.719  1.00  0.00     0.272 A 
HETATM   18  H   UNL     1      40.246 -15.996   5.147  1.00  0.00     0.192 HD
HETATM   19  O   UNL     1      41.357 -17.375   6.914  1.00  0.00    -0.266 OA
HETATM   20  C   UNL     1      42.677 -18.280   5.186  1.00  0.00     0.046 A 
HETATM   21  C   UNL     1      42.923 -18.294   3.814  1.00  0.00     0.006 A 
HETATM   22  C   UNL     1      43.422 -19.090   6.051  1.00  0.00     0.018 A 
HETATM   23  C   UNL     1      43.923 -19.128   3.301  1.00  0.00     0.014 A 
HETATM   24  C   UNL     1      44.674 -19.932   4.167  1.00  0.00     0.001 A 
HETATM   25  C   UNL     1      44.425 -19.913   5.539  1.00  0.00     0.001 A 
ENDBRANCH  13  14
ENDBRANCH  10  13
ENDBRANCH   5   9
BRANCH   1  26
HETATM   26  C   UNL     1      38.481 -13.449  -2.943  1.00  0.00    -0.016 A 
HETATM   27  C   UNL     1      37.995 -14.652  -3.484  1.00  0.00     0.010 A 
HETATM   28  C   UNL     1      36.840 -14.670  -4.272  1.00  0.00     0.001 A 
HETATM   29  C   UNL     1      36.145 -13.490  -4.530  1.00  0.00     0.000 A 
HETATM   30  C   UNL     1      36.600 -12.290  -3.996  1.00  0.00     0.001 A 
HETATM   31  C   UNL     1      37.750 -12.270  -3.204  1.00  0.00     0.010 A 
ENDBRANCH   1  26
BRANCH   1  32
HETATM   32  C   UNL     1      40.797 -12.416  -2.509  1.00  0.00    -0.016 A 
HETATM   33  C   UNL     1      41.151 -12.279  -3.864  1.00  0.00     0.010 A 
HETATM   34  C   UNL     1      42.129 -11.362  -4.260  1.00  0.00     0.001 A 
HETATM   35  C   UNL     1      42.768 -10.564  -3.314  1.00  0.00     0.000 A 
HETATM   36  C   UNL     1      42.430 -10.680  -1.970  1.00  0.00     0.001 A 
HETATM   37  C   UNL     1      41.455 -11.595  -1.571  1.00  0.00     0.010 A 
ENDBRANCH   1  32
TORSDOF 5
ENDMDL
MODEL 10
REMARK VINA RESULT:      -9.8      5.028      9.522
REMARK  5 active torsions:
REMARK  status: ('A' for Active; 'I' for Inactive)
REMARK    1  A    between atoms: C_4  and  C_5 
REMARK    2  A    between atoms: C_5  and  C_6 
REMARK    3  A    between atoms: N_15  and  N_16 
REMARK       I    between atoms: N_16  and  C_17 
REMARK    4  A    between atoms: C_17  and  C_18 
REMARK    5  A    between atoms: C_18  and  C_19 
ROOT
HETATM    1  C   UNL     1      41.355 -15.261   3.423  1.00  0.00     0.173 A 
HETATM    2  N   UNL     1      40.425 -15.528   4.512  1.00  0.00    -0.315 N 
HETATM    3  C   UNL     1      40.626 -14.715   5.601  1.00  0.00     0.346 A 
HETATM    4  O   UNL     1      39.933 -14.725   6.606  1.00  0.00    -0.245 OA
HETATM    5  N   UNL     1      41.674 -13.885   5.323  1.00  0.00    -0.167 N 
HETATM    6  C   UNL     1      42.130 -14.046   4.035  1.00  0.00     0.285 A 
HETATM    7  O   UNL     1      42.967 -13.356   3.464  1.00  0.00    -0.267 OA
HETATM    8  H   UNL     1      39.753 -16.282   4.527  1.00  0.00     0.166 HD
ENDROOT
BRANCH   5   9
HETATM    9  N   UNL     1      42.056 -12.842   6.157  1.00  0.00    -0.256 N 
HETATM   10  C   UNL     1      41.304 -11.679   6.111  1.00  0.00     0.242 C 
HETATM   11  O   UNL     1      40.295 -11.532   5.425  1.00  0.00    -0.271 OA
HETATM   12  H   UNL     1      43.066 -12.718   6.235  1.00  0.00     0.191 HD
BRANCH  10  13
HETATM   13  C   UNL     1      41.759 -10.633   7.103  1.00  0.00     0.166 C 
BRANCH  13  14
HETATM   14  C   UNL     1      41.289 -10.819   8.530  1.00  0.00     0.074 A 
HETATM   15  N   UNL     1      40.017 -10.968   8.741  1.00  0.00    -0.175 NA
HETATM   16  N   UNL     1      39.588 -11.161  10.016  1.00  0.00    -0.243 N 
HETATM   17  C   UNL     1      40.379 -11.228  11.137  1.00  0.00     0.272 A 
HETATM   18  H   UNL     1      38.589 -11.310  10.143  1.00  0.00     0.192 HD
HETATM   19  O   UNL     1      39.923 -11.435  12.255  1.00  0.00    -0.266 OA
HETATM   20  C   UNL     1      41.821 -11.026  10.921  1.00  0.00     0.046 A 
HETATM   21  C   UNL     1      42.293 -10.828   9.624  1.00  0.00     0.006 A 
HETATM   22  C   UNL     1      42.703 -11.028  12.008  1.00  0.00     0.018 A 
HETATM   23  C   UNL     1      43.663 -10.631   9.412  1.00  0.00     0.014 A 
HETATM   24  C   UNL     1      44.544 -10.624  10.500  1.00  0.00     0.001 A 
HETATM   25  C   UNL     1      44.065 -10.822  11.795  1.00  0.00     0.001 A 
ENDBRANCH  13  14
ENDBRANCH  10  13
ENDBRANCH   5   9
BRANCH   1  26
HETATM   26  C   UNL     1      42.205 -16.525   3.230  1.00  0.00    -0.016 A 
HETATM   27  C   UNL     1      43.256 -16.866   4.099  1.00  0.00     0.010 A 
HETATM   28  C   UNL     1      43.975 -18.053   3.923  1.00  0.00     0.001 A 
HETATM   29  C   UNL     1      43.656 -18.923   2.884  1.00  0.00     0.000 A 
HETATM   30  C   UNL     1      42.612 -18.612   2.019  1.00  0.00     0.001 A 
HETATM   31  C   UNL     1      41.889 -17.430   2.195  1.00  0.00     0.010 A 
ENDBRANCH   1  26
BRANCH   1  32
HETATM   32  C   UNL     1      40.644 -14.795   2.141  1.00  0.00    -0.016 A 
HETATM   33  C   UNL     1      41.340 -14.430   0.974  1.00  0.00     0.010 A 
HETATM   34  C   UNL     1      40.652 -14.031  -0.176  1.00  0.00     0.001 A 
HETATM   35  C   UNL     1      39.260 -13.993  -0.184  1.00  0.00     0.000 A 
HETATM   36  C   UNL     1      38.551 -14.354   0.957  1.00  0.00     0.001 A 
HETATM   37  C   UNL     1      39.235 -14.752   2.107  1.00  0.00     0.010 A 
ENDBRANCH   1  32
TORSDOF 5
ENDMDL
