MODEL 1
REMARK VINA RESULT:      -9.8      0.000      0.000
REMARK  8 active torsions:
REMARK  status: ('A' for Active; 'I' for Inactive)
REMARK    1  A    between atoms: C_2  and  O_3 
REMARK    2  A    between atoms: O_3  and  C_4 
REMARK    3  A    between atoms: C_4  and  C_5 
REMARK    4  A    between atoms: C_10  and  N_11 
REMARK       I    between atoms: N_11  and  C_12 
REMARK    5  A    between atoms: C_12  and  C_13 
REMARK    6  A    between atoms: C_13  and  N_14 
REMARK    7  A    between atoms: N_18  and  C_19 
REMARK    8  A    between atoms: C_21  and  C_22 
ROOT
HETATM    1  N   UNL     1      42.323 -11.376   8.734  1.00  0.00    -0.323 N 
HETATM    2  C   UNL     1      41.829 -10.496   7.793  1.00  0.00     0.248 C 
HETATM    3  O   UNL     1      42.078  -9.295   7.752  1.00  0.00    -0.271 OA
HETATM    4  H   UNL     1      42.478 -12.350   8.473  1.00  0.00     0.169 HD
ENDROOT
BRANCH   1   5
HETATM    5  C   UNL     1      43.002 -10.972   9.883  1.00  0.00     0.080 A 
HETATM    6  C   UNL     1      44.366 -11.168  10.034  1.00  0.00     0.137 A 
HETATM    7  N   UNL     1      44.720 -10.640  11.253  1.00  0.00    -0.349 N 
HETATM    8  H   UNL     1      45.666 -10.624  11.614  1.00  0.00     0.166 HD
HETATM    9  C   UNL     1      43.623 -10.137  11.910  1.00  0.00     0.048 A 
HETATM   10  C   UNL     1      42.512 -10.348  11.080  1.00  0.00     0.023 A 
HETATM   11  C   UNL     1      43.545  -9.521  13.171  1.00  0.00     0.070 A 
HETATM   12  C   UNL     1      41.235  -9.965  11.560  1.00  0.00     0.055 A 
HETATM   13  C   UNL     1      41.169  -9.355  12.798  1.00  0.00     0.106 A 
HETATM   14  C   UNL     1      42.280  -9.138  13.569  1.00  0.00     0.107 A 
HETATM   15  O   UNL     1      40.026  -8.911  13.389  1.00  0.00    -0.323 OA
HETATM   16  O   UNL     1      41.979  -8.522  14.746  1.00  0.00    -0.323 OA
HETATM   17  C   UNL     1      40.553  -8.352  14.610  1.00  0.00     0.352 A 
BRANCH   6  18
HETATM   18  C   UNL     1      45.294 -11.749   9.096  1.00  0.00     0.312 C 
HETATM   19  O   UNL     1      46.263 -11.154   8.636  1.00  0.00    -0.258 OA
BRANCH  18  20
HETATM   20  O   UNL     1      44.947 -13.038   8.841  1.00  0.00    -0.317 OA
BRANCH  20  21
HETATM   21  C   UNL     1      45.069 -13.471   7.478  1.00  0.00     0.175 C 
HETATM   22  C   UNL     1      44.326 -14.777   7.280  1.00  0.00     0.034 C 
ENDBRANCH  20  21
ENDBRANCH  18  20
ENDBRANCH   6  18
ENDBRANCH   1   5
BRANCH   2  23
HETATM   23  C   UNL     1      40.929 -11.151   6.734  1.00  0.00     0.337 C 
BRANCH  23  24
HETATM   24  N   UNL     1      41.424 -12.499   6.180  1.00  0.00    -0.060 N 
HETATM   25  H   UNL     1      42.135 -12.853   6.828  1.00  0.00     0.280 HD
HETATM   26  C   UNL     1      40.315 -13.563   6.129  1.00  0.00     0.255 C 
HETATM   27  C   UNL     1      40.848 -14.898   5.565  1.00  0.00     0.150 C 
HETATM   28  N   UNL     1      41.499 -14.665   4.263  1.00  0.00    -0.378 N 
HETATM   29  C   UNL     1      42.613 -13.707   4.290  1.00  0.00     0.150 C 
HETATM   30  C   UNL     1      42.110 -12.346   4.818  1.00  0.00     0.255 C 
BRANCH  28  31
HETATM   31  C   UNL     1      41.520 -15.728   3.364  1.00  0.00     0.030 A 
HETATM   32  C   UNL     1      42.574 -16.656   3.410  1.00  0.00     0.045 A 
HETATM   33  C   UNL     1      42.627 -17.778   2.562  1.00  0.00     0.050 A 
HETATM   34  C   UNL     1      41.587 -17.984   1.651  1.00  0.00     0.016 A 
HETATM   35  C   UNL     1      40.529 -17.082   1.587  1.00  0.00     0.003 A 
HETATM   36  C   UNL     1      40.499 -15.970   2.437  1.00  0.00     0.029 A 
BRANCH  33  37
HETATM   37  C   UNL     1      43.757 -18.772   2.670  1.00  0.00     0.417 C 
HETATM   38  F   UNL     1      44.336 -18.788   3.904  1.00  0.00    -0.166 F 
HETATM   39  F   UNL     1      43.349 -20.048   2.431  1.00  0.00    -0.166 F 
HETATM   40  F   UNL     1      44.764 -18.525   1.790  1.00  0.00    -0.166 F 
ENDBRANCH  33  37
ENDBRANCH  28  31
ENDBRANCH  23  24
ENDBRANCH   2  23
TORSDOF 8
ENDMDL
MODEL 2
REMARK VINA RESULT:      -9.2      4.629      9.990
REMARK  8 active torsions:
REMARK  status: ('A' for Active; 'I' for Inactive)
REMARK    1  A    between atoms: C_2  and  O_3 
REMARK    2  A    between atoms: O_3  and  C_4 
REMARK    3  A    between atoms: C_4  and  C_5 
REMARK    4  A    between atoms: C_10  and  N_11 
REMARK       I    between atoms: N_11  and  C_12 
REMARK    5  A    between atoms: C_12  and  C_13 
REMARK    6  A    between atoms: C_13  and  N_14 
REMARK    7  A    between atoms: N_18  and  C_19 
REMARK    8  A    between atoms: C_21  and  C_22 
ROOT
HETATM    1  N   UNL     1      42.525 -15.613   4.798  1.00  0.00    -0.323 N 
HETATM    2  C   UNL     1      41.239 -15.449   5.269  1.00  0.00     0.248 C 
HETATM    3  O   UNL     1      40.716 -16.132   6.145  1.00  0.00    -0.271 OA
HETATM    4  H   UNL     1      43.040 -14.800   4.460  1.00  0.00     0.169 HD
ENDROOT
BRANCH   1   5
HETATM    5  C   UNL     1      43.325 -16.712   5.110  1.00  0.00     0.080 A 
HETATM    6  C   UNL     1      44.077 -16.763   6.273  1.00  0.00     0.137 A 
HETATM    7  N   UNL     1      44.721 -17.977   6.287  1.00  0.00    -0.349 N 
HETATM    8  H   UNL     1      45.325 -18.293   7.037  1.00  0.00     0.166 HD
HETATM    9  C   UNL     1      44.434 -18.702   5.155  1.00  0.00     0.048 A 
HETATM   10  C   UNL     1      43.566 -17.922   4.375  1.00  0.00     0.023 A 
HETATM   11  C   UNL     1      44.886 -19.978   4.776  1.00  0.00     0.070 A 
HETATM   12  C   UNL     1      43.164 -18.427   3.115  1.00  0.00     0.055 A 
HETATM   13  C   UNL     1      43.608 -19.685   2.752  1.00  0.00     0.106 A 
HETATM   14  C   UNL     1      44.431 -20.431   3.553  1.00  0.00     0.107 A 
HETATM   15  O   UNL     1      43.295 -20.318   1.589  1.00  0.00    -0.323 OA
HETATM   16  O   UNL     1      44.738 -21.636   2.999  1.00  0.00    -0.323 OA
HETATM   17  C   UNL     1      43.988 -21.570   1.768  1.00  0.00     0.352 A 
BRANCH   6  18
HETATM   18  C   UNL     1      44.154 -15.786   7.330  1.00  0.00     0.312 C 
HETATM   19  O   UNL     1      43.755 -15.983   8.473  1.00  0.00    -0.258 OA
BRANCH  18  20
HETATM   20  O   UNL     1      44.757 -14.657   6.872  1.00  0.00    -0.317 OA
BRANCH  20  21
HETATM   21  C   UNL     1      44.747 -13.527   7.758  1.00  0.00     0.175 C 
HETATM   22  C   UNL     1      46.082 -12.813   7.704  1.00  0.00     0.034 C 
ENDBRANCH  20  21
ENDBRANCH  18  20
ENDBRANCH   6  18
ENDBRANCH   1   5
BRANCH   2  23
HETATM   23  C   UNL     1      40.477 -14.284   4.619  1.00  0.00     0.337 C 
BRANCH  23  24
HETATM   24  N   UNL     1      40.514 -12.951   5.388  1.00  0.00    -0.060 N 
HETATM   25  H   UNL     1      40.171 -12.223   4.753  1.00  0.00     0.280 HD
HETATM   26  C   UNL     1      39.577 -12.943   6.607  1.00  0.00     0.255 C 
HETATM   27  C   UNL     1      39.646 -11.593   7.354  1.00  0.00     0.150 C 
HETATM   28  N   UNL     1      41.046 -11.277   7.687  1.00  0.00    -0.378 N 
HETATM   29  C   UNL     1      41.957 -11.206   6.536  1.00  0.00     0.150 C 
HETATM   30  C   UNL     1      41.942 -12.552   5.781  1.00  0.00     0.255 C 
BRANCH  28  31
HETATM   31  C   UNL     1      41.269 -10.468   8.798  1.00  0.00     0.030 A 
HETATM   32  C   UNL     1      42.219 -10.853   9.759  1.00  0.00     0.045 A 
HETATM   33  C   UNL     1      42.526 -10.055  10.877  1.00  0.00     0.050 A 
HETATM   34  C   UNL     1      41.870  -8.830  11.030  1.00  0.00     0.016 A 
HETATM   35  C   UNL     1      40.928  -8.423  10.091  1.00  0.00     0.003 A 
HETATM   36  C   UNL     1      40.635  -9.234   8.989  1.00  0.00     0.029 A 
BRANCH  33  37
HETATM   37  C   UNL     1      43.581 -10.487  11.865  1.00  0.00     0.417 C 
HETATM   38  F   UNL     1      43.206 -11.567  12.607  1.00  0.00    -0.166 F 
HETATM   39  F   UNL     1      44.748 -10.836  11.257  1.00  0.00    -0.166 F 
HETATM   40  F   UNL     1      43.897  -9.513  12.761  1.00  0.00    -0.166 F 
ENDBRANCH  33  37
ENDBRANCH  28  31
ENDBRANCH  23  24
ENDBRANCH   2  23
TORSDOF 8
ENDMDL
MODEL 3
REMARK VINA RESULT:      -9.1      1.363      2.927
REMARK  8 active torsions:
REMARK  status: ('A' for Active; 'I' for Inactive)
REMARK    1  A    between atoms: C_2  and  O_3 
REMARK    2  A    between atoms: O_3  and  C_4 
REMARK    3  A    between atoms: C_4  and  C_5 
REMARK    4  A    between atoms: C_10  and  N_11 
REMARK       I    between atoms: N_11  and  C_12 
REMARK    5  A    between atoms: C_12  and  C_13 
REMARK    6  A    between atoms: C_13  and  N_14 
REMARK    7  A    between atoms: N_18  and  C_19 
REMARK    8  A    between atoms: C_21  and  C_22 
ROOT
HETATM    1  N   UNL     1      43.122 -11.784   9.358  1.00  0.00    -0.323 N 
HETATM    2  C   UNL     1      44.452 -11.707   9.001  1.00  0.00     0.248 C 
HETATM    3  O   UNL     1      45.195 -10.760   9.247  1.00  0.00    -0.271 OA
HETATM    4  H   UNL     1      42.711 -12.697   9.555  1.00  0.00     0.169 HD
ENDROOT
BRANCH   1   5
HETATM    5  C   UNL     1      42.397 -10.704   9.861  1.00  0.00     0.080 A 
HETATM    6  C   UNL     1      41.746  -9.808   9.028  1.00  0.00     0.137 A 
HETATM    7  N   UNL     1      41.113  -8.890   9.832  1.00  0.00    -0.349 N 
HETATM    8  H   UNL     1      40.540  -8.130   9.487  1.00  0.00     0.166 HD
HETATM    9  C   UNL     1      41.359  -9.146  11.160  1.00  0.00     0.048 A 
HETATM   10  C   UNL     1      42.186 -10.278  11.216  1.00  0.00     0.023 A 
HETATM   11  C   UNL     1      40.911  -8.453  12.297  1.00  0.00     0.070 A 
HETATM   12  C   UNL     1      42.634 -10.716  12.486  1.00  0.00     0.055 A 
HETATM   13  C   UNL     1      42.185 -10.032  13.600  1.00  0.00     0.106 A 
HETATM   14  C   UNL     1      41.352  -8.948  13.508  1.00  0.00     0.107 A 
HETATM   15  O   UNL     1      42.505 -10.339  14.887  1.00  0.00    -0.323 OA
HETATM   16  O   UNL     1      41.036  -8.436  14.729  1.00  0.00    -0.323 OA
HETATM   17  C   UNL     1      41.744  -9.342  15.599  1.00  0.00     0.352 A 
BRANCH   6  18
HETATM   18  C   UNL     1      41.663  -9.827   7.588  1.00  0.00     0.312 C 
HETATM   19  O   UNL     1      41.941  -8.869   6.875  1.00  0.00    -0.258 OA
BRANCH  18  20
HETATM   20  O   UNL     1      41.270 -11.057   7.165  1.00  0.00    -0.317 OA
BRANCH  20  21
HETATM   21  C   UNL     1      39.854 -11.279   7.084  1.00  0.00     0.175 C 
HETATM   22  C   UNL     1      39.460 -11.610   5.658  1.00  0.00     0.034 C 
ENDBRANCH  20  21
ENDBRANCH  18  20
ENDBRANCH   6  18
ENDBRANCH   1   5
BRANCH   2  23
HETATM   23  C   UNL     1      44.978 -12.950   8.268  1.00  0.00     0.337 C 
BRANCH  23  24
HETATM   24  N   UNL     1      43.925 -13.761   7.493  1.00  0.00    -0.060 N 
HETATM   25  H   UNL     1      43.054 -13.726   8.032  1.00  0.00     0.280 HD
HETATM   26  C   UNL     1      43.607 -13.159   6.114  1.00  0.00     0.255 C 
HETATM   27  C   UNL     1      42.551 -14.002   5.367  1.00  0.00     0.150 C 
HETATM   28  N   UNL     1      42.987 -15.409   5.306  1.00  0.00    -0.378 N 
HETATM   29  C   UNL     1      43.230 -16.039   6.611  1.00  0.00     0.150 C 
HETATM   30  C   UNL     1      44.308 -15.242   7.377  1.00  0.00     0.255 C 
BRANCH  28  31
HETATM   31  C   UNL     1      42.517 -16.175   4.243  1.00  0.00     0.030 A 
HETATM   32  C   UNL     1      43.196 -17.351   3.880  1.00  0.00     0.045 A 
HETATM   33  C   UNL     1      42.743 -18.194   2.849  1.00  0.00     0.050 A 
HETATM   34  C   UNL     1      41.569 -17.857   2.169  1.00  0.00     0.016 A 
HETATM   35  C   UNL     1      40.876 -16.700   2.511  1.00  0.00     0.003 A 
HETATM   36  C   UNL     1      41.346 -15.874   3.538  1.00  0.00     0.029 A 
BRANCH  33  37
HETATM   37  C   UNL     1      43.481 -19.468   2.517  1.00  0.00     0.417 C 
HETATM   38  F   UNL     1      43.886 -20.153   3.624  1.00  0.00    -0.166 F 
HETATM   39  F   UNL     1      42.718 -20.336   1.798  1.00  0.00    -0.166 F 
HETATM   40  F   UNL     1      44.605 -19.252   1.782  1.00  0.00    -0.166 F 
ENDBRANCH  33  37
ENDBRANCH  28  31
ENDBRANCH  23  24
ENDBRANCH   2  23
TORSDOF 8
ENDMDL
MODEL 4
REMARK VINA RESULT:      -9.0      5.442      8.843
REMARK  8 active torsions:
REMARK  status: ('A' for Active; 'I' for Inactive)
REMARK    1  A    between atoms: C_2  and  O_3 
REMARK    2  A    between atoms: O_3  and  C_4 
REMARK    3  A    between atoms: C_4  and  C_5 
REMARK    4  A    between atoms: C_10  and  N_11 
REMARK       I    between atoms: N_11  and  C_12 
REMARK    5  A    between atoms: C_12  and  C_13 
REMARK    6  A    between atoms: C_13  and  N_14 
REMARK    7  A    between atoms: N_18  and  C_19 
REMARK    8  A    between atoms: C_21  and  C_22 
ROOT
HETATM    1  N   UNL     1      39.730 -14.000   3.583  1.00  0.00    -0.323 N 
HETATM    2  C   UNL     1      40.709 -13.193   4.125  1.00  0.00     0.248 C 
HETATM    3  O   UNL     1      41.396 -12.395   3.493  1.00  0.00    -0.271 OA
HETATM    4  H   UNL     1      38.926 -14.260   4.154  1.00  0.00     0.169 HD
ENDROOT
BRANCH   1   5
HETATM    5  C   UNL     1      39.540 -14.163   2.211  1.00  0.00     0.080 A 
HETATM    6  C   UNL     1      40.166 -15.175   1.501  1.00  0.00     0.137 A 
HETATM    7  N   UNL     1      39.751 -15.073   0.194  1.00  0.00    -0.349 N 
HETATM    8  H   UNL     1      40.036 -15.703  -0.545  1.00  0.00     0.166 HD
HETATM    9  C   UNL     1      38.899 -14.006   0.030  1.00  0.00     0.048 A 
HETATM   10  C   UNL     1      38.758 -13.394   1.284  1.00  0.00     0.023 A 
HETATM   11  C   UNL     1      38.259 -13.550  -1.135  1.00  0.00     0.070 A 
HETATM   12  C   UNL     1      37.966 -12.222   1.371  1.00  0.00     0.055 A 
HETATM   13  C   UNL     1      37.336 -11.784   0.222  1.00  0.00     0.106 A 
HETATM   14  C   UNL     1      37.473 -12.425  -0.980  1.00  0.00     0.107 A 
HETATM   15  O   UNL     1      36.527 -10.692   0.144  1.00  0.00    -0.323 OA
HETATM   16  O   UNL     1      36.761 -11.822  -1.971  1.00  0.00    -0.323 OA
HETATM   17  C   UNL     1      36.139 -10.743  -1.244  1.00  0.00     0.352 A 
BRANCH   6  18
HETATM   18  C   UNL     1      41.043 -16.206   2.000  1.00  0.00     0.312 C 
HETATM   19  O   UNL     1      40.787 -16.909   2.971  1.00  0.00    -0.258 OA
BRANCH  18  20
HETATM   20  O   UNL     1      42.151 -16.288   1.216  1.00  0.00    -0.317 OA
BRANCH  20  21
HETATM   21  C   UNL     1      43.411 -16.353   1.902  1.00  0.00     0.175 C 
HETATM   22  C   UNL     1      44.281 -17.431   1.289  1.00  0.00     0.034 C 
ENDBRANCH  20  21
ENDBRANCH  18  20
ENDBRANCH   6  18
ENDBRANCH   1   5
BRANCH   2  23
HETATM   23  C   UNL     1      40.874 -13.342   5.645  1.00  0.00     0.337 C 
BRANCH  23  24
HETATM   24  N   UNL     1      41.655 -14.583   6.112  1.00  0.00    -0.060 N 
HETATM   25  H   UNL     1      41.995 -14.391   7.060  1.00  0.00     0.280 HD
HETATM   26  C   UNL     1      40.773 -15.838   6.211  1.00  0.00     0.255 C 
HETATM   27  C   UNL     1      41.592 -17.061   6.678  1.00  0.00     0.150 C 
HETATM   28  N   UNL     1      42.767 -17.237   5.806  1.00  0.00    -0.378 N 
HETATM   29  C   UNL     1      43.673 -16.081   5.744  1.00  0.00     0.150 C 
HETATM   30  C   UNL     1      42.896 -14.842   5.248  1.00  0.00     0.255 C 
BRANCH  28  31
HETATM   31  C   UNL     1      43.279 -18.526   5.681  1.00  0.00     0.030 A 
HETATM   32  C   UNL     1      43.536 -19.051   4.403  1.00  0.00     0.045 A 
HETATM   33  C   UNL     1      44.099 -20.326   4.212  1.00  0.00     0.050 A 
HETATM   34  C   UNL     1      44.428 -21.092   5.334  1.00  0.00     0.016 A 
HETATM   35  C   UNL     1      44.188 -20.595   6.611  1.00  0.00     0.003 A 
HETATM   36  C   UNL     1      43.623 -19.325   6.778  1.00  0.00     0.029 A 
BRANCH  33  37
HETATM   37  C   UNL     1      44.395 -20.836   2.823  1.00  0.00     0.417 C 
HETATM   38  F   UNL     1      44.506 -22.194   2.767  1.00  0.00    -0.166 F 
HETATM   39  F   UNL     1      43.424 -20.502   1.931  1.00  0.00    -0.166 F 
HETATM   40  F   UNL     1      45.560 -20.347   2.317  1.00  0.00    -0.166 F 
ENDBRANCH  33  37
ENDBRANCH  28  31
ENDBRANCH  23  24
ENDBRANCH   2  23
TORSDOF 8
ENDMDL
MODEL 5
REMARK VINA RESULT:      -9.0      5.461      9.149
REMARK  8 active torsions:
REMARK  status: ('A' for Active; 'I' for Inactive)
REMARK    1  A    between atoms: C_2  and  O_3 
REMARK    2  A    between atoms: O_3  and  C_4 
REMARK    3  A    between atoms: C_4  and  C_5 
REMARK    4  A    between atoms: C_10  and  N_11 
REMARK       I    between atoms: N_11  and  C_12 
REMARK    5  A    between atoms: C_12  and  C_13 
REMARK    6  A    between atoms: C_13  and  N_14 
REMARK    7  A    between atoms: N_18  and  C_19 
REMARK    8  A    between atoms: C_21  and  C_22 
ROOT
HETATM    1  N   UNL     1      42.210 -16.122   5.124  1.00  0.00    -0.323 N 
HETATM    2  C   UNL     1      40.884 -16.063   5.498  1.00  0.00     0.248 C 
HETATM    3  O   UNL     1      40.331 -16.846   6.265  1.00  0.00    -0.271 OA
HETATM    4  H   UNL     1      42.705 -15.258   4.901  1.00  0.00     0.169 HD
ENDROOT
BRANCH   1   5
HETATM    5  C   UNL     1      43.042 -17.206   5.406  1.00  0.00     0.080 A 
HETATM    6  C   UNL     1      43.708 -17.321   6.616  1.00  0.00     0.137 A 
HETATM    7  N   UNL     1      44.413 -18.500   6.582  1.00  0.00    -0.349 N 
HETATM    8  H   UNL     1      44.975 -18.851   7.348  1.00  0.00     0.166 HD
HETATM    9  C   UNL     1      44.249 -19.139   5.375  1.00  0.00     0.048 A 
HETATM   10  C   UNL     1      43.400 -18.336   4.597  1.00  0.00     0.023 A 
HETATM   11  C   UNL     1      44.794 -20.355   4.930  1.00  0.00     0.070 A 
HETATM   12  C   UNL     1      43.119 -18.750   3.272  1.00  0.00     0.055 A 
HETATM   13  C   UNL     1      43.654 -19.950   2.844  1.00  0.00     0.106 A 
HETATM   14  C   UNL     1      44.454 -20.723   3.643  1.00  0.00     0.107 A 
HETATM   15  O   UNL     1      43.462 -20.496   1.612  1.00  0.00    -0.323 OA
HETATM   16  O   UNL     1      44.865 -21.860   3.017  1.00  0.00    -0.323 OA
HETATM   17  C   UNL     1      44.205 -21.725   1.742  1.00  0.00     0.352 A 
BRANCH   6  18
HETATM   18  C   UNL     1      43.655 -16.435   7.753  1.00  0.00     0.312 C 
HETATM   19  O   UNL     1      43.656 -16.817   8.918  1.00  0.00    -0.258 OA
BRANCH  18  20
HETATM   20  O   UNL     1      43.641 -15.143   7.330  1.00  0.00    -0.317 OA
BRANCH  20  21
HETATM   21  C   UNL     1      44.917 -14.561   7.026  1.00  0.00     0.175 C 
HETATM   22  C   UNL     1      45.115 -13.292   7.830  1.00  0.00     0.034 C 
ENDBRANCH  20  21
ENDBRANCH  18  20
ENDBRANCH   6  18
ENDBRANCH   1   5
BRANCH   2  23
HETATM   23  C   UNL     1      40.113 -14.882   4.888  1.00  0.00     0.337 C 
BRANCH  23  24
HETATM   24  N   UNL     1      39.855 -14.965   3.374  1.00  0.00    -0.060 N 
HETATM   25  H   UNL     1      38.921 -15.369   3.245  1.00  0.00     0.280 HD
HETATM   26  C   UNL     1      39.828 -13.584   2.698  1.00  0.00     0.255 C 
HETATM   27  C   UNL     1      39.572 -13.710   1.181  1.00  0.00     0.150 C 
HETATM   28  N   UNL     1      40.550 -14.637   0.584  1.00  0.00    -0.378 N 
HETATM   29  C   UNL     1      40.551 -15.990   1.157  1.00  0.00     0.150 C 
HETATM   30  C   UNL     1      40.839 -15.909   2.672  1.00  0.00     0.255 C 
BRANCH  28  31
HETATM   31  C   UNL     1      40.862 -14.454  -0.761  1.00  0.00     0.030 A 
HETATM   32  C   UNL     1      41.322 -13.202  -1.203  1.00  0.00     0.045 A 
HETATM   33  C   UNL     1      41.701 -12.967  -2.538  1.00  0.00     0.050 A 
HETATM   34  C   UNL     1      41.629 -14.021  -3.454  1.00  0.00     0.016 A 
HETATM   35  C   UNL     1      41.180 -15.271  -3.041  1.00  0.00     0.003 A 
HETATM   36  C   UNL     1      40.804 -15.482  -1.710  1.00  0.00     0.029 A 
BRANCH  33  37
HETATM   37  C   UNL     1      42.228 -11.619  -2.963  1.00  0.00     0.417 C 
HETATM   38  F   UNL     1      43.266 -11.185  -2.192  1.00  0.00    -0.166 F 
HETATM   39  F   UNL     1      42.687 -11.622  -4.243  1.00  0.00    -0.166 F 
HETATM   40  F   UNL     1      41.285 -10.640  -2.900  1.00  0.00    -0.166 F 
ENDBRANCH  33  37
ENDBRANCH  28  31
ENDBRANCH  23  24
ENDBRANCH   2  23
TORSDOF 8
ENDMDL
MODEL 6
REMARK VINA RESULT:      -8.9      5.978      9.775
REMARK  8 active torsions:
REMARK  status: ('A' for Active; 'I' for Inactive)
REMARK    1  A    between atoms: C_2  and  O_3 
REMARK    2  A    between atoms: O_3  and  C_4 
REMARK    3  A    between atoms: C_4  and  C_5 
REMARK    4  A    between atoms: C_10  and  N_11 
REMARK       I    between atoms: N_11  and  C_12 
REMARK    5  A    between atoms: C_12  and  C_13 
REMARK    6  A    between atoms: C_13  and  N_14 
REMARK    7  A    between atoms: N_18  and  C_19 
REMARK    8  A    between atoms: C_21  and  C_22 
ROOT
HETATM    1  N   UNL     1      42.109 -13.374   1.746  1.00  0.00    -0.323 N 
HETATM    2  C   UNL     1      41.155 -12.742   2.517  1.00  0.00     0.248 C 
HETATM    3  O   UNL     1      39.980 -12.586   2.198  1.00  0.00    -0.271 OA
HETATM    4  H   UNL     1      42.872 -13.871   2.204  1.00  0.00     0.169 HD
ENDROOT
BRANCH   1   5
HETATM    5  C   UNL     1      41.907 -13.731   0.413  1.00  0.00     0.080 A 
HETATM    6  C   UNL     1      41.502 -15.006   0.051  1.00  0.00     0.137 A 
HETATM    7  N   UNL     1      41.373 -15.019  -1.318  1.00  0.00    -0.349 N 
HETATM    8  H   UNL     1      41.066 -15.822  -1.854  1.00  0.00     0.166 HD
HETATM    9  C   UNL     1      41.714 -13.801  -1.857  1.00  0.00     0.048 A 
HETATM   10  C   UNL     1      42.076 -12.965  -0.790  1.00  0.00     0.023 A 
HETATM   11  C   UNL     1      41.727 -13.396  -3.202  1.00  0.00     0.070 A 
HETATM   12  C   UNL     1      42.529 -11.657  -1.089  1.00  0.00     0.055 A 
HETATM   13  C   UNL     1      42.533 -11.264  -2.415  1.00  0.00     0.106 A 
HETATM   14  C   UNL     1      42.143 -12.098  -3.428  1.00  0.00     0.107 A 
HETATM   15  O   UNL     1      42.917 -10.038  -2.864  1.00  0.00    -0.323 OA
HETATM   16  O   UNL     1      42.225 -11.502  -4.649  1.00  0.00    -0.323 OA
HETATM   17  C   UNL     1      42.685 -10.185  -4.280  1.00  0.00     0.352 A 
BRANCH   6  18
HETATM   18  C   UNL     1      41.195 -16.124   0.910  1.00  0.00     0.312 C 
HETATM   19  O   UNL     1      40.397 -16.071   1.839  1.00  0.00    -0.258 OA
BRANCH  18  20
HETATM   20  O   UNL     1      41.889 -17.220   0.506  1.00  0.00    -0.317 OA
BRANCH  20  21
HETATM   21  C   UNL     1      42.737 -17.832   1.490  1.00  0.00     0.175 C 
HETATM   22  C   UNL     1      44.066 -17.108   1.553  1.00  0.00     0.034 C 
ENDBRANCH  20  21
ENDBRANCH  18  20
ENDBRANCH   6  18
ENDBRANCH   1   5
BRANCH   2  23
HETATM   23  C   UNL     1      41.675 -12.248   3.875  1.00  0.00     0.337 C 
BRANCH  23  24
HETATM   24  N   UNL     1      42.018 -13.346   4.897  1.00  0.00    -0.060 N 
HETATM   25  H   UNL     1      41.913 -12.938   5.832  1.00  0.00     0.280 HD
HETATM   26  C   UNL     1      41.051 -14.540   4.834  1.00  0.00     0.255 C 
HETATM   27  C   UNL     1      41.430 -15.621   5.868  1.00  0.00     0.150 C 
HETATM   28  N   UNL     1      42.844 -16.001   5.699  1.00  0.00    -0.378 N 
HETATM   29  C   UNL     1      43.803 -14.895   5.826  1.00  0.00     0.150 C 
HETATM   30  C   UNL     1      43.476 -13.806   4.782  1.00  0.00     0.255 C 
BRANCH  28  31
HETATM   31  C   UNL     1      43.210 -17.285   6.095  1.00  0.00     0.030 A 
HETATM   32  C   UNL     1      43.636 -18.215   5.132  1.00  0.00     0.045 A 
HETATM   33  C   UNL     1      44.066 -19.511   5.475  1.00  0.00     0.050 A 
HETATM   34  C   UNL     1      44.082 -19.881   6.823  1.00  0.00     0.016 A 
HETATM   35  C   UNL     1      43.669 -18.978   7.797  1.00  0.00     0.003 A 
HETATM   36  C   UNL     1      43.241 -17.696   7.434  1.00  0.00     0.029 A 
BRANCH  33  37
HETATM   37  C   UNL     1      44.553 -20.466   4.413  1.00  0.00     0.417 C 
HETATM   38  F   UNL     1      43.829 -20.395   3.260  1.00  0.00    -0.166 F 
HETATM   39  F   UNL     1      45.846 -20.231   4.059  1.00  0.00    -0.166 F 
HETATM   40  F   UNL     1      44.498 -21.767   4.807  1.00  0.00    -0.166 F 
ENDBRANCH  33  37
ENDBRANCH  28  31
ENDBRANCH  23  24
ENDBRANCH   2  23
TORSDOF 8
ENDMDL
MODEL 7
REMARK VINA RESULT:      -8.9      5.538      9.439
REMARK  8 active torsions:
REMARK  status: ('A' for Active; 'I' for Inactive)
REMARK    1  A    between atoms: C_2  and  O_3 
REMARK    2  A    between atoms: O_3  and  C_4 
REMARK    3  A    between atoms: C_4  and  C_5 
REMARK    4  A    between atoms: C_10  and  N_11 
REMARK       I    between atoms: N_11  and  C_12 
REMARK    5  A    between atoms: C_12  and  C_13 
REMARK    6  A    between atoms: C_13  and  N_14 
REMARK    7  A    between atoms: N_18  and  C_19 
REMARK    8  A    between atoms: C_21  and  C_22 
ROOT
HETATM    1  N   UNL     1      42.881 -15.943   4.663  1.00  0.00    -0.323 N 
HETATM    2  C   UNL     1      41.601 -15.633   5.073  1.00  0.00     0.248 C 
HETATM    3  O   UNL     1      40.978 -16.226   5.949  1.00  0.00    -0.271 OA
HETATM    4  H   UNL     1      43.488 -15.199   4.318  1.00  0.00     0.169 HD
ENDROOT
BRANCH   1   5
HETATM    5  C   UNL     1      43.552 -17.104   5.047  1.00  0.00     0.080 A 
HETATM    6  C   UNL     1      44.168 -17.218   6.283  1.00  0.00     0.137 A 
HETATM    7  N   UNL     1      44.709 -18.479   6.354  1.00  0.00    -0.349 N 
HETATM    8  H   UNL     1      45.201 -18.844   7.160  1.00  0.00     0.166 HD
HETATM    9  C   UNL     1      44.490 -19.176   5.189  1.00  0.00     0.048 A 
HETATM   10  C   UNL     1      43.776 -18.328   4.329  1.00  0.00     0.023 A 
HETATM   11  C   UNL     1      44.877 -20.483   4.847  1.00  0.00     0.070 A 
HETATM   12  C   UNL     1      43.473 -18.795   3.027  1.00  0.00     0.055 A 
HETATM   13  C   UNL     1      43.853 -20.083   2.701  1.00  0.00     0.106 A 
HETATM   14  C   UNL     1      44.523 -20.895   3.577  1.00  0.00     0.107 A 
HETATM   15  O   UNL     1      43.618 -20.687   1.503  1.00  0.00    -0.323 OA
HETATM   16  O   UNL     1      44.792 -22.119   3.046  1.00  0.00    -0.323 OA
HETATM   17  C   UNL     1      44.187 -21.991   1.742  1.00  0.00     0.352 A 
BRANCH   6  18
HETATM   18  C   UNL     1      44.207 -16.252   7.354  1.00  0.00     0.312 C 
HETATM   19  O   UNL     1      43.677 -16.422   8.446  1.00  0.00    -0.258 OA
BRANCH  18  20
HETATM   20  O   UNL     1      44.937 -15.171   6.973  1.00  0.00    -0.317 OA
BRANCH  20  21
HETATM   21  C   UNL     1      44.339 -13.887   7.206  1.00  0.00     0.175 C 
HETATM   22  C   UNL     1      45.258 -13.032   8.056  1.00  0.00     0.034 C 
ENDBRANCH  20  21
ENDBRANCH  18  20
ENDBRANCH   6  18
ENDBRANCH   1   5
BRANCH   2  23
HETATM   23  C   UNL     1      40.986 -14.425   4.351  1.00  0.00     0.337 C 
BRANCH  23  24
HETATM   24  N   UNL     1      40.742 -14.604   2.842  1.00  0.00    -0.060 N 
HETATM   25  H   UNL     1      40.982 -15.572   2.606  1.00  0.00     0.280 HD
HETATM   26  C   UNL     1      39.266 -14.415   2.453  1.00  0.00     0.255 C 
HETATM   27  C   UNL     1      39.062 -14.598   0.933  1.00  0.00     0.150 C 
HETATM   28  N   UNL     1      39.982 -13.713   0.196  1.00  0.00    -0.378 N 
HETATM   29  C   UNL     1      41.407 -13.917   0.490  1.00  0.00     0.150 C 
HETATM   30  C   UNL     1      41.658 -13.709   1.999  1.00  0.00     0.255 C 
BRANCH  28  31
HETATM   31  C   UNL     1      39.588 -13.304  -1.076  1.00  0.00     0.030 A 
HETATM   32  C   UNL     1      38.837 -14.174  -1.885  1.00  0.00     0.045 A 
HETATM   33  C   UNL     1      38.367 -13.801  -3.158  1.00  0.00     0.050 A 
HETATM   34  C   UNL     1      38.645 -12.514  -3.628  1.00  0.00     0.016 A 
HETATM   35  C   UNL     1      39.383 -11.632  -2.846  1.00  0.00     0.003 A 
HETATM   36  C   UNL     1      39.844 -12.024  -1.585  1.00  0.00     0.029 A 
BRANCH  33  37
HETATM   37  C   UNL     1      37.531 -14.752  -3.978  1.00  0.00     0.417 C 
HETATM   38  F   UNL     1      36.661 -14.114  -4.812  1.00  0.00    -0.166 F 
HETATM   39  F   UNL     1      38.289 -15.557  -4.771  1.00  0.00    -0.166 F 
HETATM   40  F   UNL     1      36.770 -15.582  -3.213  1.00  0.00    -0.166 F 
ENDBRANCH  33  37
ENDBRANCH  28  31
ENDBRANCH  23  24
ENDBRANCH   2  23
TORSDOF 8
ENDMDL
MODEL 8
REMARK VINA RESULT:      -8.8      1.660      2.110
REMARK  8 active torsions:
REMARK  status: ('A' for Active; 'I' for Inactive)
REMARK    1  A    between atoms: C_2  and  O_3 
REMARK    2  A    between atoms: O_3  and  C_4 
REMARK    3  A    between atoms: C_4  and  C_5 
REMARK    4  A    between atoms: C_10  and  N_11 
REMARK       I    between atoms: N_11  and  C_12 
REMARK    5  A    between atoms: C_12  and  C_13 
REMARK    6  A    between atoms: C_13  and  N_14 
REMARK    7  A    between atoms: N_18  and  C_19 
REMARK    8  A    between atoms: C_21  and  C_22 
ROOT
HETATM    1  N   UNL     1      41.964 -10.760   7.704  1.00  0.00    -0.323 N 
HETATM    2  C   UNL     1      40.880 -11.456   7.210  1.00  0.00     0.248 C 
HETATM    3  O   UNL     1      39.872 -11.739   7.850  1.00  0.00    -0.271 OA
HETATM    4  H   UNL     1      42.510 -10.174   7.073  1.00  0.00     0.169 HD
ENDROOT
BRANCH   1   5
HETATM    5  C   UNL     1      42.141 -10.471   9.057  1.00  0.00     0.080 A 
HETATM    6  C   UNL     1      43.343 -10.709   9.705  1.00  0.00     0.137 A 
HETATM    7  N   UNL     1      43.192 -10.295  11.007  1.00  0.00    -0.349 N 
HETATM    8  H   UNL     1      43.925 -10.331  11.705  1.00  0.00     0.166 HD
HETATM    9  C   UNL     1      41.920  -9.825  11.231  1.00  0.00     0.048 A 
HETATM   10  C   UNL     1      41.219  -9.940  10.021  1.00  0.00     0.023 A 
HETATM   11  C   UNL     1      41.354  -9.318  12.413  1.00  0.00     0.070 A 
HETATM   12  C   UNL     1      39.852  -9.571  10.003  1.00  0.00     0.055 A 
HETATM   13  C   UNL     1      39.304  -9.068  11.168  1.00  0.00     0.106 A 
HETATM   14  C   UNL     1      40.028  -8.942  12.324  1.00  0.00     0.107 A 
HETATM   15  O   UNL     1      38.016  -8.650  11.309  1.00  0.00    -0.323 OA
HETATM   16  O   UNL     1      39.289  -8.422  13.342  1.00  0.00    -0.323 OA
HETATM   17  C   UNL     1      38.024  -8.209  12.682  1.00  0.00     0.352 A 
BRANCH   6  18
HETATM   18  C   UNL     1      44.569 -11.229   9.150  1.00  0.00     0.312 C 
HETATM   19  O   UNL     1      45.644 -10.640   9.199  1.00  0.00    -0.258 OA
BRANCH  18  20
HETATM   20  O   UNL     1      44.348 -12.457   8.612  1.00  0.00    -0.317 OA
BRANCH  20  21
HETATM   21  C   UNL     1      45.476 -13.091   7.991  1.00  0.00     0.175 C 
HETATM   22  C   UNL     1      45.005 -14.125   6.989  1.00  0.00     0.034 C 
ENDBRANCH  20  21
ENDBRANCH  18  20
ENDBRANCH   6  18
ENDBRANCH   1   5
BRANCH   2  23
HETATM   23  C   UNL     1      41.009 -11.848   5.730  1.00  0.00     0.337 C 
BRANCH  23  24
HETATM   24  N   UNL     1      41.948 -13.031   5.433  1.00  0.00    -0.060 N 
HETATM   25  H   UNL     1      42.709 -12.996   6.119  1.00  0.00     0.280 HD
HETATM   26  C   UNL     1      41.261 -14.395   5.615  1.00  0.00     0.255 C 
HETATM   27  C   UNL     1      42.232 -15.554   5.304  1.00  0.00     0.150 C 
HETATM   28  N   UNL     1      42.822 -15.367   3.966  1.00  0.00    -0.378 N 
HETATM   29  C   UNL     1      43.549 -14.104   3.780  1.00  0.00     0.150 C 
HETATM   30  C   UNL     1      42.600 -12.917   4.050  1.00  0.00     0.255 C 
BRANCH  28  31
HETATM   31  C   UNL     1      43.234 -16.511   3.287  1.00  0.00     0.030 A 
HETATM   32  C   UNL     1      43.652 -17.638   4.014  1.00  0.00     0.045 A 
HETATM   33  C   UNL     1      44.032 -18.840   3.388  1.00  0.00     0.050 A 
HETATM   34  C   UNL     1      43.979 -18.919   1.993  1.00  0.00     0.016 A 
HETATM   35  C   UNL     1      43.565 -17.818   1.250  1.00  0.00     0.003 A 
HETATM   36  C   UNL     1      43.196 -16.632   1.892  1.00  0.00     0.029 A 
BRANCH  33  37
HETATM   37  C   UNL     1      44.437 -20.040   4.208  1.00  0.00     0.417 C 
HETATM   38  F   UNL     1      44.303 -21.217   3.532  1.00  0.00    -0.166 F 
HETATM   39  F   UNL     1      45.736 -19.981   4.605  1.00  0.00    -0.166 F 
HETATM   40  F   UNL     1      43.699 -20.178   5.343  1.00  0.00    -0.166 F 
ENDBRANCH  33  37
ENDBRANCH  28  31
ENDBRANCH  23  24
ENDBRANCH   2  23
TORSDOF 8
ENDMDL
MODEL 9
REMARK VINA RESULT:      -8.8      5.243     10.669
REMARK  8 active torsions:
REMARK  status: ('A' for Active; 'I' for Inactive)
REMARK    1  A    between atoms: C_2  and  O_3 
REMARK    2  A    between atoms: O_3  and  C_4 
REMARK    3  A    between atoms: C_4  and  C_5 
REMARK    4  A    between atoms: C_10  and  N_11 
REMARK       I    between atoms: N_11  and  C_12 
REMARK    5  A    between atoms: C_12  and  C_13 
REMARK    6  A    between atoms: C_13  and  N_14 
REMARK    7  A    between atoms: N_18  and  C_19 
REMARK    8  A    between atoms: C_21  and  C_22 
ROOT
HETATM    1  N   UNL     1      41.200 -14.470   2.437  1.00  0.00    -0.323 N 
HETATM    2  C   UNL     1      41.836 -13.316   2.845  1.00  0.00     0.248 C 
HETATM    3  O   UNL     1      43.014 -13.045   2.629  1.00  0.00    -0.271 OA
HETATM    4  H   UNL     1      40.203 -14.441   2.223  1.00  0.00     0.169 HD
ENDROOT
BRANCH   1   5
HETATM    5  C   UNL     1      41.872 -15.572   1.908  1.00  0.00     0.080 A 
HETATM    6  C   UNL     1      41.959 -15.789   0.542  1.00  0.00     0.137 A 
HETATM    7  N   UNL     1      42.699 -16.933   0.358  1.00  0.00    -0.349 N 
HETATM    8  H   UNL     1      42.941 -17.316  -0.548  1.00  0.00     0.166 HD
HETATM    9  C   UNL     1      43.067 -17.482   1.564  1.00  0.00     0.048 A 
HETATM   10  C   UNL     1      42.543 -16.655   2.570  1.00  0.00     0.023 A 
HETATM   11  C   UNL     1      43.816 -18.642   1.822  1.00  0.00     0.070 A 
HETATM   12  C   UNL     1      42.737 -17.039   3.919  1.00  0.00     0.055 A 
HETATM   13  C   UNL     1      43.479 -18.179   4.165  1.00  0.00     0.106 A 
HETATM   14  C   UNL     1      44.002 -18.945   3.157  1.00  0.00     0.107 A 
HETATM   15  O   UNL     1      43.772 -18.669   5.400  1.00  0.00    -0.323 OA
HETATM   16  O   UNL     1      44.698 -20.016   3.629  1.00  0.00    -0.323 OA
HETATM   17  C   UNL     1      44.576 -19.815   5.052  1.00  0.00     0.352 A 
BRANCH   6  18
HETATM   18  C   UNL     1      41.447 -14.968  -0.528  1.00  0.00     0.312 C 
HETATM   19  O   UNL     1      41.585 -13.751  -0.580  1.00  0.00    -0.258 OA
BRANCH  18  20
HETATM   20  O   UNL     1      40.836 -15.749  -1.457  1.00  0.00    -0.317 OA
BRANCH  20  21
HETATM   21  C   UNL     1      40.915 -15.298  -2.818  1.00  0.00     0.175 C 
HETATM   22  C   UNL     1      39.760 -15.861  -3.620  1.00  0.00     0.034 C 
ENDBRANCH  20  21
ENDBRANCH  18  20
ENDBRANCH   6  18
ENDBRANCH   1   5
BRANCH   2  23
HETATM   23  C   UNL     1      40.927 -12.331   3.596  1.00  0.00     0.337 C 
BRANCH  23  24
HETATM   24  N   UNL     1      41.582 -11.581   4.769  1.00  0.00    -0.060 N 
HETATM   25  H   UNL     1      42.518 -11.294   4.463  1.00  0.00     0.280 HD
HETATM   26  C   UNL     1      40.833 -10.292   5.142  1.00  0.00     0.255 C 
HETATM   27  C   UNL     1      41.517  -9.571   6.324  1.00  0.00     0.150 C 
HETATM   28  N   UNL     1      41.678 -10.504   7.453  1.00  0.00    -0.378 N 
HETATM   29  C   UNL     1      42.453 -11.716   7.150  1.00  0.00     0.150 C 
HETATM   30  C   UNL     1      41.780 -12.484   5.993  1.00  0.00     0.255 C 
BRANCH  28  31
HETATM   31  C   UNL     1      41.722  -9.955   8.732  1.00  0.00     0.030 A 
HETATM   32  C   UNL     1      42.621 -10.473   9.680  1.00  0.00     0.045 A 
HETATM   33  C   UNL     1      42.749  -9.929  10.972  1.00  0.00     0.050 A 
HETATM   34  C   UNL     1      41.963  -8.826  11.319  1.00  0.00     0.016 A 
HETATM   35  C   UNL     1      41.068  -8.292  10.398  1.00  0.00     0.003 A 
HETATM   36  C   UNL     1      40.954  -8.851   9.120  1.00  0.00     0.029 A 
BRANCH  33  37
HETATM   37  C   UNL     1      43.755 -10.490  11.947  1.00  0.00     0.417 C 
HETATM   38  F   UNL     1      44.989 -10.666  11.396  1.00  0.00    -0.166 F 
HETATM   39  F   UNL     1      43.937  -9.682  13.026  1.00  0.00    -0.166 F 
HETATM   40  F   UNL     1      43.391 -11.705  12.440  1.00  0.00    -0.166 F 
ENDBRANCH  33  37
ENDBRANCH  28  31
ENDBRANCH  23  24
ENDBRANCH   2  23
TORSDOF 8
ENDMDL
MODEL 10
REMARK VINA RESULT:      -8.5      7.195     10.994
REMARK  8 active torsions:
REMARK  status: ('A' for Active; 'I' for Inactive)
REMARK    1  A    between atoms: C_2  and  O_3 
REMARK    2  A    between atoms: O_3  and  C_4 
REMARK    3  A    between atoms: C_4  and  C_5 
REMARK    4  A    between atoms: C_10  and  N_11 
REMARK       I    between atoms: N_11  and  C_12 
REMARK    5  A    between atoms: C_12  and  C_13 
REMARK    6  A    between atoms: C_13  and  N_14 
REMARK    7  A    between atoms: N_18  and  C_19 
REMARK    8  A    between atoms: C_21  and  C_22 
ROOT
HETATM    1  N   UNL     1      42.627 -16.086   1.106  1.00  0.00    -0.323 N 
HETATM    2  C   UNL     1      41.292 -16.065   0.760  1.00  0.00     0.248 C 
HETATM    3  O   UNL     1      40.365 -16.376   1.502  1.00  0.00    -0.271 OA
HETATM    4  H   UNL     1      43.265 -15.418   0.674  1.00  0.00     0.169 HD
ENDROOT
BRANCH   1   5
HETATM    5  C   UNL     1      43.108 -16.666   2.280  1.00  0.00     0.080 A 
HETATM    6  C   UNL     1      43.316 -15.923   3.431  1.00  0.00     0.137 A 
HETATM    7  N   UNL     1      43.764 -16.789   4.399  1.00  0.00    -0.349 N 
HETATM    8  H   UNL     1      43.975 -16.519   5.352  1.00  0.00     0.166 HD
HETATM    9  C   UNL     1      43.882 -18.066   3.903  1.00  0.00     0.048 A 
HETATM   10  C   UNL     1      43.493 -18.022   2.555  1.00  0.00     0.023 A 
HETATM   11  C   UNL     1      44.308 -19.238   4.551  1.00  0.00     0.070 A 
HETATM   12  C   UNL     1      43.582 -19.212   1.794  1.00  0.00     0.055 A 
HETATM   13  C   UNL     1      43.995 -20.362   2.441  1.00  0.00     0.106 A 
HETATM   14  C   UNL     1      44.339 -20.374   3.767  1.00  0.00     0.107 A 
HETATM   15  O   UNL     1      44.112 -21.586   1.859  1.00  0.00    -0.323 OA
HETATM   16  O   UNL     1      44.712 -21.612   4.193  1.00  0.00    -0.323 OA
HETATM   17  C   UNL     1      44.534 -22.382   2.986  1.00  0.00     0.352 A 
BRANCH   6  18
HETATM   18  C   UNL     1      43.065 -14.519   3.646  1.00  0.00     0.312 C 
HETATM   19  O   UNL     1      43.419 -13.636   2.873  1.00  0.00    -0.258 OA
BRANCH  18  20
HETATM   20  O   UNL     1      42.360 -14.347   4.795  1.00  0.00    -0.317 OA
BRANCH  20  21
HETATM   21  C   UNL     1      40.952 -14.621   4.723  1.00  0.00     0.175 C 
HETATM   22  C   UNL     1      40.545 -15.546   5.853  1.00  0.00     0.034 C 
ENDBRANCH  20  21
ENDBRANCH  18  20
ENDBRANCH   6  18
ENDBRANCH   1   5
BRANCH   2  23
HETATM   23  C   UNL     1      41.023 -15.576  -0.672  1.00  0.00     0.337 C 
BRANCH  23  24
HETATM   24  N   UNL     1      41.851 -14.361  -1.127  1.00  0.00    -0.060 N 
HETATM   25  H   UNL     1      42.838 -14.588  -0.970  1.00  0.00     0.280 HD
HETATM   26  C   UNL     1      41.705 -14.073  -2.631  1.00  0.00     0.255 C 
HETATM   27  C   UNL     1      42.545 -12.847  -3.048  1.00  0.00     0.150 C 
HETATM   28  N   UNL     1      42.206 -11.695  -2.194  1.00  0.00    -0.378 N 
HETATM   29  C   UNL     1      42.404 -11.911  -0.753  1.00  0.00     0.150 C 
HETATM   30  C   UNL     1      41.551 -13.112  -0.290  1.00  0.00     0.255 C 
BRANCH  28  31
HETATM   31  C   UNL     1      42.390 -10.425  -2.735  1.00  0.00     0.030 A 
HETATM   32  C   UNL     1      42.270 -10.237  -4.123  1.00  0.00     0.045 A 
HETATM   33  C   UNL     1      42.395  -8.971  -4.725  1.00  0.00     0.050 A 
HETATM   34  C   UNL     1      42.633  -7.859  -3.912  1.00  0.00     0.016 A 
HETATM   35  C   UNL     1      42.753  -8.017  -2.535  1.00  0.00     0.003 A 
HETATM   36  C   UNL     1      42.629  -9.285  -1.957  1.00  0.00     0.029 A 
BRANCH  33  37
HETATM   37  C   UNL     1      42.221  -8.808  -6.215  1.00  0.00     0.417 C 
HETATM   38  F   UNL     1      42.035  -9.993  -6.863  1.00  0.00    -0.166 F 
HETATM   39  F   UNL     1      41.145  -8.036  -6.529  1.00  0.00    -0.166 F 
HETATM   40  F   UNL     1      43.295  -8.223  -6.811  1.00  0.00    -0.166 F 
ENDBRANCH  33  37
ENDBRANCH  28  31
ENDBRANCH  23  24
ENDBRANCH   2  23
TORSDOF 8
ENDMDL
