MODEL 1
REMARK VINA RESULT:      -9.3      0.000      0.000
REMARK  10 active torsions:
REMARK  status: ('A' for Active; 'I' for Inactive)
REMARK    1  A    between atoms: C_2  and  C_3 
REMARK    2  A    between atoms: C_3  and  O_4 
REMARK    3  A    between atoms: O_4  and  C_5 
REMARK    4  A    between atoms: C_7  and  C_8 
REMARK       I    between atoms: C_8  and  N_9 
REMARK    5  A    between atoms: N_9  and  C_10 
REMARK    6  A    between atoms: C_10  and  N_11 
REMARK    7  A    between atoms: N_11  and  C_12 
REMARK    8  A    between atoms: C_15  and  N_16 
REMARK    9  A    between atoms: N_19  and  C_21 
REMARK   10  A    between atoms: C_21  and  C_22 
ROOT
HETATM    1  C   UNL     1      43.895 -14.569   6.597  1.00  0.00     0.034 C 
HETATM    2  C   UNL     1      43.948 -13.906   5.386  1.00  0.00     0.032 C 
HETATM    3  C   UNL     1      43.388 -14.456   4.222  1.00  0.00     0.031 C 
HETATM    4  C   UNL     1      42.672 -15.658   4.222  1.00  0.00     0.030 C 
HETATM    5  C   UNL     1      42.701 -16.361   5.435  1.00  0.00     0.031 C 
HETATM    6  C   UNL     1      43.300 -15.832   6.596  1.00  0.00     0.032 C 
ENDROOT
BRANCH   1   7
HETATM    7  N   UNL     1      44.352 -14.081   7.840  1.00  0.00    -0.333 N 
HETATM    8  H   UNL     1      44.138 -14.684   8.629  1.00  0.00     0.168 HD
BRANCH   7   9
HETATM    9  C   UNL     1      44.793 -12.878   8.282  1.00  0.00     0.179 C 
HETATM   10  S   UNL     1      46.395 -12.486   7.984  1.00  0.00    -0.040 SA
BRANCH   9  11
HETATM   11  N   UNL     1      44.076 -12.045   9.071  1.00  0.00    -0.299 N 
HETATM   12  C   UNL     1      44.120 -12.045  10.452  1.00  0.00     0.257 C 
HETATM   13  O   UNL     1      44.702 -12.889  11.124  1.00  0.00    -0.267 OA
HETATM   14  H   UNL     1      43.125 -11.954   8.736  1.00  0.00     0.171 HD
BRANCH  12  15
HETATM   15  C   UNL     1      43.452 -10.882  11.122  1.00  0.00     0.035 A 
HETATM   16  C   UNL     1      43.682 -10.550  12.466  1.00  0.00     0.053 A 
HETATM   17  C   UNL     1      42.941  -9.527  13.061  1.00  0.00     0.069 A 
HETATM   18  C   UNL     1      41.934  -8.875  12.353  1.00  0.00     0.037 A 
HETATM   19  C   UNL     1      41.706  -9.194  11.018  1.00  0.00     0.004 A 
HETATM   20  C   UNL     1      42.466 -10.190  10.402  1.00  0.00     0.017 A 
BRANCH  17  21
HETATM   21  O   UNL     1      43.099  -9.194  14.378  1.00  0.00    -0.351 OA
BRANCH  21  22
HETATM   22  C   UNL     1      42.134  -9.814  15.240  1.00  0.00     0.175 C 
BRANCH  22  23
HETATM   23  C   UNL     1      41.624  -8.868  16.330  1.00  0.00     0.022 C 
HETATM   24  C   UNL     1      41.469  -7.437  15.840  1.00  0.00     0.007 C 
ENDBRANCH  22  23
ENDBRANCH  21  22
ENDBRANCH  17  21
ENDBRANCH  12  15
ENDBRANCH   9  11
ENDBRANCH   7   9
ENDBRANCH   1   7
BRANCH   4  25
HETATM   25  N   UNL     1      42.000 -16.130   3.079  1.00  0.00    -0.378 N 
HETATM   26  C   UNL     1      41.341 -17.457   3.161  1.00  0.00     0.150 C 
HETATM   27  C   UNL     1      42.397 -18.583   3.061  1.00  0.00     0.255 C 
HETATM   28  N   UNL     1      43.198 -18.444   1.757  1.00  0.00    -0.064 N 
HETATM   29  H   UNL     1      42.535 -18.599   0.989  1.00  0.00     0.280 HD
HETATM   30  C   UNL     1      43.767 -17.026   1.583  1.00  0.00     0.255 C 
HETATM   31  C   UNL     1      42.664 -15.959   1.765  1.00  0.00     0.150 C 
BRANCH  28  32
HETATM   32  C   UNL     1      44.294 -19.477   1.627  1.00  0.00     0.273 C 
BRANCH  32  33
HETATM   33  C   UNL     1      44.441 -20.393   2.813  1.00  0.00    -0.033 A 
HETATM   34  C   UNL     1      44.381 -21.789   2.673  1.00  0.00     0.009 A 
HETATM   35  C   UNL     1      44.530 -22.618   3.787  1.00  0.00     0.001 A 
HETATM   36  C   UNL     1      44.763 -22.067   5.045  1.00  0.00     0.000 A 
HETATM   37  C   UNL     1      44.849 -20.685   5.192  1.00  0.00     0.001 A 
HETATM   38  C   UNL     1      44.688 -19.852   4.084  1.00  0.00     0.009 A 
ENDBRANCH  32  33
ENDBRANCH  28  32
ENDBRANCH   4  25
TORSDOF 10
ENDMDL
MODEL 2
REMARK VINA RESULT:      -9.3      1.526      1.972
REMARK  10 active torsions:
REMARK  status: ('A' for Active; 'I' for Inactive)
REMARK    1  A    between atoms: C_2  and  C_3 
REMARK    2  A    between atoms: C_3  and  O_4 
REMARK    3  A    between atoms: O_4  and  C_5 
REMARK    4  A    between atoms: C_7  and  C_8 
REMARK       I    between atoms: C_8  and  N_9 
REMARK    5  A    between atoms: N_9  and  C_10 
REMARK    6  A    between atoms: C_10  and  N_11 
REMARK    7  A    between atoms: N_11  and  C_12 
REMARK    8  A    between atoms: C_15  and  N_16 
REMARK    9  A    between atoms: N_19  and  C_21 
REMARK   10  A    between atoms: C_21  and  C_22 
ROOT
HETATM    1  C   UNL     1      43.956 -14.102   7.097  1.00  0.00     0.034 C 
HETATM    2  C   UNL     1      43.309 -13.328   6.151  1.00  0.00     0.032 C 
HETATM    3  C   UNL     1      42.640 -13.906   5.061  1.00  0.00     0.031 C 
HETATM    4  C   UNL     1      42.510 -15.290   4.900  1.00  0.00     0.030 C 
HETATM    5  C   UNL     1      43.243 -16.061   5.815  1.00  0.00     0.031 C 
HETATM    6  C   UNL     1      43.952 -15.482   6.887  1.00  0.00     0.032 C 
ENDROOT
BRANCH   1   7
HETATM    7  N   UNL     1      44.591 -13.637   8.268  1.00  0.00    -0.333 N 
HETATM    8  H   UNL     1      44.423 -14.211   9.089  1.00  0.00     0.168 HD
BRANCH   7   9
HETATM    9  C   UNL     1      45.174 -12.468   8.630  1.00  0.00     0.179 C 
HETATM   10  S   UNL     1      46.673 -12.115   7.968  1.00  0.00    -0.040 SA
BRANCH   9  11
HETATM   11  N   UNL     1      44.701 -11.646   9.595  1.00  0.00    -0.299 N 
HETATM   12  C   UNL     1      43.563 -10.872   9.475  1.00  0.00     0.257 C 
HETATM   13  O   UNL     1      42.930 -10.732   8.434  1.00  0.00    -0.267 OA
HETATM   14  H   UNL     1      45.452 -11.125  10.031  1.00  0.00     0.171 HD
BRANCH  12  15
HETATM   15  C   UNL     1      43.073 -10.236  10.741  1.00  0.00     0.035 A 
HETATM   16  C   UNL     1      41.955  -9.390  10.779  1.00  0.00     0.053 A 
HETATM   17  C   UNL     1      41.623  -8.738  11.968  1.00  0.00     0.069 A 
HETATM   18  C   UNL     1      42.424  -8.871  13.099  1.00  0.00     0.037 A 
HETATM   19  C   UNL     1      43.530  -9.714  13.071  1.00  0.00     0.004 A 
HETATM   20  C   UNL     1      43.851 -10.400  11.898  1.00  0.00     0.017 A 
BRANCH  17  21
HETATM   21  O   UNL     1      40.567  -7.871  12.045  1.00  0.00    -0.351 OA
BRANCH  21  22
HETATM   22  C   UNL     1      39.799  -8.018  13.248  1.00  0.00     0.175 C 
BRANCH  22  23
HETATM   23  C   UNL     1      38.302  -8.184  12.974  1.00  0.00     0.022 C 
HETATM   24  C   UNL     1      38.020  -8.921  11.674  1.00  0.00     0.007 C 
ENDBRANCH  22  23
ENDBRANCH  21  22
ENDBRANCH  17  21
ENDBRANCH  12  15
ENDBRANCH   9  11
ENDBRANCH   7   9
ENDBRANCH   1   7
BRANCH   4  25
HETATM   25  N   UNL     1      41.723 -15.855   3.880  1.00  0.00    -0.378 N 
HETATM   26  C   UNL     1      41.295 -17.267   4.037  1.00  0.00     0.150 C 
HETATM   27  C   UNL     1      42.473 -18.219   3.718  1.00  0.00     0.255 C 
HETATM   28  N   UNL     1      42.996 -17.955   2.297  1.00  0.00    -0.064 N 
HETATM   29  H   UNL     1      42.238 -18.206   1.654  1.00  0.00     0.280 HD
HETATM   30  C   UNL     1      43.307 -16.467   2.069  1.00  0.00     0.255 C 
HETATM   31  C   UNL     1      42.107 -15.580   2.476  1.00  0.00     0.150 C 
BRANCH  28  32
HETATM   32  C   UNL     1      44.193 -18.808   1.946  1.00  0.00     0.273 C 
BRANCH  32  33
HETATM   33  C   UNL     1      44.373 -20.030   2.806  1.00  0.00    -0.033 A 
HETATM   34  C   UNL     1      44.211 -21.324   2.287  1.00  0.00     0.009 A 
HETATM   35  C   UNL     1      44.393 -22.442   3.103  1.00  0.00     0.001 A 
HETATM   36  C   UNL     1      44.759 -22.283   4.437  1.00  0.00     0.000 A 
HETATM   37  C   UNL     1      44.947 -21.005   4.959  1.00  0.00     0.001 A 
HETATM   38  C   UNL     1      44.755 -19.885   4.150  1.00  0.00     0.009 A 
ENDBRANCH  32  33
ENDBRANCH  28  32
ENDBRANCH   4  25
TORSDOF 10
ENDMDL
MODEL 3
REMARK VINA RESULT:      -9.3      2.904      4.156
REMARK  10 active torsions:
REMARK  status: ('A' for Active; 'I' for Inactive)
REMARK    1  A    between atoms: C_2  and  C_3 
REMARK    2  A    between atoms: C_3  and  O_4 
REMARK    3  A    between atoms: O_4  and  C_5 
REMARK    4  A    between atoms: C_7  and  C_8 
REMARK       I    between atoms: C_8  and  N_9 
REMARK    5  A    between atoms: N_9  and  C_10 
REMARK    6  A    between atoms: C_10  and  N_11 
REMARK    7  A    between atoms: N_11  and  C_12 
REMARK    8  A    between atoms: C_15  and  N_16 
REMARK    9  A    between atoms: N_19  and  C_21 
REMARK   10  A    between atoms: C_21  and  C_22 
ROOT
HETATM    1  C   UNL     1      41.395 -12.296   4.869  1.00  0.00     0.034 C 
HETATM    2  C   UNL     1      40.295 -13.117   4.708  1.00  0.00     0.032 C 
HETATM    3  C   UNL     1      40.312 -14.459   5.118  1.00  0.00     0.031 C 
HETATM    4  C   UNL     1      41.400 -15.032   5.787  1.00  0.00     0.030 C 
HETATM    5  C   UNL     1      42.538 -14.217   5.865  1.00  0.00     0.031 C 
HETATM    6  C   UNL     1      42.539 -12.881   5.416  1.00  0.00     0.032 C 
ENDROOT
BRANCH   1   7
HETATM    7  N   UNL     1      41.465 -10.919   4.567  1.00  0.00    -0.333 N 
HETATM    8  H   UNL     1      41.841 -10.713   3.647  1.00  0.00     0.168 HD
BRANCH   7   9
HETATM    9  C   UNL     1      41.388  -9.783   5.303  1.00  0.00     0.179 C 
HETATM   10  S   UNL     1      41.393  -8.326   4.474  1.00  0.00    -0.040 SA
BRANCH   9  11
HETATM   11  N   UNL     1      41.457  -9.741   6.653  1.00  0.00    -0.299 N 
HETATM   12  C   UNL     1      40.484 -10.234   7.502  1.00  0.00     0.257 C 
HETATM   13  O   UNL     1      39.387 -10.637   7.133  1.00  0.00    -0.267 OA
HETATM   14  H   UNL     1      41.800  -8.843   6.973  1.00  0.00     0.171 HD
BRANCH  12  15
HETATM   15  C   UNL     1      40.869 -10.322   8.948  1.00  0.00     0.035 A 
HETATM   16  C   UNL     1      42.174 -10.074   9.399  1.00  0.00     0.053 A 
HETATM   17  C   UNL     1      42.492 -10.287  10.742  1.00  0.00     0.069 A 
HETATM   18  C   UNL     1      41.545 -10.800  11.624  1.00  0.00     0.037 A 
HETATM   19  C   UNL     1      40.246 -11.041  11.185  1.00  0.00     0.004 A 
HETATM   20  C   UNL     1      39.907 -10.798   9.853  1.00  0.00     0.017 A 
BRANCH  17  21
HETATM   21  O   UNL     1      43.759 -10.099  11.222  1.00  0.00    -0.351 OA
BRANCH  21  22
HETATM   22  C   UNL     1      44.629 -11.213  10.976  1.00  0.00     0.175 C 
BRANCH  22  23
HETATM   23  C   UNL     1      45.638 -10.936   9.858  1.00  0.00     0.022 C 
HETATM   24  C   UNL     1      45.751 -12.087   8.870  1.00  0.00     0.007 C 
ENDBRANCH  22  23
ENDBRANCH  21  22
ENDBRANCH  17  21
ENDBRANCH  12  15
ENDBRANCH   9  11
ENDBRANCH   7   9
ENDBRANCH   1   7
BRANCH   4  25
HETATM   25  N   UNL     1      41.353 -16.336   6.314  1.00  0.00    -0.378 N 
HETATM   26  C   UNL     1      42.524 -16.812   7.091  1.00  0.00     0.150 C 
HETATM   27  C   UNL     1      43.680 -17.189   6.134  1.00  0.00     0.255 C 
HETATM   28  N   UNL     1      43.210 -18.257   5.134  1.00  0.00    -0.064 N 
HETATM   29  H   UNL     1      43.000 -19.099   5.681  1.00  0.00     0.280 HD
HETATM   30  C   UNL     1      41.911 -17.844   4.423  1.00  0.00     0.255 C 
HETATM   31  C   UNL     1      40.832 -17.416   5.444  1.00  0.00     0.150 C 
BRANCH  28  32
HETATM   32  C   UNL     1      44.275 -18.625   4.125  1.00  0.00     0.273 C 
BRANCH  32  33
HETATM   33  C   UNL     1      44.414 -20.101   3.863  1.00  0.00    -0.033 A 
HETATM   34  C   UNL     1      44.263 -20.634   2.573  1.00  0.00     0.009 A 
HETATM   35  C   UNL     1      44.406 -22.005   2.353  1.00  0.00     0.001 A 
HETATM   36  C   UNL     1      44.723 -22.855   3.410  1.00  0.00     0.000 A 
HETATM   37  C   UNL     1      44.898 -22.336   4.691  1.00  0.00     0.001 A 
HETATM   38  C   UNL     1      44.744 -20.968   4.917  1.00  0.00     0.009 A 
ENDBRANCH  32  33
ENDBRANCH  28  32
ENDBRANCH   4  25
TORSDOF 10
ENDMDL
MODEL 4
REMARK VINA RESULT:      -9.3      3.131      3.759
REMARK  10 active torsions:
REMARK  status: ('A' for Active; 'I' for Inactive)
REMARK    1  A    between atoms: C_2  and  C_3 
REMARK    2  A    between atoms: C_3  and  O_4 
REMARK    3  A    between atoms: O_4  and  C_5 
REMARK    4  A    between atoms: C_7  and  C_8 
REMARK       I    between atoms: C_8  and  N_9 
REMARK    5  A    between atoms: N_9  and  C_10 
REMARK    6  A    between atoms: C_10  and  N_11 
REMARK    7  A    between atoms: N_11  and  C_12 
REMARK    8  A    between atoms: C_15  and  N_16 
REMARK    9  A    between atoms: N_19  and  C_21 
REMARK   10  A    between atoms: C_21  and  C_22 
ROOT
HETATM    1  C   UNL     1      40.561 -12.251   4.622  1.00  0.00     0.034 C 
HETATM    2  C   UNL     1      39.857 -13.431   4.770  1.00  0.00     0.032 C 
HETATM    3  C   UNL     1      39.869 -14.424   3.778  1.00  0.00     0.031 C 
HETATM    4  C   UNL     1      40.651 -14.328   2.621  1.00  0.00     0.030 C 
HETATM    5  C   UNL     1      41.289 -13.092   2.443  1.00  0.00     0.031 C 
HETATM    6  C   UNL     1      41.245 -12.076   3.418  1.00  0.00     0.032 C 
ENDROOT
BRANCH   1   7
HETATM    7  N   UNL     1      40.683 -11.222   5.580  1.00  0.00    -0.333 N 
HETATM    8  H   UNL     1      41.501 -11.303   6.176  1.00  0.00     0.168 HD
BRANCH   7   9
HETATM    9  C   UNL     1      39.841 -10.280   6.072  1.00  0.00     0.179 C 
HETATM   10  S   UNL     1      39.072  -9.281   4.968  1.00  0.00    -0.040 SA
BRANCH   9  11
HETATM   11  N   UNL     1      39.698  -9.996   7.387  1.00  0.00    -0.299 N 
HETATM   12  C   UNL     1      39.374 -10.926   8.357  1.00  0.00     0.257 C 
HETATM   13  O   UNL     1      39.043 -12.082   8.122  1.00  0.00    -0.267 OA
HETATM   14  H   UNL     1      39.181  -9.135   7.520  1.00  0.00     0.171 HD
BRANCH  12  15
HETATM   15  C   UNL     1      39.517 -10.460   9.775  1.00  0.00     0.035 A 
HETATM   16  C   UNL     1      40.414 -11.050  10.677  1.00  0.00     0.053 A 
HETATM   17  C   UNL     1      40.414 -10.646  12.015  1.00  0.00     0.069 A 
HETATM   18  C   UNL     1      39.493  -9.708  12.473  1.00  0.00     0.037 A 
HETATM   19  C   UNL     1      38.605  -9.113  11.582  1.00  0.00     0.004 A 
HETATM   20  C   UNL     1      38.621  -9.482  10.236  1.00  0.00     0.017 A 
BRANCH  17  21
HETATM   21  O   UNL     1      41.240 -11.220  12.941  1.00  0.00    -0.351 OA
BRANCH  21  22
HETATM   22  C   UNL     1      42.607 -11.294  12.514  1.00  0.00     0.175 C 
BRANCH  22  23
HETATM   23  C   UNL     1      43.340  -9.957  12.650  1.00  0.00     0.022 C 
HETATM   24  C   UNL     1      43.174  -9.334  14.027  1.00  0.00     0.007 C 
ENDBRANCH  22  23
ENDBRANCH  21  22
ENDBRANCH  17  21
ENDBRANCH  12  15
ENDBRANCH   9  11
ENDBRANCH   7   9
ENDBRANCH   1   7
BRANCH   4  25
HETATM   25  N   UNL     1      40.760 -15.387   1.701  1.00  0.00    -0.378 N 
HETATM   26  C   UNL     1      40.307 -16.732   2.135  1.00  0.00     0.150 C 
HETATM   27  C   UNL     1      41.361 -17.373   3.070  1.00  0.00     0.255 C 
HETATM   28  N   UNL     1      42.721 -17.452   2.357  1.00  0.00    -0.064 N 
HETATM   29  H   UNL     1      42.601 -18.097   1.569  1.00  0.00     0.280 HD
HETATM   30  C   UNL     1      43.139 -16.094   1.771  1.00  0.00     0.255 C 
HETATM   31  C   UNL     1      42.007 -15.489   0.908  1.00  0.00     0.150 C 
BRANCH  28  32
HETATM   32  C   UNL     1      43.814 -18.009   3.240  1.00  0.00     0.273 C 
BRANCH  32  33
HETATM   33  C   UNL     1      44.011 -19.498   3.137  1.00  0.00    -0.033 A 
HETATM   34  C   UNL     1      43.632 -20.211   1.988  1.00  0.00     0.009 A 
HETATM   35  C   UNL     1      43.834 -21.591   1.913  1.00  0.00     0.001 A 
HETATM   36  C   UNL     1      44.436 -22.269   2.970  1.00  0.00     0.000 A 
HETATM   37  C   UNL     1      44.839 -21.570   4.105  1.00  0.00     0.001 A 
HETATM   38  C   UNL     1      44.628 -20.193   4.189  1.00  0.00     0.009 A 
ENDBRANCH  32  33
ENDBRANCH  28  32
ENDBRANCH   4  25
TORSDOF 10
ENDMDL
MODEL 5
REMARK VINA RESULT:      -9.0      5.392     10.100
REMARK  10 active torsions:
REMARK  status: ('A' for Active; 'I' for Inactive)
REMARK    1  A    between atoms: C_2  and  C_3 
REMARK    2  A    between atoms: C_3  and  O_4 
REMARK    3  A    between atoms: O_4  and  C_5 
REMARK    4  A    between atoms: C_7  and  C_8 
REMARK       I    between atoms: C_8  and  N_9 
REMARK    5  A    between atoms: N_9  and  C_10 
REMARK    6  A    between atoms: C_10  and  N_11 
REMARK    7  A    between atoms: N_11  and  C_12 
REMARK    8  A    between atoms: C_15  and  N_16 
REMARK    9  A    between atoms: N_19  and  C_21 
REMARK   10  A    between atoms: C_21  and  C_22 
ROOT
HETATM    1  C   UNL     1      41.565 -14.569   5.485  1.00  0.00     0.034 C 
HETATM    2  C   UNL     1      41.573 -15.323   4.327  1.00  0.00     0.032 C 
HETATM    3  C   UNL     1      40.758 -14.998   3.231  1.00  0.00     0.031 C 
HETATM    4  C   UNL     1      39.953 -13.853   3.201  1.00  0.00     0.030 C 
HETATM    5  C   UNL     1      39.887 -13.147   4.411  1.00  0.00     0.031 C 
HETATM    6  C   UNL     1      40.672 -13.496   5.528  1.00  0.00     0.032 C 
ENDROOT
BRANCH   1   7
HETATM    7  N   UNL     1      42.392 -14.755   6.613  1.00  0.00    -0.333 N 
HETATM    8  H   UNL     1      42.058 -14.296   7.455  1.00  0.00     0.168 HD
BRANCH   7   9
HETATM    9  C   UNL     1      43.663 -15.192   6.794  1.00  0.00     0.179 C 
HETATM   10  S   UNL     1      44.859 -14.032   6.977  1.00  0.00    -0.040 SA
BRANCH   9  11
HETATM   11  N   UNL     1      44.048 -16.485   6.688  1.00  0.00    -0.299 N 
HETATM   12  C   UNL     1      43.229 -17.568   6.945  1.00  0.00     0.257 C 
HETATM   13  O   UNL     1      42.107 -17.485   7.432  1.00  0.00    -0.267 OA
HETATM   14  H   UNL     1      44.971 -16.623   7.081  1.00  0.00     0.171 HD
BRANCH  12  15
HETATM   15  C   UNL     1      43.767 -18.902   6.522  1.00  0.00     0.035 A 
HETATM   16  C   UNL     1      44.327 -19.123   5.256  1.00  0.00     0.053 A 
HETATM   17  C   UNL     1      44.703 -20.416   4.883  1.00  0.00     0.069 A 
HETATM   18  C   UNL     1      44.470 -21.496   5.732  1.00  0.00     0.037 A 
HETATM   19  C   UNL     1      43.921 -21.282   6.992  1.00  0.00     0.004 A 
HETATM   20  C   UNL     1      43.576 -19.989   7.390  1.00  0.00     0.017 A 
BRANCH  17  21
HETATM   21  O   UNL     1      45.215 -20.690   3.645  1.00  0.00    -0.351 OA
BRANCH  21  22
HETATM   22  C   UNL     1      44.674 -19.856   2.610  1.00  0.00     0.175 C 
BRANCH  22  23
HETATM   23  C   UNL     1      43.531 -20.531   1.848  1.00  0.00     0.022 C 
HETATM   24  C   UNL     1      43.810 -21.995   1.546  1.00  0.00     0.007 C 
ENDBRANCH  22  23
ENDBRANCH  21  22
ENDBRANCH  17  21
ENDBRANCH  12  15
ENDBRANCH   9  11
ENDBRANCH   7   9
ENDBRANCH   1   7
BRANCH   4  25
HETATM   25  N   UNL     1      39.247 -13.465   2.047  1.00  0.00    -0.378 N 
HETATM   26  C   UNL     1      39.156 -14.438   0.930  1.00  0.00     0.150 C 
HETATM   27  C   UNL     1      40.493 -14.482   0.153  1.00  0.00     0.255 C 
HETATM   28  N   UNL     1      40.851 -13.080  -0.364  1.00  0.00    -0.064 N 
HETATM   29  H   UNL     1      40.128 -12.825  -1.045  1.00  0.00     0.280 HD
HETATM   30  C   UNL     1      40.807 -12.028   0.757  1.00  0.00     0.255 C 
HETATM   31  C   UNL     1      39.468 -12.095   1.528  1.00  0.00     0.150 C 
BRANCH  28  32
HETATM   32  C   UNL     1      42.183 -13.041  -1.077  1.00  0.00     0.273 C 
BRANCH  32  33
HETATM   33  C   UNL     1      42.288 -12.004  -2.164  1.00  0.00    -0.033 A 
HETATM   34  C   UNL     1      41.829 -12.257  -3.467  1.00  0.00     0.009 A 
HETATM   35  C   UNL     1      41.928 -11.276  -4.455  1.00  0.00     0.001 A 
HETATM   36  C   UNL     1      42.464 -10.026  -4.150  1.00  0.00     0.000 A 
HETATM   37  C   UNL     1      42.900  -9.754  -2.855  1.00  0.00     0.001 A 
HETATM   38  C   UNL     1      42.813 -10.736  -1.868  1.00  0.00     0.009 A 
ENDBRANCH  32  33
ENDBRANCH  28  32
ENDBRANCH   4  25
TORSDOF 10
ENDMDL
MODEL 6
REMARK VINA RESULT:      -9.0      5.352      9.594
REMARK  10 active torsions:
REMARK  status: ('A' for Active; 'I' for Inactive)
REMARK    1  A    between atoms: C_2  and  C_3 
REMARK    2  A    between atoms: C_3  and  O_4 
REMARK    3  A    between atoms: O_4  and  C_5 
REMARK    4  A    between atoms: C_7  and  C_8 
REMARK       I    between atoms: C_8  and  N_9 
REMARK    5  A    between atoms: N_9  and  C_10 
REMARK    6  A    between atoms: C_10  and  N_11 
REMARK    7  A    between atoms: N_11  and  C_12 
REMARK    8  A    between atoms: C_15  and  N_16 
REMARK    9  A    between atoms: N_19  and  C_21 
REMARK   10  A    between atoms: C_21  and  C_22 
ROOT
HETATM    1  C   UNL     1      41.934 -14.005   5.464  1.00  0.00     0.034 C 
HETATM    2  C   UNL     1      42.140 -12.737   4.956  1.00  0.00     0.032 C 
HETATM    3  C   UNL     1      41.330 -12.211   3.937  1.00  0.00     0.031 C 
HETATM    4  C   UNL     1      40.218 -12.892   3.428  1.00  0.00     0.030 C 
HETATM    5  C   UNL     1      40.073 -14.209   3.887  1.00  0.00     0.031 C 
HETATM    6  C   UNL     1      40.911 -14.756   4.880  1.00  0.00     0.032 C 
ENDROOT
BRANCH   1   7
HETATM    7  N   UNL     1      42.632 -14.604   6.534  1.00  0.00    -0.333 N 
HETATM    8  H   UNL     1      42.189 -14.485   7.439  1.00  0.00     0.168 HD
BRANCH   7   9
HETATM    9  C   UNL     1      43.888 -15.091   6.691  1.00  0.00     0.179 C 
HETATM   10  S   UNL     1      45.130 -13.980   6.869  1.00  0.00    -0.040 SA
BRANCH   9  11
HETATM   11  N   UNL     1      44.221 -16.397   6.565  1.00  0.00    -0.299 N 
HETATM   12  C   UNL     1      43.447 -17.449   7.016  1.00  0.00     0.257 C 
HETATM   13  O   UNL     1      42.440 -17.320   7.704  1.00  0.00    -0.267 OA
HETATM   14  H   UNL     1      45.200 -16.545   6.780  1.00  0.00     0.171 HD
BRANCH  12  15
HETATM   15  C   UNL     1      43.869 -18.810   6.551  1.00  0.00     0.035 A 
HETATM   16  C   UNL     1      44.359 -19.049   5.259  1.00  0.00     0.053 A 
HETATM   17  C   UNL     1      44.624 -20.359   4.853  1.00  0.00     0.069 A 
HETATM   18  C   UNL     1      44.350 -21.434   5.695  1.00  0.00     0.037 A 
HETATM   19  C   UNL     1      43.871 -21.203   6.981  1.00  0.00     0.004 A 
HETATM   20  C   UNL     1      43.637 -19.895   7.411  1.00  0.00     0.017 A 
BRANCH  17  21
HETATM   21  O   UNL     1      45.064 -20.648   3.590  1.00  0.00    -0.351 OA
BRANCH  21  22
HETATM   22  C   UNL     1      44.685 -19.662   2.619  1.00  0.00     0.175 C 
BRANCH  22  23
HETATM   23  C   UNL     1      43.311 -19.939   2.003  1.00  0.00     0.022 C 
HETATM   24  C   UNL     1      42.427 -18.703   1.960  1.00  0.00     0.007 C 
ENDBRANCH  22  23
ENDBRANCH  21  22
ENDBRANCH  17  21
ENDBRANCH  12  15
ENDBRANCH   9  11
ENDBRANCH   7   9
ENDBRANCH   1   7
BRANCH   4  25
HETATM   25  N   UNL     1      39.335 -12.301   2.506  1.00  0.00    -0.378 N 
HETATM   26  C   UNL     1      38.422 -13.193   1.749  1.00  0.00     0.150 C 
HETATM   27  C   UNL     1      39.197 -13.910   0.618  1.00  0.00     0.255 C 
HETATM   28  N   UNL     1      39.854 -12.877  -0.311  1.00  0.00    -0.064 N 
HETATM   29  H   UNL     1      39.090 -12.362  -0.762  1.00  0.00     0.280 HD
HETATM   30  C   UNL     1      40.687 -11.851   0.474  1.00  0.00     0.255 C 
HETATM   31  C   UNL     1      39.865 -11.232   1.627  1.00  0.00     0.150 C 
BRANCH  28  32
HETATM   32  C   UNL     1      40.683 -13.513  -1.403  1.00  0.00     0.273 C 
BRANCH  32  33
HETATM   33  C   UNL     1      39.905 -14.357  -2.376  1.00  0.00    -0.033 A 
HETATM   34  C   UNL     1      38.678 -13.925  -2.906  1.00  0.00     0.009 A 
HETATM   35  C   UNL     1      37.979 -14.722  -3.815  1.00  0.00     0.001 A 
HETATM   36  C   UNL     1      38.506 -15.947  -4.221  1.00  0.00     0.000 A 
HETATM   37  C   UNL     1      39.733 -16.376  -3.722  1.00  0.00     0.001 A 
HETATM   38  C   UNL     1      40.428 -15.587  -2.805  1.00  0.00     0.009 A 
ENDBRANCH  32  33
ENDBRANCH  28  32
ENDBRANCH   4  25
TORSDOF 10
ENDMDL
MODEL 7
REMARK VINA RESULT:      -9.0      2.889      4.141
REMARK  10 active torsions:
REMARK  status: ('A' for Active; 'I' for Inactive)
REMARK    1  A    between atoms: C_2  and  C_3 
REMARK    2  A    between atoms: C_3  and  O_4 
REMARK    3  A    between atoms: O_4  and  C_5 
REMARK    4  A    between atoms: C_7  and  C_8 
REMARK       I    between atoms: C_8  and  N_9 
REMARK    5  A    between atoms: N_9  and  C_10 
REMARK    6  A    between atoms: C_10  and  N_11 
REMARK    7  A    between atoms: N_11  and  C_12 
REMARK    8  A    between atoms: C_15  and  N_16 
REMARK    9  A    between atoms: N_19  and  C_21 
REMARK   10  A    between atoms: C_21  and  C_22 
ROOT
HETATM    1  C   UNL     1      40.044 -11.999   5.322  1.00  0.00     0.034 C 
HETATM    2  C   UNL     1      40.932 -11.704   4.306  1.00  0.00     0.032 C 
HETATM    3  C   UNL     1      41.287 -12.657   3.338  1.00  0.00     0.031 C 
HETATM    4  C   UNL     1      40.710 -13.931   3.285  1.00  0.00     0.030 C 
HETATM    5  C   UNL     1      39.879 -14.247   4.369  1.00  0.00     0.031 C 
HETATM    6  C   UNL     1      39.554 -13.306   5.367  1.00  0.00     0.032 C 
ENDROOT
BRANCH   1   7
HETATM    7  N   UNL     1      39.558 -11.103   6.298  1.00  0.00    -0.333 N 
HETATM    8  H   UNL     1      38.552 -11.138   6.432  1.00  0.00     0.168 HD
BRANCH   7   9
HETATM    9  C   UNL     1      40.074 -10.022   6.932  1.00  0.00     0.179 C 
HETATM   10  S   UNL     1      40.204  -8.601   6.053  1.00  0.00    -0.040 SA
BRANCH   9  11
HETATM   11  N   UNL     1      40.626 -10.052   8.168  1.00  0.00    -0.299 N 
HETATM   12  C   UNL     1      40.033 -10.630   9.274  1.00  0.00     0.257 C 
HETATM   13  O   UNL     1      38.884 -11.056   9.299  1.00  0.00    -0.267 OA
HETATM   14  H   UNL     1      41.045  -9.161   8.402  1.00  0.00     0.171 HD
BRANCH  12  15
HETATM   15  C   UNL     1      40.916 -10.783  10.477  1.00  0.00     0.035 A 
HETATM   16  C   UNL     1      42.315 -10.792  10.390  1.00  0.00     0.053 A 
HETATM   17  C   UNL     1      43.076 -11.054  11.532  1.00  0.00     0.069 A 
HETATM   18  C   UNL     1      42.458 -11.367  12.741  1.00  0.00     0.037 A 
HETATM   19  C   UNL     1      41.070 -11.352  12.835  1.00  0.00     0.004 A 
HETATM   20  C   UNL     1      40.300 -11.055  11.709  1.00  0.00     0.017 A 
BRANCH  17  21
HETATM   21  O   UNL     1      44.442 -11.115  11.491  1.00  0.00    -0.351 OA
BRANCH  21  22
HETATM   22  C   UNL     1      44.940 -11.988  10.468  1.00  0.00     0.175 C 
BRANCH  22  23
HETATM   23  C   UNL     1      45.867 -11.273   9.483  1.00  0.00     0.022 C 
HETATM   24  C   UNL     1      46.287 -12.160   8.321  1.00  0.00     0.007 C 
ENDBRANCH  22  23
ENDBRANCH  21  22
ENDBRANCH  17  21
ENDBRANCH  12  15
ENDBRANCH   9  11
ENDBRANCH   7   9
ENDBRANCH   1   7
BRANCH   4  25
HETATM   25  N   UNL     1      40.971 -14.827   2.232  1.00  0.00    -0.378 N 
HETATM   26  C   UNL     1      40.395 -16.192   2.325  1.00  0.00     0.150 C 
HETATM   27  C   UNL     1      41.214 -17.048   3.320  1.00  0.00     0.255 C 
HETATM   28  N   UNL     1      42.688 -17.099   2.885  1.00  0.00    -0.064 N 
HETATM   29  H   UNL     1      42.711 -17.595   1.988  1.00  0.00     0.280 HD
HETATM   30  C   UNL     1      43.261 -15.694   2.641  1.00  0.00     0.255 C 
HETATM   31  C   UNL     1      42.350 -14.880   1.693  1.00  0.00     0.150 C 
BRANCH  28  32
HETATM   32  C   UNL     1      43.558 -17.868   3.853  1.00  0.00     0.273 C 
BRANCH  32  33
HETATM   33  C   UNL     1      43.840 -19.292   3.455  1.00  0.00    -0.033 A 
HETATM   34  C   UNL     1      43.430 -19.802   2.212  1.00  0.00     0.009 A 
HETATM   35  C   UNL     1      43.712 -21.124   1.862  1.00  0.00     0.001 A 
HETATM   36  C   UNL     1      44.423 -21.944   2.736  1.00  0.00     0.000 A 
HETATM   37  C   UNL     1      44.855 -21.443   3.962  1.00  0.00     0.001 A 
HETATM   38  C   UNL     1      44.566 -20.126   4.320  1.00  0.00     0.009 A 
ENDBRANCH  32  33
ENDBRANCH  28  32
ENDBRANCH   4  25
TORSDOF 10
ENDMDL
MODEL 8
REMARK VINA RESULT:      -9.0      3.748     11.123
REMARK  10 active torsions:
REMARK  status: ('A' for Active; 'I' for Inactive)
REMARK    1  A    between atoms: C_2  and  C_3 
REMARK    2  A    between atoms: C_3  and  O_4 
REMARK    3  A    between atoms: O_4  and  C_5 
REMARK    4  A    between atoms: C_7  and  C_8 
REMARK       I    between atoms: C_8  and  N_9 
REMARK    5  A    between atoms: N_9  and  C_10 
REMARK    6  A    between atoms: C_10  and  N_11 
REMARK    7  A    between atoms: N_11  and  C_12 
REMARK    8  A    between atoms: C_15  and  N_16 
REMARK    9  A    between atoms: N_19  and  C_21 
REMARK   10  A    between atoms: C_21  and  C_22 
ROOT
HETATM    1  C   UNL     1      40.328 -12.872   4.575  1.00  0.00     0.034 C 
HETATM    2  C   UNL     1      41.107 -11.740   4.435  1.00  0.00     0.032 C 
HETATM    3  C   UNL     1      40.973 -10.643   5.301  1.00  0.00     0.031 C 
HETATM    4  C   UNL     1      40.112 -10.651   6.405  1.00  0.00     0.030 C 
HETATM    5  C   UNL     1      39.266 -11.767   6.483  1.00  0.00     0.031 C 
HETATM    6  C   UNL     1      39.368 -12.852   5.589  1.00  0.00     0.032 C 
ENDROOT
BRANCH   1   7
HETATM    7  N   UNL     1      40.428 -14.058   3.816  1.00  0.00    -0.333 N 
HETATM    8  H   UNL     1      39.692 -14.733   3.998  1.00  0.00     0.168 HD
BRANCH   7   9
HETATM    9  C   UNL     1      41.411 -14.630   3.078  1.00  0.00     0.179 C 
HETATM   10  S   UNL     1      41.767 -13.933   1.595  1.00  0.00    -0.040 SA
BRANCH   9  11
HETATM   11  N   UNL     1      42.013 -15.802   3.386  1.00  0.00    -0.299 N 
HETATM   12  C   UNL     1      41.638 -17.031   2.878  1.00  0.00     0.257 C 
HETATM   13  O   UNL     1      40.633 -17.221   2.202  1.00  0.00    -0.267 OA
HETATM   14  H   UNL     1      42.210 -15.861   4.377  1.00  0.00     0.171 HD
BRANCH  12  15
HETATM   15  C   UNL     1      42.590 -18.159   3.142  1.00  0.00     0.035 A 
HETATM   16  C   UNL     1      43.156 -18.390   4.404  1.00  0.00     0.053 A 
HETATM   17  C   UNL     1      44.124 -19.386   4.554  1.00  0.00     0.069 A 
HETATM   18  C   UNL     1      44.575 -20.110   3.454  1.00  0.00     0.037 A 
HETATM   19  C   UNL     1      44.012 -19.891   2.200  1.00  0.00     0.004 A 
HETATM   20  C   UNL     1      43.018 -18.924   2.045  1.00  0.00     0.017 A 
BRANCH  17  21
HETATM   21  O   UNL     1      44.736 -19.621   5.755  1.00  0.00    -0.351 OA
BRANCH  21  22
HETATM   22  C   UNL     1      44.930 -18.433   6.535  1.00  0.00     0.175 C 
BRANCH  22  23
HETATM   23  C   UNL     1      44.231 -18.501   7.895  1.00  0.00     0.022 C 
HETATM   24  C   UNL     1      43.247 -17.361   8.107  1.00  0.00     0.007 C 
ENDBRANCH  22  23
ENDBRANCH  21  22
ENDBRANCH  17  21
ENDBRANCH  12  15
ENDBRANCH   9  11
ENDBRANCH   7   9
ENDBRANCH   1   7
BRANCH   4  25
HETATM   25  N   UNL     1      40.086  -9.603   7.342  1.00  0.00    -0.378 N 
HETATM   26  C   UNL     1      41.380  -8.992   7.736  1.00  0.00     0.150 C 
HETATM   27  C   UNL     1      42.127  -9.920   8.724  1.00  0.00     0.255 C 
HETATM   28  N   UNL     1      41.250 -10.196   9.955  1.00  0.00    -0.064 N 
HETATM   29  H   UNL     1      41.128  -9.298  10.436  1.00  0.00     0.280 HD
HETATM   30  C   UNL     1      39.849 -10.691   9.561  1.00  0.00     0.255 C 
HETATM   31  C   UNL     1      39.200  -9.749   8.521  1.00  0.00     0.150 C 
BRANCH  28  32
HETATM   32  C   UNL     1      41.896 -11.151  10.933  1.00  0.00     0.273 C 
BRANCH  32  33
HETATM   33  C   UNL     1      42.202 -10.562  12.283  1.00  0.00    -0.033 A 
HETATM   34  C   UNL     1      43.331  -9.753  12.493  1.00  0.00     0.009 A 
HETATM   35  C   UNL     1      43.588  -9.209  13.753  1.00  0.00     0.001 A 
HETATM   36  C   UNL     1      42.713  -9.447  14.810  1.00  0.00     0.000 A 
HETATM   37  C   UNL     1      41.578 -10.228  14.610  1.00  0.00     0.001 A 
HETATM   38  C   UNL     1      41.323 -10.782  13.356  1.00  0.00     0.009 A 
ENDBRANCH  32  33
ENDBRANCH  28  32
ENDBRANCH   4  25
TORSDOF 10
ENDMDL
MODEL 9
REMARK VINA RESULT:      -8.8      1.825      2.961
REMARK  10 active torsions:
REMARK  status: ('A' for Active; 'I' for Inactive)
REMARK    1  A    between atoms: C_2  and  C_3 
REMARK    2  A    between atoms: C_3  and  O_4 
REMARK    3  A    between atoms: O_4  and  C_5 
REMARK    4  A    between atoms: C_7  and  C_8 
REMARK       I    between atoms: C_8  and  N_9 
REMARK    5  A    between atoms: N_9  and  C_10 
REMARK    6  A    between atoms: C_10  and  N_11 
REMARK    7  A    between atoms: N_11  and  C_12 
REMARK    8  A    between atoms: C_15  and  N_16 
REMARK    9  A    between atoms: N_19  and  C_21 
REMARK   10  A    between atoms: C_21  and  C_22 
ROOT
HETATM    1  C   UNL     1      43.415 -13.655   6.452  1.00  0.00     0.034 C 
HETATM    2  C   UNL     1      43.744 -14.497   5.407  1.00  0.00     0.032 C 
HETATM    3  C   UNL     1      43.024 -14.490   4.202  1.00  0.00     0.031 C 
HETATM    4  C   UNL     1      41.988 -13.585   3.945  1.00  0.00     0.030 C 
HETATM    5  C   UNL     1      41.608 -12.798   5.042  1.00  0.00     0.031 C 
HETATM    6  C   UNL     1      42.302 -12.832   6.268  1.00  0.00     0.032 C 
ENDROOT
BRANCH   1   7
HETATM    7  N   UNL     1      44.112 -13.520   7.672  1.00  0.00    -0.333 N 
HETATM    8  H   UNL     1      44.072 -14.342   8.268  1.00  0.00     0.168 HD
BRANCH   7   9
HETATM    9  C   UNL     1      44.618 -12.470   8.364  1.00  0.00     0.179 C 
HETATM   10  S   UNL     1      46.279 -12.246   8.320  1.00  0.00    -0.040 SA
BRANCH   9  11
HETATM   11  N   UNL     1      43.898 -11.687   9.200  1.00  0.00    -0.299 N 
HETATM   12  C   UNL     1      43.869 -11.830  10.574  1.00  0.00     0.257 C 
HETATM   13  O   UNL     1      44.379 -12.765  11.182  1.00  0.00    -0.267 OA
HETATM   14  H   UNL     1      42.970 -11.517   8.831  1.00  0.00     0.171 HD
BRANCH  12  15
HETATM   15  C   UNL     1      43.219 -10.710  11.329  1.00  0.00     0.035 A 
HETATM   16  C   UNL     1      42.230  -9.892  10.764  1.00  0.00     0.053 A 
HETATM   17  C   UNL     1      41.749  -8.795  11.481  1.00  0.00     0.069 A 
HETATM   18  C   UNL     1      42.283  -8.469  12.725  1.00  0.00     0.037 A 
HETATM   19  C   UNL     1      43.259  -9.281  13.295  1.00  0.00     0.004 A 
HETATM   20  C   UNL     1      43.722 -10.401  12.603  1.00  0.00     0.017 A 
BRANCH  17  21
HETATM   21  O   UNL     1      40.815  -7.943  10.957  1.00  0.00    -0.351 OA
BRANCH  21  22
HETATM   22  C   UNL     1      39.603  -8.603  10.565  1.00  0.00     0.175 C 
BRANCH  22  23
HETATM   23  C   UNL     1      38.843  -9.195  11.755  1.00  0.00     0.022 C 
HETATM   24  C   UNL     1      38.051  -8.150  12.525  1.00  0.00     0.007 C 
ENDBRANCH  22  23
ENDBRANCH  21  22
ENDBRANCH  17  21
ENDBRANCH  12  15
ENDBRANCH   9  11
ENDBRANCH   7   9
ENDBRANCH   1   7
BRANCH   4  25
HETATM   25  N   UNL     1      41.366 -13.497   2.687  1.00  0.00    -0.378 N 
HETATM   26  C   UNL     1      40.002 -14.064   2.547  1.00  0.00     0.150 C 
HETATM   27  C   UNL     1      40.074 -15.607   2.455  1.00  0.00     0.255 C 
HETATM   28  N   UNL     1      40.970 -16.025   1.278  1.00  0.00    -0.064 N 
HETATM   29  H   UNL     1      40.499 -15.705   0.424  1.00  0.00     0.280 HD
HETATM   30  C   UNL     1      42.340 -15.330   1.326  1.00  0.00     0.255 C 
HETATM   31  C   UNL     1      42.181 -13.801   1.488  1.00  0.00     0.150 C 
BRANCH  28  32
HETATM   32  C   UNL     1      41.137 -17.524   1.171  1.00  0.00     0.273 C 
BRANCH  32  33
HETATM   33  C   UNL     1      42.169 -18.112   2.096  1.00  0.00    -0.033 A 
HETATM   34  C   UNL     1      42.061 -17.988   3.491  1.00  0.00     0.009 A 
HETATM   35  C   UNL     1      43.026 -18.550   4.328  1.00  0.00     0.001 A 
HETATM   36  C   UNL     1      44.095 -19.260   3.786  1.00  0.00     0.000 A 
HETATM   37  C   UNL     1      44.201 -19.411   2.406  1.00  0.00     0.001 A 
HETATM   38  C   UNL     1      43.245 -18.841   1.565  1.00  0.00     0.009 A 
ENDBRANCH  32  33
ENDBRANCH  28  32
ENDBRANCH   4  25
TORSDOF 10
ENDMDL
MODEL 10
REMARK VINA RESULT:      -8.7      6.322     10.195
REMARK  10 active torsions:
REMARK  status: ('A' for Active; 'I' for Inactive)
REMARK    1  A    between atoms: C_2  and  C_3 
REMARK    2  A    between atoms: C_3  and  O_4 
REMARK    3  A    between atoms: O_4  and  C_5 
REMARK    4  A    between atoms: C_7  and  C_8 
REMARK       I    between atoms: C_8  and  N_9 
REMARK    5  A    between atoms: N_9  and  C_10 
REMARK    6  A    between atoms: C_10  and  N_11 
REMARK    7  A    between atoms: N_11  and  C_12 
REMARK    8  A    between atoms: C_15  and  N_16 
REMARK    9  A    between atoms: N_19  and  C_21 
REMARK   10  A    between atoms: C_21  and  C_22 
ROOT
HETATM    1  C   UNL     1      41.260 -12.375   3.640  1.00  0.00     0.034 C 
HETATM    2  C   UNL     1      40.165 -13.216   3.705  1.00  0.00     0.032 C 
HETATM    3  C   UNL     1      40.230 -14.459   4.353  1.00  0.00     0.031 C 
HETATM    4  C   UNL     1      41.367 -14.894   5.044  1.00  0.00     0.030 C 
HETATM    5  C   UNL     1      42.495 -14.074   4.896  1.00  0.00     0.031 C 
HETATM    6  C   UNL     1      42.445 -12.844   4.209  1.00  0.00     0.032 C 
ENDROOT
BRANCH   1   7
HETATM    7  N   UNL     1      41.289 -11.078   3.086  1.00  0.00    -0.333 N 
HETATM    8  H   UNL     1      41.634 -10.362   3.717  1.00  0.00     0.168 HD
BRANCH   7   9
HETATM    9  C   UNL     1      40.732 -10.502   1.991  1.00  0.00     0.179 C 
HETATM   10  S   UNL     1      40.095  -8.962   2.169  1.00  0.00    -0.040 SA
BRANCH   9  11
HETATM   11  N   UNL     1      40.523 -11.140   0.816  1.00  0.00    -0.299 N 
HETATM   12  C   UNL     1      41.504 -11.795   0.097  1.00  0.00     0.257 C 
HETATM   13  O   UNL     1      42.699 -11.755   0.365  1.00  0.00    -0.267 OA
HETATM   14  H   UNL     1      39.925 -10.595   0.207  1.00  0.00     0.171 HD
BRANCH  12  15
HETATM   15  C   UNL     1      41.017 -12.648  -1.036  1.00  0.00     0.035 A 
HETATM   16  C   UNL     1      39.672 -13.018  -1.178  1.00  0.00     0.053 A 
HETATM   17  C   UNL     1      39.304 -13.910  -2.189  1.00  0.00     0.069 A 
HETATM   18  C   UNL     1      40.267 -14.482  -3.016  1.00  0.00     0.037 A 
HETATM   19  C   UNL     1      41.603 -14.113  -2.885  1.00  0.00     0.004 A 
HETATM   20  C   UNL     1      41.976 -13.195  -1.902  1.00  0.00     0.017 A 
BRANCH  17  21
HETATM   21  O   UNL     1      38.013 -14.333  -2.343  1.00  0.00    -0.351 OA
BRANCH  21  22
HETATM   22  C   UNL     1      37.797 -15.065  -3.557  1.00  0.00     0.175 C 
BRANCH  22  23
HETATM   23  C   UNL     1      36.605 -14.537  -4.360  1.00  0.00     0.022 C 
HETATM   24  C   UNL     1      36.466 -13.025  -4.279  1.00  0.00     0.007 C 
ENDBRANCH  22  23
ENDBRANCH  21  22
ENDBRANCH  17  21
ENDBRANCH  12  15
ENDBRANCH   9  11
ENDBRANCH   7   9
ENDBRANCH   1   7
BRANCH   4  25
HETATM   25  N   UNL     1      41.374 -16.078   5.803  1.00  0.00    -0.378 N 
HETATM   26  C   UNL     1      42.556 -16.344   6.661  1.00  0.00     0.150 C 
HETATM   27  C   UNL     1      43.741 -16.835   5.796  1.00  0.00     0.255 C 
HETATM   28  N   UNL     1      43.336 -18.092   5.010  1.00  0.00    -0.064 N 
HETATM   29  H   UNL     1      43.158 -18.827   5.703  1.00  0.00     0.280 HD
HETATM   30  C   UNL     1      42.029 -17.882   4.229  1.00  0.00     0.255 C 
HETATM   31  C   UNL     1      40.917 -17.325   5.147  1.00  0.00     0.150 C 
BRANCH  28  32
HETATM   32  C   UNL     1      44.430 -18.588   4.092  1.00  0.00     0.273 C 
BRANCH  32  33
HETATM   33  C   UNL     1      44.517 -20.085   3.964  1.00  0.00    -0.033 A 
HETATM   34  C   UNL     1      44.776 -20.904   5.075  1.00  0.00     0.009 A 
HETATM   35  C   UNL     1      44.842 -22.291   4.932  1.00  0.00     0.001 A 
HETATM   36  C   UNL     1      44.630 -22.878   3.686  1.00  0.00     0.000 A 
HETATM   37  C   UNL     1      44.349 -22.079   2.581  1.00  0.00     0.001 A 
HETATM   38  C   UNL     1      44.293 -20.692   2.717  1.00  0.00     0.009 A 
ENDBRANCH  32  33
ENDBRANCH  28  32
ENDBRANCH   4  25
TORSDOF 10
ENDMDL
