MODEL 1
REMARK VINA RESULT:      -9.3      0.000      0.000
REMARK  3 active torsions:
REMARK  status: ('A' for Active; 'I' for Inactive)
REMARK    1  A    between atoms: C_3  and  C_4 
REMARK    2  A    between atoms: C_8  and  C_9 
REMARK       I    between atoms: C_9  and  N_10 
REMARK    3  A    between atoms: N_10  and  N_11 
ROOT
HETATM    1  C   UNL     1      45.127 -13.580   7.308  1.00  0.00     0.289 C 
HETATM    2  N   UNL     1      44.149 -14.560   7.262  1.00  0.00    -0.241 N 
HETATM    3  O   UNL     1      46.117 -13.558   6.581  1.00  0.00    -0.264 OA
HETATM    4  H   UNL     1      43.362 -14.538   7.909  1.00  0.00     0.192 HD
ENDROOT
BRANCH   1   5
HETATM    5  C   UNL     1      44.911 -12.557   8.301  1.00  0.00     0.121 A 
HETATM    6  N   UNL     1      45.903 -11.680   8.637  1.00  0.00    -0.272 N 
HETATM    7  N   UNL     1      45.553 -10.780   9.568  1.00  0.00    -0.174 NA
HETATM    8  H   UNL     1      46.842 -11.652   8.249  1.00  0.00     0.189 HD
HETATM    9  C   UNL     1      44.285 -11.096   9.881  1.00  0.00     0.091 A 
HETATM   10  C   UNL     1      43.837 -12.189   9.086  1.00  0.00     0.071 A 
BRANCH   9  11
HETATM   11  C   UNL     1      43.541 -10.318  10.875  1.00  0.00     0.016 A 
HETATM   12  C   UNL     1      43.987 -10.355  12.210  1.00  0.00     0.015 A 
HETATM   13  C   UNL     1      43.335  -9.632  13.212  1.00  0.00     0.001 A 
HETATM   14  C   UNL     1      42.223  -8.858  12.897  1.00  0.00     0.002 A 
HETATM   15  C   UNL     1      41.760  -8.817  11.581  1.00  0.00     0.025 A 
HETATM   16  C   UNL     1      42.409  -9.544  10.572  1.00  0.00     0.046 A 
HETATM   17 CL   UNL     1      41.707  -9.463   8.992  1.00  0.00    -0.083 Cl
ENDBRANCH   9  11
ENDBRANCH   1   5
BRANCH   2  18
HETATM   18  N   UNL     1      44.250 -15.600   6.379  1.00  0.00    -0.165 NA
HETATM   19  C   UNL     1      44.052 -16.787   6.856  1.00  0.00     0.157 A 
HETATM   20  C   UNL     1      43.713 -17.189   8.295  1.00  0.00     0.277 A 
HETATM   21  C   UNL     1      44.118 -18.030   6.099  1.00  0.00     0.027 A 
HETATM   22  O   UNL     1      43.570 -16.411   9.214  1.00  0.00    -0.266 OA
HETATM   23  N   UNL     1      43.616 -18.564   8.282  1.00  0.00    -0.321 N 
HETATM   24  C   UNL     1      43.852 -19.060   7.002  1.00  0.00     0.048 A 
HETATM   25  H   UNL     1      43.403 -19.115   9.101  1.00  0.00     0.169 HD
HETATM   26  C   UNL     1      43.843 -20.377   6.599  1.00  0.00     0.030 A 
HETATM   27  C   UNL     1      44.109 -20.639   5.248  1.00  0.00     0.002 A 
HETATM   28  C   UNL     1      44.377 -19.591   4.341  1.00  0.00     0.001 A 
HETATM   29  C   UNL     1      44.383 -18.261   4.766  1.00  0.00     0.016 A 
ENDBRANCH   2  18
TORSDOF 3
ENDMDL
MODEL 2
REMARK VINA RESULT:      -9.3      1.631      2.246
REMARK  3 active torsions:
REMARK  status: ('A' for Active; 'I' for Inactive)
REMARK    1  A    between atoms: C_3  and  C_4 
REMARK    2  A    between atoms: C_8  and  C_9 
REMARK       I    between atoms: C_9  and  N_10 
REMARK    3  A    between atoms: N_10  and  N_11 
ROOT
HETATM    1  C   UNL     1      45.082 -13.573   7.536  1.00  0.00     0.289 C 
HETATM    2  N   UNL     1      44.161 -14.605   7.607  1.00  0.00    -0.241 N 
HETATM    3  O   UNL     1      46.027 -13.543   6.751  1.00  0.00    -0.264 OA
HETATM    4  H   UNL     1      43.413 -14.587   8.297  1.00  0.00     0.192 HD
ENDROOT
BRANCH   1   5
HETATM    5  C   UNL     1      44.863 -12.502   8.477  1.00  0.00     0.121 A 
HETATM    6  N   UNL     1      45.828 -11.566   8.716  1.00  0.00    -0.272 N 
HETATM    7  N   UNL     1      45.477 -10.628   9.609  1.00  0.00    -0.174 NA
HETATM    8  H   UNL     1      46.747 -11.521   8.286  1.00  0.00     0.189 HD
HETATM    9  C   UNL     1      44.240 -10.978   9.997  1.00  0.00     0.091 A 
HETATM   10  C   UNL     1      43.808 -12.135   9.288  1.00  0.00     0.071 A 
BRANCH   9  11
HETATM   11  C   UNL     1      43.505 -10.175  10.977  1.00  0.00     0.016 A 
HETATM   12  C   UNL     1      43.951 -10.194  12.313  1.00  0.00     0.015 A 
HETATM   13  C   UNL     1      43.308  -9.446  13.303  1.00  0.00     0.001 A 
HETATM   14  C   UNL     1      42.204  -8.666  12.974  1.00  0.00     0.002 A 
HETATM   15  C   UNL     1      41.740  -8.643  11.658  1.00  0.00     0.025 A 
HETATM   16  C   UNL     1      42.381  -9.394  10.662  1.00  0.00     0.046 A 
HETATM   17 CL   UNL     1      41.679  -9.334   9.081  1.00  0.00    -0.083 Cl
ENDBRANCH   9  11
ENDBRANCH   1   5
BRANCH   2  18
HETATM   18  N   UNL     1      44.273 -15.692   6.783  1.00  0.00    -0.165 NA
HETATM   19  C   UNL     1      43.431 -15.764   5.802  1.00  0.00     0.157 A 
HETATM   20  C   UNL     1      42.314 -14.783   5.432  1.00  0.00     0.277 A 
HETATM   21  C   UNL     1      43.366 -16.833   4.814  1.00  0.00     0.027 A 
HETATM   22  O   UNL     1      42.068 -13.759   6.034  1.00  0.00    -0.266 OA
HETATM   23  N   UNL     1      41.703 -15.320   4.320  1.00  0.00    -0.321 N 
HETATM   24  C   UNL     1      42.314 -16.518   3.956  1.00  0.00     0.048 A 
HETATM   25  H   UNL     1      40.920 -14.887   3.851  1.00  0.00     0.169 HD
HETATM   26  C   UNL     1      41.981 -17.340   2.901  1.00  0.00     0.030 A 
HETATM   27  C   UNL     1      42.744 -18.503   2.726  1.00  0.00     0.002 A 
HETATM   28  C   UNL     1      43.808 -18.815   3.600  1.00  0.00     0.001 A 
HETATM   29  C   UNL     1      44.132 -17.971   4.664  1.00  0.00     0.016 A 
ENDBRANCH   2  18
TORSDOF 3
ENDMDL
MODEL 3
REMARK VINA RESULT:      -9.1      7.359     11.044
REMARK  3 active torsions:
REMARK  status: ('A' for Active; 'I' for Inactive)
REMARK    1  A    between atoms: C_3  and  C_4 
REMARK    2  A    between atoms: C_8  and  C_9 
REMARK       I    between atoms: C_9  and  N_10 
REMARK    3  A    between atoms: N_10  and  N_11 
ROOT
HETATM    1  C   UNL     1      41.129 -16.092   0.517  1.00  0.00     0.289 C 
HETATM    2  N   UNL     1      40.128 -15.747   1.409  1.00  0.00    -0.241 N 
HETATM    3  O   UNL     1      41.206 -15.668  -0.634  1.00  0.00    -0.264 OA
HETATM    4  H   UNL     1      40.103 -16.152   2.344  1.00  0.00     0.192 HD
ENDROOT
BRANCH   1   5
HETATM    5  C   UNL     1      42.106 -17.019   1.034  1.00  0.00     0.121 A 
HETATM    6  N   UNL     1      43.444 -16.796   0.871  1.00  0.00    -0.272 N 
HETATM    7  N   UNL     1      44.230 -17.738   1.412  1.00  0.00    -0.174 NA
HETATM    8  H   UNL     1      43.872 -16.004   0.401  1.00  0.00     0.189 HD
HETATM    9  C   UNL     1      43.374 -18.636   1.927  1.00  0.00     0.091 A 
HETATM   10  C   UNL     1      42.031 -18.206   1.734  1.00  0.00     0.071 A 
BRANCH   9  11
HETATM   11  C   UNL     1      43.865 -19.828   2.623  1.00  0.00     0.016 A 
HETATM   12  C   UNL     1      43.825 -21.057   1.935  1.00  0.00     0.015 A 
HETATM   13  C   UNL     1      44.285 -22.235   2.528  1.00  0.00     0.001 A 
HETATM   14  C   UNL     1      44.791 -22.207   3.824  1.00  0.00     0.002 A 
HETATM   15  C   UNL     1      44.828 -21.001   4.525  1.00  0.00     0.025 A 
HETATM   16  C   UNL     1      44.365 -19.816   3.935  1.00  0.00     0.046 A 
HETATM   17 CL   UNL     1      44.405 -18.396   4.924  1.00  0.00    -0.083 Cl
ENDBRANCH   9  11
ENDBRANCH   1   5
BRANCH   2  18
HETATM   18  N   UNL     1      39.127 -14.893   1.032  1.00  0.00    -0.165 NA
HETATM   19  C   UNL     1      39.048 -13.773   1.676  1.00  0.00     0.157 A 
HETATM   20  C   UNL     1      39.937 -13.266   2.816  1.00  0.00     0.277 A 
HETATM   21  C   UNL     1      38.059 -12.728   1.446  1.00  0.00     0.027 A 
HETATM   22  O   UNL     1      40.879 -13.873   3.278  1.00  0.00    -0.266 OA
HETATM   23  N   UNL     1      39.430 -12.031   3.159  1.00  0.00    -0.321 N 
HETATM   24  C   UNL     1      38.333 -11.713   2.361  1.00  0.00     0.048 A 
HETATM   25  H   UNL     1      39.818 -11.454   3.891  1.00  0.00     0.169 HD
HETATM   26  C   UNL     1      37.569 -10.567   2.409  1.00  0.00     0.030 A 
HETATM   27  C   UNL     1      36.506 -10.466   1.499  1.00  0.00     0.002 A 
HETATM   28  C   UNL     1      36.235 -11.498   0.576  1.00  0.00     0.001 A 
HETATM   29  C   UNL     1      37.021 -12.652   0.541  1.00  0.00     0.016 A 
ENDBRANCH   2  18
TORSDOF 3
ENDMDL
MODEL 4
REMARK VINA RESULT:      -8.9      8.540     12.024
REMARK  3 active torsions:
REMARK  status: ('A' for Active; 'I' for Inactive)
REMARK    1  A    between atoms: C_3  and  C_4 
REMARK    2  A    between atoms: C_8  and  C_9 
REMARK       I    between atoms: C_9  and  N_10 
REMARK    3  A    between atoms: N_10  and  N_11 
ROOT
HETATM    1  C   UNL     1      40.536 -15.562   1.339  1.00  0.00     0.289 C 
HETATM    2  N   UNL     1      40.286 -15.150   0.041  1.00  0.00    -0.241 N 
HETATM    3  O   UNL     1      39.975 -15.100   2.331  1.00  0.00    -0.264 OA
HETATM    4  H   UNL     1      40.801 -15.553  -0.740  1.00  0.00     0.192 HD
ENDROOT
BRANCH   1   5
HETATM    5  C   UNL     1      41.534 -16.595   1.464  1.00  0.00     0.121 A 
HETATM    6  N   UNL     1      42.640 -16.606   0.663  1.00  0.00    -0.272 N 
HETATM    7  N   UNL     1      43.483 -17.622   0.899  1.00  0.00    -0.174 NA
HETATM    8  H   UNL     1      42.869 -15.931  -0.062  1.00  0.00     0.189 HD
HETATM    9  C   UNL     1      42.893 -18.328   1.878  1.00  0.00     0.091 A 
HETATM   10  C   UNL     1      41.680 -17.699   2.278  1.00  0.00     0.071 A 
BRANCH   9  11
HETATM   11  C   UNL     1      43.528 -19.530   2.423  1.00  0.00     0.016 A 
HETATM   12  C   UNL     1      43.453 -20.717   1.668  1.00  0.00     0.015 A 
HETATM   13  C   UNL     1      44.043 -21.900   2.118  1.00  0.00     0.001 A 
HETATM   14  C   UNL     1      44.716 -21.920   3.335  1.00  0.00     0.002 A 
HETATM   15  C   UNL     1      44.791 -20.758   4.103  1.00  0.00     0.025 A 
HETATM   16  C   UNL     1      44.199 -19.567   3.656  1.00  0.00     0.046 A 
HETATM   17 CL   UNL     1      44.305 -18.208   4.723  1.00  0.00    -0.083 Cl
ENDBRANCH   9  11
ENDBRANCH   1   5
BRANCH   2  18
HETATM   18  N   UNL     1      39.376 -14.158  -0.209  1.00  0.00    -0.165 NA
HETATM   19  C   UNL     1      39.045 -13.975  -1.447  1.00  0.00     0.157 A 
HETATM   20  C   UNL     1      39.538 -14.730  -2.686  1.00  0.00     0.277 A 
HETATM   21  C   UNL     1      38.106 -12.975  -1.937  1.00  0.00     0.027 A 
HETATM   22  O   UNL     1      40.332 -15.645  -2.665  1.00  0.00    -0.266 OA
HETATM   23  N   UNL     1      38.894 -14.146  -3.756  1.00  0.00    -0.321 N 
HETATM   24  C   UNL     1      38.056 -13.120  -3.323  1.00  0.00     0.048 A 
HETATM   25  H   UNL     1      39.027 -14.438  -4.713  1.00  0.00     0.169 HD
HETATM   26  C   UNL     1      37.254 -12.312  -4.098  1.00  0.00     0.030 A 
HETATM   27  C   UNL     1      36.490 -11.339  -3.437  1.00  0.00     0.002 A 
HETATM   28  C   UNL     1      36.546 -11.198  -2.034  1.00  0.00     0.001 A 
HETATM   29  C   UNL     1      37.365 -12.026  -1.263  1.00  0.00     0.016 A 
ENDBRANCH   2  18
TORSDOF 3
ENDMDL
MODEL 5
REMARK VINA RESULT:      -8.8      2.001      2.760
REMARK  3 active torsions:
REMARK  status: ('A' for Active; 'I' for Inactive)
REMARK    1  A    between atoms: C_3  and  C_4 
REMARK    2  A    between atoms: C_8  and  C_9 
REMARK       I    between atoms: C_9  and  N_10 
REMARK    3  A    between atoms: N_10  and  N_11 
ROOT
HETATM    1  C   UNL     1      43.656 -14.726   5.287  1.00  0.00     0.289 C 
HETATM    2  N   UNL     1      43.616 -16.093   5.508  1.00  0.00    -0.241 N 
HETATM    3  O   UNL     1      43.460 -14.197   4.196  1.00  0.00    -0.264 OA
HETATM    4  H   UNL     1      43.812 -16.476   6.432  1.00  0.00     0.192 HD
ENDROOT
BRANCH   1   5
HETATM    5  C   UNL     1      43.961 -13.935   6.453  1.00  0.00     0.121 A 
HETATM    6  N   UNL     1      45.181 -14.018   7.062  1.00  0.00    -0.272 N 
HETATM    7  N   UNL     1      45.321 -13.217   8.129  1.00  0.00    -0.174 NA
HETATM    8  H   UNL     1      45.959 -14.607   6.779  1.00  0.00     0.189 HD
HETATM    9  C   UNL     1      44.133 -12.602   8.247  1.00  0.00     0.091 A 
HETATM   10  C   UNL     1      43.261 -13.006   7.196  1.00  0.00     0.071 A 
BRANCH   9  11
HETATM   11  C   UNL     1      43.897 -11.624   9.312  1.00  0.00     0.016 A 
HETATM   12  C   UNL     1      44.745 -11.654  10.435  1.00  0.00     0.015 A 
HETATM   13  C   UNL     1      44.588 -10.747  11.486  1.00  0.00     0.001 A 
HETATM   14  C   UNL     1      43.576  -9.795  11.434  1.00  0.00     0.002 A 
HETATM   15  C   UNL     1      42.718  -9.757  10.334  1.00  0.00     0.025 A 
HETATM   16  C   UNL     1      42.870 -10.667   9.278  1.00  0.00     0.046 A 
HETATM   17 CL   UNL     1      41.709 -10.562   7.998  1.00  0.00    -0.083 Cl
ENDBRANCH   9  11
ENDBRANCH   1   5
BRANCH   2  18
HETATM   18  N   UNL     1      43.359 -16.955   4.476  1.00  0.00    -0.165 NA
HETATM   19  C   UNL     1      43.931 -18.115   4.535  1.00  0.00     0.157 A 
HETATM   20  C   UNL     1      44.865 -18.662   5.619  1.00  0.00     0.277 A 
HETATM   21  C   UNL     1      43.803 -19.177   3.546  1.00  0.00     0.027 A 
HETATM   22  O   UNL     1      45.199 -18.053   6.614  1.00  0.00    -0.266 OA
HETATM   23  N   UNL     1      45.206 -19.932   5.208  1.00  0.00    -0.321 N 
HETATM   24  C   UNL     1      44.588 -20.237   3.997  1.00  0.00     0.048 A 
HETATM   25  H   UNL     1      45.821 -20.540   5.729  1.00  0.00     0.169 HD
HETATM   26  C   UNL     1      44.689 -21.409   3.278  1.00  0.00     0.030 A 
HETATM   27  C   UNL     1      43.970 -21.490   2.078  1.00  0.00     0.002 A 
HETATM   28  C   UNL     1      43.178 -20.412   1.628  1.00  0.00     0.001 A 
HETATM   29  C   UNL     1      43.087 -19.232   2.369  1.00  0.00     0.016 A 
ENDBRANCH   2  18
TORSDOF 3
ENDMDL
MODEL 6
REMARK VINA RESULT:      -8.5      3.180      9.229
REMARK  3 active torsions:
REMARK  status: ('A' for Active; 'I' for Inactive)
REMARK    1  A    between atoms: C_3  and  C_4 
REMARK    2  A    between atoms: C_8  and  C_9 
REMARK       I    between atoms: C_9  and  N_10 
REMARK    3  A    between atoms: N_10  and  N_11 
ROOT
HETATM    1  C   UNL     1      41.965 -12.348   5.861  1.00  0.00     0.289 C 
HETATM    2  N   UNL     1      42.725 -12.193   7.009  1.00  0.00    -0.241 N 
HETATM    3  O   UNL     1      40.945 -11.709   5.617  1.00  0.00    -0.264 OA
HETATM    4  H   UNL     1      43.549 -12.771   7.168  1.00  0.00     0.192 HD
ENDROOT
BRANCH   1   5
HETATM    5  C   UNL     1      42.456 -13.345   4.942  1.00  0.00     0.121 A 
HETATM    6  N   UNL     1      43.061 -12.987   3.771  1.00  0.00    -0.272 N 
HETATM    7  N   UNL     1      43.472 -14.022   3.023  1.00  0.00    -0.174 NA
HETATM    8  H   UNL     1      43.224 -12.041   3.439  1.00  0.00     0.189 HD
HETATM    9  C   UNL     1      43.096 -15.109   3.716  1.00  0.00     0.091 A 
HETATM   10  C   UNL     1      42.478 -14.725   4.940  1.00  0.00     0.071 A 
BRANCH   9  11
HETATM   11  C   UNL     1      43.383 -16.455   3.216  1.00  0.00     0.016 A 
HETATM   12  C   UNL     1      43.380 -16.656   1.822  1.00  0.00     0.015 A 
HETATM   13  C   UNL     1      43.655 -17.909   1.270  1.00  0.00     0.001 A 
HETATM   14  C   UNL     1      43.936 -18.987   2.103  1.00  0.00     0.002 A 
HETATM   15  C   UNL     1      43.934 -18.810   3.487  1.00  0.00     0.025 A 
HETATM   16  C   UNL     1      43.655 -17.555   4.046  1.00  0.00     0.046 A 
HETATM   17 CL   UNL     1      43.621 -17.472   5.775  1.00  0.00    -0.083 Cl
ENDBRANCH   9  11
ENDBRANCH   1   5
BRANCH   2  18
HETATM   18  N   UNL     1      42.352 -11.294   7.972  1.00  0.00    -0.165 NA
HETATM   19  C   UNL     1      43.061 -11.278   9.054  1.00  0.00     0.157 A 
HETATM   20  C   UNL     1      44.279 -12.138   9.407  1.00  0.00     0.277 A 
HETATM   21  C   UNL     1      42.837 -10.412  10.204  1.00  0.00     0.027 A 
HETATM   22  O   UNL     1      44.764 -12.978   8.680  1.00  0.00    -0.266 OA
HETATM   23  N   UNL     1      44.657 -11.742  10.672  1.00  0.00    -0.321 N 
HETATM   24  C   UNL     1      43.818 -10.734  11.141  1.00  0.00     0.048 A 
HETATM   25  H   UNL     1      45.440 -12.142  11.170  1.00  0.00     0.169 HD
HETATM   26  C   UNL     1      43.883 -10.090  12.358  1.00  0.00     0.030 A 
HETATM   27  C   UNL     1      42.924  -9.099  12.613  1.00  0.00     0.002 A 
HETATM   28  C   UNL     1      41.935  -8.779  11.659  1.00  0.00     0.001 A 
HETATM   29  C   UNL     1      41.883  -9.442  10.431  1.00  0.00     0.016 A 
ENDBRANCH   2  18
TORSDOF 3
ENDMDL
MODEL 7
REMARK VINA RESULT:      -8.5      7.557      8.840
REMARK  3 active torsions:
REMARK  status: ('A' for Active; 'I' for Inactive)
REMARK    1  A    between atoms: C_3  and  C_4 
REMARK    2  A    between atoms: C_8  and  C_9 
REMARK       I    between atoms: C_9  and  N_10 
REMARK    3  A    between atoms: N_10  and  N_11 
ROOT
HETATM    1  C   UNL     1      41.672 -16.984   0.754  1.00  0.00     0.289 C 
HETATM    2  N   UNL     1      42.999 -17.374   0.834  1.00  0.00    -0.241 N 
HETATM    3  O   UNL     1      40.720 -17.722   0.993  1.00  0.00    -0.264 OA
HETATM    4  H   UNL     1      43.746 -16.723   0.598  1.00  0.00     0.192 HD
ENDROOT
BRANCH   1   5
HETATM    5  C   UNL     1      41.469 -15.615   0.349  1.00  0.00     0.121 A 
HETATM    6  N   UNL     1      40.272 -15.202  -0.165  1.00  0.00    -0.272 N 
HETATM    7  N   UNL     1      40.229 -13.901  -0.488  1.00  0.00    -0.174 NA
HETATM    8  H   UNL     1      39.446 -15.776  -0.308  1.00  0.00     0.189 HD
HETATM    9  C   UNL     1      41.459 -13.443  -0.203  1.00  0.00     0.091 A 
HETATM   10  C   UNL     1      42.258 -14.483   0.350  1.00  0.00     0.071 A 
BRANCH   9  11
HETATM   11  C   UNL     1      41.804 -12.035  -0.417  1.00  0.00     0.016 A 
HETATM   12  C   UNL     1      41.455 -11.110   0.586  1.00  0.00     0.015 A 
HETATM   13  C   UNL     1      41.759  -9.753   0.459  1.00  0.00     0.001 A 
HETATM   14  C   UNL     1      42.417  -9.294  -0.678  1.00  0.00     0.002 A 
HETATM   15  C   UNL     1      42.761 -10.194  -1.688  1.00  0.00     0.025 A 
HETATM   16  C   UNL     1      42.455 -11.557  -1.565  1.00  0.00     0.046 A 
HETATM   17 CL   UNL     1      42.877 -12.564  -2.908  1.00  0.00    -0.083 Cl
ENDBRANCH   9  11
ENDBRANCH   1   5
BRANCH   2  18
HETATM   18  N   UNL     1      43.325 -18.656   1.185  1.00  0.00    -0.165 NA
HETATM   19  C   UNL     1      43.682 -18.847   2.414  1.00  0.00     0.157 A 
HETATM   20  C   UNL     1      43.787 -17.820   3.546  1.00  0.00     0.277 A 
HETATM   21  C   UNL     1      44.076 -20.123   2.996  1.00  0.00     0.027 A 
HETATM   22  O   UNL     1      43.529 -16.641   3.433  1.00  0.00    -0.266 OA
HETATM   23  N   UNL     1      44.218 -18.526   4.648  1.00  0.00    -0.321 N 
HETATM   24  C   UNL     1      44.389 -19.872   4.332  1.00  0.00     0.048 A 
HETATM   25  H   UNL     1      44.382 -18.104   5.551  1.00  0.00     0.169 HD
HETATM   26  C   UNL     1      44.807 -20.882   5.170  1.00  0.00     0.030 A 
HETATM   27  C   UNL     1      44.904 -22.170   4.626  1.00  0.00     0.002 A 
HETATM   28  C   UNL     1      44.586 -22.417   3.274  1.00  0.00     0.001 A 
HETATM   29  C   UNL     1      44.163 -21.381   2.437  1.00  0.00     0.016 A 
ENDBRANCH   2  18
TORSDOF 3
ENDMDL
MODEL 8
REMARK VINA RESULT:      -8.4      6.518     10.581
REMARK  3 active torsions:
REMARK  status: ('A' for Active; 'I' for Inactive)
REMARK    1  A    between atoms: C_3  and  C_4 
REMARK    2  A    between atoms: C_8  and  C_9 
REMARK       I    between atoms: C_9  and  N_10 
REMARK    3  A    between atoms: N_10  and  N_11 
ROOT
HETATM    1  C   UNL     1      42.738 -14.818   3.056  1.00  0.00     0.289 C 
HETATM    2  N   UNL     1      41.423 -14.749   3.486  1.00  0.00    -0.241 N 
HETATM    3  O   UNL     1      43.455 -13.839   2.869  1.00  0.00    -0.264 OA
HETATM    4  H   UNL     1      40.869 -15.597   3.599  1.00  0.00     0.192 HD
ENDROOT
BRANCH   1   5
HETATM    5  C   UNL     1      43.229 -16.154   2.825  1.00  0.00     0.121 A 
HETATM    6  N   UNL     1      43.853 -16.484   1.656  1.00  0.00    -0.272 N 
HETATM    7  N   UNL     1      44.261 -17.759   1.589  1.00  0.00    -0.174 NA
HETATM    8  H   UNL     1      44.030 -15.865   0.870  1.00  0.00     0.189 HD
HETATM    9  C   UNL     1      43.864 -18.302   2.751  1.00  0.00     0.091 A 
HETATM   10  C   UNL     1      43.236 -17.319   3.566  1.00  0.00     0.071 A 
BRANCH   9  11
HETATM   11  C   UNL     1      44.143 -19.707   3.058  1.00  0.00     0.016 A 
HETATM   12  C   UNL     1      43.880 -20.666   2.060  1.00  0.00     0.015 A 
HETATM   13  C   UNL     1      44.130 -22.023   2.275  1.00  0.00     0.001 A 
HETATM   14  C   UNL     1      44.645 -22.448   3.495  1.00  0.00     0.002 A 
HETATM   15  C   UNL     1      44.902 -21.515   4.500  1.00  0.00     0.025 A 
HETATM   16  C   UNL     1      44.650 -20.151   4.290  1.00  0.00     0.046 A 
HETATM   17 CL   UNL     1      44.950 -19.097   5.630  1.00  0.00    -0.083 Cl
ENDBRANCH   9  11
ENDBRANCH   1   5
BRANCH   2  18
HETATM   18  N   UNL     1      40.831 -13.537   3.718  1.00  0.00    -0.165 NA
HETATM   19  C   UNL     1      39.855 -13.209   2.934  1.00  0.00     0.157 A 
HETATM   20  C   UNL     1      39.262 -14.007   1.768  1.00  0.00     0.277 A 
HETATM   21  C   UNL     1      39.094 -11.969   2.996  1.00  0.00     0.027 A 
HETATM   22  O   UNL     1      39.643 -15.104   1.418  1.00  0.00    -0.266 OA
HETATM   23  N   UNL     1      38.256 -13.218   1.253  1.00  0.00    -0.321 N 
HETATM   24  C   UNL     1      38.154 -12.026   1.968  1.00  0.00     0.048 A 
HETATM   25  H   UNL     1      37.684 -13.488   0.466  1.00  0.00     0.169 HD
HETATM   26  C   UNL     1      37.269 -10.993   1.750  1.00  0.00     0.030 A 
HETATM   27  C   UNL     1      37.352  -9.884   2.604  1.00  0.00     0.002 A 
HETATM   28  C   UNL     1      38.306  -9.833   3.642  1.00  0.00     0.001 A 
HETATM   29  C   UNL     1      39.196 -10.890   3.849  1.00  0.00     0.016 A 
ENDBRANCH   2  18
TORSDOF 3
ENDMDL
MODEL 9
REMARK VINA RESULT:      -8.4      7.520     10.149
REMARK  3 active torsions:
REMARK  status: ('A' for Active; 'I' for Inactive)
REMARK    1  A    between atoms: C_3  and  C_4 
REMARK    2  A    between atoms: C_8  and  C_9 
REMARK       I    between atoms: C_9  and  N_10 
REMARK    3  A    between atoms: N_10  and  N_11 
ROOT
HETATM    1  C   UNL     1      41.185 -16.235   1.382  1.00  0.00     0.289 C 
HETATM    2  N   UNL     1      42.407 -16.198   2.034  1.00  0.00    -0.241 N 
HETATM    3  O   UNL     1      40.187 -16.803   1.819  1.00  0.00    -0.264 OA
HETATM    4  H   UNL     1      43.207 -15.732   1.610  1.00  0.00     0.192 HD
ENDROOT
BRANCH   1   5
HETATM    5  C   UNL     1      41.157 -15.551   0.113  1.00  0.00     0.121 A 
HETATM    6  N   UNL     1      41.076 -16.246  -1.060  1.00  0.00    -0.272 N 
HETATM    7  N   UNL     1      41.051 -15.475  -2.157  1.00  0.00    -0.174 NA
HETATM    8  H   UNL     1      41.030 -17.256  -1.163  1.00  0.00     0.189 HD
HETATM    9  C   UNL     1      41.148 -14.220  -1.690  1.00  0.00     0.091 A 
HETATM   10  C   UNL     1      41.189 -14.225  -0.267  1.00  0.00     0.071 A 
BRANCH   9  11
HETATM   11  C   UNL     1      41.144 -13.076  -2.604  1.00  0.00     0.016 A 
HETATM   12  C   UNL     1      42.367 -12.422  -2.849  1.00  0.00     0.015 A 
HETATM   13  C   UNL     1      42.445 -11.330  -3.716  1.00  0.00     0.001 A 
HETATM   14  C   UNL     1      41.298 -10.869  -4.354  1.00  0.00     0.002 A 
HETATM   15  C   UNL     1      40.075 -11.497  -4.116  1.00  0.00     0.025 A 
HETATM   16  C   UNL     1      39.992 -12.592  -3.244  1.00  0.00     0.046 A 
HETATM   17 CL   UNL     1      38.411 -13.248  -2.981  1.00  0.00    -0.083 Cl
ENDBRANCH   9  11
ENDBRANCH   1   5
BRANCH   2  18
HETATM   18  N   UNL     1      42.571 -16.829   3.237  1.00  0.00    -0.165 NA
HETATM   19  C   UNL     1      43.239 -17.938   3.223  1.00  0.00     0.157 A 
HETATM   20  C   UNL     1      43.882 -18.646   2.027  1.00  0.00     0.277 A 
HETATM   21  C   UNL     1      43.524 -18.774   4.382  1.00  0.00     0.027 A 
HETATM   22  O   UNL     1      43.854 -18.236   0.886  1.00  0.00    -0.266 OA
HETATM   23  N   UNL     1      44.460 -19.788   2.539  1.00  0.00    -0.321 N 
HETATM   24  C   UNL     1      44.253 -19.867   3.914  1.00  0.00     0.048 A 
HETATM   25  H   UNL     1      44.960 -20.460   1.975  1.00  0.00     0.169 HD
HETATM   26  C   UNL     1      44.680 -20.859   4.769  1.00  0.00     0.030 A 
HETATM   27  C   UNL     1      44.353 -20.724   6.126  1.00  0.00     0.002 A 
HETATM   28  C   UNL     1      43.614 -19.615   6.591  1.00  0.00     0.001 A 
HETATM   29  C   UNL     1      43.189 -18.618   5.711  1.00  0.00     0.016 A 
ENDBRANCH   2  18
TORSDOF 3
ENDMDL
MODEL 10
REMARK VINA RESULT:      -8.1      3.734      4.295
REMARK  3 active torsions:
REMARK  status: ('A' for Active; 'I' for Inactive)
REMARK    1  A    between atoms: C_3  and  C_4 
REMARK    2  A    between atoms: C_8  and  C_9 
REMARK       I    between atoms: C_9  and  N_10 
REMARK    3  A    between atoms: N_10  and  N_11 
ROOT
HETATM    1  C   UNL     1      40.992 -12.685   5.617  1.00  0.00     0.289 C 
HETATM    2  N   UNL     1      41.686 -13.875   5.764  1.00  0.00    -0.241 N 
HETATM    3  O   UNL     1      40.896 -12.069   4.558  1.00  0.00    -0.264 OA
HETATM    4  H   UNL     1      41.752 -14.328   6.675  1.00  0.00     0.192 HD
ENDROOT
BRANCH   1   5
HETATM    5  C   UNL     1      40.374 -12.193   6.823  1.00  0.00     0.121 A 
HETATM    6  N   UNL     1      39.281 -12.813   7.358  1.00  0.00    -0.272 N 
HETATM    7  N   UNL     1      38.822 -12.246   8.484  1.00  0.00    -0.174 NA
HETATM    8  H   UNL     1      38.813 -13.636   6.992  1.00  0.00     0.189 HD
HETATM    9  C   UNL     1      39.628 -11.191   8.684  1.00  0.00     0.091 A 
HETATM   10  C   UNL     1      40.633 -11.140   7.676  1.00  0.00     0.071 A 
BRANCH   9  11
HETATM   11  C   UNL     1      39.445 -10.314   9.843  1.00  0.00     0.016 A 
HETATM   12  C   UNL     1      38.302  -9.493   9.875  1.00  0.00     0.015 A 
HETATM   13  C   UNL     1      38.053  -8.638  10.951  1.00  0.00     0.001 A 
HETATM   14  C   UNL     1      38.947  -8.587  12.016  1.00  0.00     0.002 A 
HETATM   15  C   UNL     1      40.091  -9.385  11.998  1.00  0.00     0.025 A 
HETATM   16  C   UNL     1      40.346 -10.243  10.918  1.00  0.00     0.046 A 
HETATM   17 CL   UNL     1      41.827 -11.138  10.979  1.00  0.00    -0.083 Cl
ENDBRANCH   9  11
ENDBRANCH   1   5
BRANCH   2  18
HETATM   18  N   UNL     1      42.337 -14.435   4.699  1.00  0.00    -0.165 NA
HETATM   19  C   UNL     1      42.220 -15.716   4.557  1.00  0.00     0.157 A 
HETATM   20  C   UNL     1      41.438 -16.703   5.429  1.00  0.00     0.277 A 
HETATM   21  C   UNL     1      42.832 -16.514   3.503  1.00  0.00     0.027 A 
HETATM   22  O   UNL     1      40.790 -16.396   6.407  1.00  0.00    -0.266 OA
HETATM   23  N   UNL     1      41.642 -17.942   4.861  1.00  0.00    -0.321 N 
HETATM   24  C   UNL     1      42.456 -17.837   3.736  1.00  0.00     0.048 A 
HETATM   25  H   UNL     1      41.245 -18.795   5.229  1.00  0.00     0.169 HD
HETATM   26  C   UNL     1      42.878 -18.856   2.910  1.00  0.00     0.030 A 
HETATM   27  C   UNL     1      43.699 -18.508   1.828  1.00  0.00     0.002 A 
HETATM   28  C   UNL     1      44.075 -17.168   1.599  1.00  0.00     0.001 A 
HETATM   29  C   UNL     1      43.639 -16.147   2.446  1.00  0.00     0.016 A 
ENDBRANCH   2  18
TORSDOF 3
ENDMDL
