MODEL 1
REMARK VINA RESULT:      -8.5      0.000      0.000
REMARK  9 active torsions:
REMARK  status: ('A' for Active; 'I' for Inactive)
REMARK    1  A    between atoms: S_2  and  C_3 
REMARK    2  A    between atoms: C_3  and  C_4 
REMARK    3  A    between atoms: C_4  and  C_5 
REMARK    4  A    between atoms: C_5  and  N_6 
REMARK    5  A    between atoms: C_5  and  C_16 
REMARK       I    between atoms: N_6  and  C_7 
REMARK    6  A    between atoms: C_7  and  C_8 
REMARK       I    between atoms: C_16  and  N_17 
REMARK    7  A    between atoms: N_17  and  N_18 
REMARK       I    between atoms: N_18  and  C_19 
REMARK    8  A    between atoms: C_19  and  C_20 
REMARK    9  A    between atoms: C_23  and  O_24 
ROOT
HETATM    1  C   UNL     1      42.587 -16.166   3.036  1.00  0.00     0.179 C 
ENDROOT
BRANCH   1   2
HETATM    2  C   UNL     1      42.141 -15.348   4.259  1.00  0.00     0.045 C 
BRANCH   2   3
HETATM    3  C   UNL     1      42.098 -16.116   5.581  1.00  0.00     0.076 C 
BRANCH   3   4
HETATM    4  S   UNL     1      43.537 -15.761   6.641  1.00  0.00    -0.173 SA
HETATM    5  C   UNL     1      43.243 -17.004   7.923  1.00  0.00     0.089 C 
ENDBRANCH   3   4
ENDBRANCH   2   3
ENDBRANCH   1   2
BRANCH   1   6
HETATM    6  N   UNL     1      43.027 -17.533   3.340  1.00  0.00    -0.344 N 
HETATM    7  C   UNL     1      43.887 -18.279   2.575  1.00  0.00     0.254 C 
HETATM    8  O   UNL     1      44.398 -17.826   1.554  1.00  0.00    -0.268 OA
HETATM    9  H   UNL     1      42.682 -17.929   4.208  1.00  0.00     0.163 HD
BRANCH   7  10
HETATM   10  C   UNL     1      44.172 -19.683   2.991  1.00  0.00     0.053 A 
HETATM   11  C   UNL     1      44.668 -20.081   4.241  1.00  0.00     0.049 A 
HETATM   12 CL   UNL     1      45.084 -18.982   5.509  1.00  0.00    -0.083 Cl
HETATM   13  C   UNL     1      44.881 -21.441   4.509  1.00  0.00     0.025 A 
HETATM   14  C   UNL     1      44.613 -22.409   3.541  1.00  0.00     0.002 A 
HETATM   15  C   UNL     1      44.136 -22.023   2.293  1.00  0.00     0.001 A 
HETATM   16  C   UNL     1      43.920 -20.672   2.020  1.00  0.00     0.019 A 
ENDBRANCH   7  10
ENDBRANCH   1   6
BRANCH   1  17
HETATM   17  C   UNL     1      41.503 -16.099   1.939  1.00  0.00     0.259 C 
HETATM   18  N   UNL     1      41.958 -16.020   0.642  1.00  0.00    -0.265 N 
HETATM   19  H   UNL     1      42.953 -16.026   0.394  1.00  0.00     0.190 HD
HETATM   20  O   UNL     1      40.305 -16.254   2.192  1.00  0.00    -0.269 OA
BRANCH  18  21
HETATM   21  N   UNL     1      41.024 -16.055  -0.398  1.00  0.00    -0.263 N 
HETATM   22  C   UNL     1      40.976 -14.991  -1.277  1.00  0.00     0.270 C 
HETATM   23  O   UNL     1      41.767 -14.053  -1.238  1.00  0.00    -0.266 OA
HETATM   24  H   UNL     1      40.251 -16.703  -0.264  1.00  0.00     0.190 HD
BRANCH  22  25
HETATM   25  C   UNL     1      39.884 -15.016  -2.295  1.00  0.00     0.033 A 
HETATM   26  C   UNL     1      39.891 -15.895  -3.389  1.00  0.00     0.020 A 
HETATM   27  C   UNL     1      38.851 -15.863  -4.325  1.00  0.00     0.037 A 
HETATM   28  C   UNL     1      37.815 -14.948  -4.170  1.00  0.00     0.065 A 
HETATM   29  C   UNL     1      37.799 -14.066  -3.097  1.00  0.00     0.037 A 
HETATM   30  C   UNL     1      38.833 -14.097  -2.161  1.00  0.00     0.020 A 
BRANCH  28  31
HETATM   31  O   UNL     1      36.788 -14.880  -5.064  1.00  0.00    -0.361 OA
HETATM   32  H   UNL     1      36.641 -13.952  -5.305  1.00  0.00     0.217 HD
ENDBRANCH  28  31
ENDBRANCH  22  25
ENDBRANCH  18  21
ENDBRANCH   1  17
TORSDOF 9
ENDMDL
MODEL 2
REMARK VINA RESULT:      -7.6      3.293      8.302
REMARK  9 active torsions:
REMARK  status: ('A' for Active; 'I' for Inactive)
REMARK    1  A    between atoms: S_2  and  C_3 
REMARK    2  A    between atoms: C_3  and  C_4 
REMARK    3  A    between atoms: C_4  and  C_5 
REMARK    4  A    between atoms: C_5  and  N_6 
REMARK    5  A    between atoms: C_5  and  C_16 
REMARK       I    between atoms: N_6  and  C_7 
REMARK    6  A    between atoms: C_7  and  C_8 
REMARK       I    between atoms: C_16  and  N_17 
REMARK    7  A    between atoms: N_17  and  N_18 
REMARK       I    between atoms: N_18  and  C_19 
REMARK    8  A    between atoms: C_19  and  C_20 
REMARK    9  A    between atoms: C_23  and  O_24 
ROOT
HETATM    1  C   UNL     1      41.811 -13.902   2.934  1.00  0.00     0.179 C 
ENDROOT
BRANCH   1   2
HETATM    2  C   UNL     1      42.471 -13.003   3.993  1.00  0.00     0.045 C 
BRANCH   2   3
HETATM    3  C   UNL     1      41.506 -12.193   4.859  1.00  0.00     0.076 C 
BRANCH   3   4
HETATM    4  S   UNL     1      39.793 -12.809   4.758  1.00  0.00    -0.173 SA
HETATM    5  C   UNL     1      39.075 -11.457   3.793  1.00  0.00     0.089 C 
ENDBRANCH   3   4
ENDBRANCH   2   3
ENDBRANCH   1   2
BRANCH   1   6
HETATM    6  N   UNL     1      42.103 -13.526   1.544  1.00  0.00    -0.344 N 
HETATM    7  C   UNL     1      41.164 -13.220   0.592  1.00  0.00     0.254 C 
HETATM    8  O   UNL     1      39.965 -13.205   0.852  1.00  0.00    -0.268 OA
HETATM    9  H   UNL     1      43.084 -13.462   1.297  1.00  0.00     0.163 HD
BRANCH   7  10
HETATM   10  C   UNL     1      41.630 -12.932  -0.796  1.00  0.00     0.053 A 
HETATM   11  C   UNL     1      41.518 -13.798  -1.893  1.00  0.00     0.049 A 
HETATM   12 CL   UNL     1      40.855 -15.392  -1.800  1.00  0.00    -0.083 Cl
HETATM   13  C   UNL     1      41.988 -13.398  -3.153  1.00  0.00     0.025 A 
HETATM   14  C   UNL     1      42.575 -12.145  -3.329  1.00  0.00     0.002 A 
HETATM   15  C   UNL     1      42.703 -11.284  -2.244  1.00  0.00     0.001 A 
HETATM   16  C   UNL     1      42.237 -11.676  -0.988  1.00  0.00     0.019 A 
ENDBRANCH   7  10
ENDBRANCH   1   6
BRANCH   1  17
HETATM   17  C   UNL     1      42.110 -15.383   3.246  1.00  0.00     0.259 C 
HETATM   18  N   UNL     1      43.360 -15.838   2.889  1.00  0.00    -0.265 N 
HETATM   19  H   UNL     1      44.073 -15.239   2.460  1.00  0.00     0.190 HD
HETATM   20  O   UNL     1      41.336 -16.083   3.906  1.00  0.00    -0.269 OA
BRANCH  18  21
HETATM   21  N   UNL     1      43.721 -17.143   3.234  1.00  0.00    -0.263 N 
HETATM   22  C   UNL     1      43.782 -18.097   2.237  1.00  0.00     0.270 C 
HETATM   23  O   UNL     1      43.613 -17.836   1.049  1.00  0.00    -0.266 OA
HETATM   24  H   UNL     1      43.620 -17.374   4.220  1.00  0.00     0.190 HD
BRANCH  22  25
HETATM   25  C   UNL     1      44.051 -19.499   2.671  1.00  0.00     0.033 A 
HETATM   26  C   UNL     1      44.602 -19.809   3.923  1.00  0.00     0.020 A 
HETATM   27  C   UNL     1      44.854 -21.142   4.272  1.00  0.00     0.037 A 
HETATM   28  C   UNL     1      44.562 -22.156   3.365  1.00  0.00     0.065 A 
HETATM   29  C   UNL     1      44.025 -21.863   2.119  1.00  0.00     0.037 A 
HETATM   30  C   UNL     1      43.772 -20.536   1.769  1.00  0.00     0.020 A 
BRANCH  28  31
HETATM   31  O   UNL     1      44.799 -23.464   3.665  1.00  0.00    -0.361 OA
HETATM   32  H   UNL     1      44.575 -23.620   4.596  1.00  0.00     0.217 HD
ENDBRANCH  28  31
ENDBRANCH  22  25
ENDBRANCH  18  21
ENDBRANCH   1  17
TORSDOF 9
ENDMDL
MODEL 3
REMARK VINA RESULT:      -7.5      5.204      9.349
REMARK  9 active torsions:
REMARK  status: ('A' for Active; 'I' for Inactive)
REMARK    1  A    between atoms: S_2  and  C_3 
REMARK    2  A    between atoms: C_3  and  C_4 
REMARK    3  A    between atoms: C_4  and  C_5 
REMARK    4  A    between atoms: C_5  and  N_6 
REMARK    5  A    between atoms: C_5  and  C_16 
REMARK       I    between atoms: N_6  and  C_7 
REMARK    6  A    between atoms: C_7  and  C_8 
REMARK       I    between atoms: C_16  and  N_17 
REMARK    7  A    between atoms: N_17  and  N_18 
REMARK       I    between atoms: N_18  and  C_19 
REMARK    8  A    between atoms: C_19  and  C_20 
REMARK    9  A    between atoms: C_23  and  O_24 
ROOT
HETATM    1  C   UNL     1      41.709 -12.107   6.192  1.00  0.00     0.179 C 
ENDROOT
BRANCH   1   2
HETATM    2  C   UNL     1      40.203 -12.378   6.036  1.00  0.00     0.045 C 
BRANCH   2   3
HETATM    3  C   UNL     1      39.435 -11.350   5.206  1.00  0.00     0.076 C 
BRANCH   3   4
HETATM    4  S   UNL     1      39.969 -11.319   3.463  1.00  0.00    -0.173 SA
HETATM    5  C   UNL     1      39.657 -13.054   3.053  1.00  0.00     0.089 C 
ENDBRANCH   3   4
ENDBRANCH   2   3
ENDBRANCH   1   2
BRANCH   1   6
HETATM    6  N   UNL     1      42.139 -11.810   7.565  1.00  0.00    -0.344 N 
HETATM    7  C   UNL     1      42.315 -10.555   8.088  1.00  0.00     0.254 C 
HETATM    8  O   UNL     1      42.085  -9.545   7.428  1.00  0.00    -0.268 OA
HETATM    9  H   UNL     1      42.281 -12.612   8.170  1.00  0.00     0.163 HD
BRANCH   7  10
HETATM   10  C   UNL     1      42.829 -10.432   9.482  1.00  0.00     0.053 A 
HETATM   11  C   UNL     1      44.077 -10.883   9.937  1.00  0.00     0.049 A 
HETATM   12 CL   UNL     1      45.223 -11.714   8.945  1.00  0.00    -0.083 Cl
HETATM   13  C   UNL     1      44.445 -10.694  11.278  1.00  0.00     0.025 A 
HETATM   14  C   UNL     1      43.578 -10.067  12.172  1.00  0.00     0.002 A 
HETATM   15  C   UNL     1      42.332  -9.630  11.735  1.00  0.00     0.001 A 
HETATM   16  C   UNL     1      41.960  -9.813  10.403  1.00  0.00     0.019 A 
ENDBRANCH   7  10
ENDBRANCH   1   6
BRANCH   1  17
HETATM   17  C   UNL     1      42.516 -13.241   5.527  1.00  0.00     0.259 C 
HETATM   18  N   UNL     1      42.384 -14.491   6.090  1.00  0.00    -0.265 N 
HETATM   19  H   UNL     1      41.771 -14.684   6.889  1.00  0.00     0.190 HD
HETATM   20  O   UNL     1      43.131 -13.075   4.469  1.00  0.00    -0.269 OA
BRANCH  18  21
HETATM   21  N   UNL     1      43.014 -15.574   5.471  1.00  0.00    -0.263 N 
HETATM   22  C   UNL     1      42.240 -16.469   4.758  1.00  0.00     0.270 C 
HETATM   23  O   UNL     1      41.035 -16.315   4.575  1.00  0.00    -0.266 OA
HETATM   24  H   UNL     1      43.939 -15.800   5.830  1.00  0.00     0.190 HD
BRANCH  22  25
HETATM   25  C   UNL     1      42.938 -17.673   4.219  1.00  0.00     0.033 A 
HETATM   26  C   UNL     1      43.766 -18.483   5.011  1.00  0.00     0.020 A 
HETATM   27  C   UNL     1      44.414 -19.590   4.449  1.00  0.00     0.037 A 
HETATM   28  C   UNL     1      44.238 -19.877   3.100  1.00  0.00     0.065 A 
HETATM   29  C   UNL     1      43.428 -19.079   2.302  1.00  0.00     0.037 A 
HETATM   30  C   UNL     1      42.780 -17.976   2.859  1.00  0.00     0.020 A 
BRANCH  28  31
HETATM   31  O   UNL     1      44.857 -20.941   2.514  1.00  0.00    -0.361 OA
HETATM   32  H   UNL     1      45.711 -20.651   2.156  1.00  0.00     0.217 HD
ENDBRANCH  28  31
ENDBRANCH  22  25
ENDBRANCH  18  21
ENDBRANCH   1  17
TORSDOF 9
ENDMDL
MODEL 4
REMARK VINA RESULT:      -7.5      4.680      8.902
REMARK  9 active torsions:
REMARK  status: ('A' for Active; 'I' for Inactive)
REMARK    1  A    between atoms: S_2  and  C_3 
REMARK    2  A    between atoms: C_3  and  C_4 
REMARK    3  A    between atoms: C_4  and  C_5 
REMARK    4  A    between atoms: C_5  and  N_6 
REMARK    5  A    between atoms: C_5  and  C_16 
REMARK       I    between atoms: N_6  and  C_7 
REMARK    6  A    between atoms: C_7  and  C_8 
REMARK       I    between atoms: C_16  and  N_17 
REMARK    7  A    between atoms: N_17  and  N_18 
REMARK       I    between atoms: N_18  and  C_19 
REMARK    8  A    between atoms: C_19  and  C_20 
REMARK    9  A    between atoms: C_23  and  O_24 
ROOT
HETATM    1  C   UNL     1      42.285 -14.659   3.609  1.00  0.00     0.179 C 
ENDROOT
BRANCH   1   2
HETATM    2  C   UNL     1      42.784 -13.816   2.424  1.00  0.00     0.045 C 
BRANCH   2   3
HETATM    3  C   UNL     1      41.722 -13.448   1.388  1.00  0.00     0.076 C 
BRANCH   3   4
HETATM    4  S   UNL     1      40.468 -14.755   1.179  1.00  0.00    -0.173 SA
HETATM    5  C   UNL     1      41.419 -15.878   0.126  1.00  0.00     0.089 C 
ENDBRANCH   3   4
ENDBRANCH   2   3
ENDBRANCH   1   2
BRANCH   1   6
HETATM    6  N   UNL     1      43.012 -15.919   3.814  1.00  0.00    -0.344 N 
HETATM    7  C   UNL     1      42.470 -17.174   3.708  1.00  0.00     0.254 C 
HETATM    8  O   UNL     1      41.297 -17.343   3.388  1.00  0.00    -0.268 OA
HETATM    9  H   UNL     1      44.002 -15.834   4.018  1.00  0.00     0.163 HD
BRANCH   7  10
HETATM   10  C   UNL     1      43.334 -18.349   4.022  1.00  0.00     0.053 A 
HETATM   11  C   UNL     1      43.761 -18.732   5.302  1.00  0.00     0.049 A 
HETATM   12 CL   UNL     1      43.388 -17.855   6.745  1.00  0.00    -0.083 Cl
HETATM   13  C   UNL     1      44.565 -19.870   5.462  1.00  0.00     0.025 A 
HETATM   14  C   UNL     1      44.954 -20.627   4.358  1.00  0.00     0.002 A 
HETATM   15  C   UNL     1      44.549 -20.248   3.083  1.00  0.00     0.001 A 
HETATM   16  C   UNL     1      43.748 -19.117   2.916  1.00  0.00     0.019 A 
ENDBRANCH   7  10
ENDBRANCH   1   6
BRANCH   1  17
HETATM   17  C   UNL     1      42.205 -13.783   4.877  1.00  0.00     0.259 C 
HETATM   18  N   UNL     1      43.221 -13.945   5.792  1.00  0.00    -0.265 N 
HETATM   19  H   UNL     1      44.007 -14.588   5.649  1.00  0.00     0.190 HD
HETATM   20  O   UNL     1      41.364 -12.887   5.002  1.00  0.00    -0.269 OA
BRANCH  18  21
HETATM   21  N   UNL     1      43.252 -13.110   6.912  1.00  0.00    -0.263 N 
HETATM   22  C   UNL     1      44.438 -12.989   7.611  1.00  0.00     0.270 C 
HETATM   23  O   UNL     1      45.486 -13.517   7.250  1.00  0.00    -0.266 OA
HETATM   24  H   UNL     1      42.344 -12.888   7.313  1.00  0.00     0.190 HD
BRANCH  22  25
HETATM   25  C   UNL     1      44.391 -12.185   8.867  1.00  0.00     0.033 A 
HETATM   26  C   UNL     1      45.412 -12.228   9.829  1.00  0.00     0.020 A 
HETATM   27  C   UNL     1      45.309 -11.468  11.001  1.00  0.00     0.037 A 
HETATM   28  C   UNL     1      44.184 -10.677  11.209  1.00  0.00     0.065 A 
HETATM   29  C   UNL     1      43.161 -10.631  10.270  1.00  0.00     0.037 A 
HETATM   30  C   UNL     1      43.262 -11.386   9.101  1.00  0.00     0.020 A 
BRANCH  28  31
HETATM   31  O   UNL     1      44.042  -9.928  12.340  1.00  0.00    -0.361 OA
HETATM   32  H   UNL     1      44.920  -9.762  12.719  1.00  0.00     0.217 HD
ENDBRANCH  28  31
ENDBRANCH  22  25
ENDBRANCH  18  21
ENDBRANCH   1  17
TORSDOF 9
ENDMDL
MODEL 5
REMARK VINA RESULT:      -7.4      3.089      8.372
REMARK  9 active torsions:
REMARK  status: ('A' for Active; 'I' for Inactive)
REMARK    1  A    between atoms: S_2  and  C_3 
REMARK    2  A    between atoms: C_3  and  C_4 
REMARK    3  A    between atoms: C_4  and  C_5 
REMARK    4  A    between atoms: C_5  and  N_6 
REMARK    5  A    between atoms: C_5  and  C_16 
REMARK       I    between atoms: N_6  and  C_7 
REMARK    6  A    between atoms: C_7  and  C_8 
REMARK       I    between atoms: C_16  and  N_17 
REMARK    7  A    between atoms: N_17  and  N_18 
REMARK       I    between atoms: N_18  and  C_19 
REMARK    8  A    between atoms: C_19  and  C_20 
REMARK    9  A    between atoms: C_23  and  O_24 
ROOT
HETATM    1  C   UNL     1      40.474 -14.349   2.002  1.00  0.00     0.179 C 
ENDROOT
BRANCH   1   2
HETATM    2  C   UNL     1      40.865 -13.744   3.361  1.00  0.00     0.045 C 
BRANCH   2   3
HETATM    3  C   UNL     1      40.194 -14.381   4.578  1.00  0.00     0.076 C 
BRANCH   3   4
HETATM    4  S   UNL     1      41.400 -15.027   5.782  1.00  0.00    -0.173 SA
HETATM    5  C   UNL     1      40.782 -16.723   5.903  1.00  0.00     0.089 C 
ENDBRANCH   3   4
ENDBRANCH   2   3
ENDBRANCH   1   2
BRANCH   1   6
HETATM    6  N   UNL     1      41.002 -13.628   0.836  1.00  0.00    -0.344 N 
HETATM    7  C   UNL     1      40.382 -13.530  -0.384  1.00  0.00     0.254 C 
HETATM    8  O   UNL     1      39.280 -14.030  -0.587  1.00  0.00    -0.268 OA
HETATM    9  H   UNL     1      41.882 -13.143   0.973  1.00  0.00     0.163 HD
BRANCH   7  10
HETATM   10  C   UNL     1      41.094 -12.821  -1.486  1.00  0.00     0.053 A 
HETATM   11  C   UNL     1      41.489 -13.391  -2.705  1.00  0.00     0.049 A 
HETATM   12 CL   UNL     1      41.255 -15.055  -3.112  1.00  0.00    -0.083 Cl
HETATM   13  C   UNL     1      42.144 -12.606  -3.666  1.00  0.00     0.025 A 
HETATM   14  C   UNL     1      42.415 -11.260  -3.422  1.00  0.00     0.002 A 
HETATM   15  C   UNL     1      42.040 -10.689  -2.210  1.00  0.00     0.001 A 
HETATM   16  C   UNL     1      41.388 -11.464  -1.250  1.00  0.00     0.019 A 
ENDBRANCH   7  10
ENDBRANCH   1   6
BRANCH   1  17
HETATM   17  C   UNL     1      40.796 -15.858   1.989  1.00  0.00     0.259 C 
HETATM   18  N   UNL     1      42.123 -16.197   2.134  1.00  0.00    -0.265 N 
HETATM   19  H   UNL     1      42.867 -15.504   2.268  1.00  0.00     0.190 HD
HETATM   20  O   UNL     1      39.909 -16.718   1.995  1.00  0.00    -0.269 OA
BRANCH  18  21
HETATM   21  N   UNL     1      42.462 -17.549   2.228  1.00  0.00    -0.263 N 
HETATM   22  C   UNL     1      43.351 -17.939   3.210  1.00  0.00     0.270 C 
HETATM   23  O   UNL     1      43.796 -17.168   4.056  1.00  0.00    -0.266 OA
HETATM   24  H   UNL     1      42.276 -18.101   1.393  1.00  0.00     0.190 HD
BRANCH  22  25
HETATM   25  C   UNL     1      43.777 -19.370   3.194  1.00  0.00     0.033 A 
HETATM   26  C   UNL     1      43.543 -20.215   2.098  1.00  0.00     0.020 A 
HETATM   27  C   UNL     1      43.946 -21.555   2.143  1.00  0.00     0.037 A 
HETATM   28  C   UNL     1      44.571 -22.046   3.284  1.00  0.00     0.065 A 
HETATM   29  C   UNL     1      44.802 -21.224   4.380  1.00  0.00     0.037 A 
HETATM   30  C   UNL     1      44.403 -19.887   4.337  1.00  0.00     0.020 A 
BRANCH  28  31
HETATM   31  O   UNL     1      44.971 -23.346   3.370  1.00  0.00    -0.361 OA
HETATM   32  H   UNL     1      44.423 -23.802   4.029  1.00  0.00     0.217 HD
ENDBRANCH  28  31
ENDBRANCH  22  25
ENDBRANCH  18  21
ENDBRANCH   1  17
TORSDOF 9
ENDMDL
MODEL 6
REMARK VINA RESULT:      -7.3      2.924      8.090
REMARK  9 active torsions:
REMARK  status: ('A' for Active; 'I' for Inactive)
REMARK    1  A    between atoms: S_2  and  C_3 
REMARK    2  A    between atoms: C_3  and  C_4 
REMARK    3  A    between atoms: C_4  and  C_5 
REMARK    4  A    between atoms: C_5  and  N_6 
REMARK    5  A    between atoms: C_5  and  C_16 
REMARK       I    between atoms: N_6  and  C_7 
REMARK    6  A    between atoms: C_7  and  C_8 
REMARK       I    between atoms: C_16  and  N_17 
REMARK    7  A    between atoms: N_17  and  N_18 
REMARK       I    between atoms: N_18  and  C_19 
REMARK    8  A    between atoms: C_19  and  C_20 
REMARK    9  A    between atoms: C_23  and  O_24 
ROOT
HETATM    1  C   UNL     1      41.153 -14.166   3.443  1.00  0.00     0.179 C 
ENDROOT
BRANCH   1   2
HETATM    2  C   UNL     1      42.215 -13.231   4.046  1.00  0.00     0.045 C 
BRANCH   2   3
HETATM    3  C   UNL     1      42.240 -13.167   5.573  1.00  0.00     0.076 C 
BRANCH   3   4
HETATM    4  S   UNL     1      41.329 -11.731   6.227  1.00  0.00    -0.173 SA
HETATM    5  C   UNL     1      39.713 -12.514   6.452  1.00  0.00     0.089 C 
ENDBRANCH   3   4
ENDBRANCH   2   3
ENDBRANCH   1   2
BRANCH   1   6
HETATM    6  N   UNL     1      40.786 -13.862   2.054  1.00  0.00    -0.344 N 
HETATM    7  C   UNL     1      39.657 -14.307   1.415  1.00  0.00     0.254 C 
HETATM    8  O   UNL     1      38.818 -14.992   1.994  1.00  0.00    -0.268 OA
HETATM    9  H   UNL     1      41.416 -13.246   1.552  1.00  0.00     0.163 HD
BRANCH   7  10
HETATM   10  C   UNL     1      39.475 -13.965  -0.025  1.00  0.00     0.053 A 
HETATM   11  C   UNL     1      40.111 -14.597  -1.103  1.00  0.00     0.049 A 
HETATM   12 CL   UNL     1      41.270 -15.868  -0.928  1.00  0.00    -0.083 Cl
HETATM   13  C   UNL     1      39.841 -14.185  -2.416  1.00  0.00     0.025 A 
HETATM   14  C   UNL     1      38.948 -13.143  -2.666  1.00  0.00     0.002 A 
HETATM   15  C   UNL     1      38.323 -12.499  -1.603  1.00  0.00     0.001 A 
HETATM   16  C   UNL     1      38.586 -12.905  -0.294  1.00  0.00     0.019 A 
ENDBRANCH   7  10
ENDBRANCH   1   6
BRANCH   1  17
HETATM   17  C   UNL     1      41.565 -15.637   3.662  1.00  0.00     0.259 C 
HETATM   18  N   UNL     1      42.773 -16.015   3.120  1.00  0.00    -0.265 N 
HETATM   19  H   UNL     1      43.389 -15.368   2.616  1.00  0.00     0.190 HD
HETATM   20  O   UNL     1      40.927 -16.393   4.401  1.00  0.00    -0.269 OA
BRANCH  18  21
HETATM   21  N   UNL     1      43.243 -17.307   3.369  1.00  0.00    -0.263 N 
HETATM   22  C   UNL     1      43.488 -18.139   2.294  1.00  0.00     0.270 C 
HETATM   23  O   UNL     1      43.389 -17.772   1.126  1.00  0.00    -0.266 OA
HETATM   24  H   UNL     1      43.088 -17.650   4.315  1.00  0.00     0.190 HD
BRANCH  22  25
HETATM   25  C   UNL     1      43.871 -19.546   2.613  1.00  0.00     0.033 A 
HETATM   26  C   UNL     1      43.641 -20.610   1.728  1.00  0.00     0.020 A 
HETATM   27  C   UNL     1      44.002 -21.915   2.086  1.00  0.00     0.037 A 
HETATM   28  C   UNL     1      44.581 -22.151   3.329  1.00  0.00     0.065 A 
HETATM   29  C   UNL     1      44.806 -21.109   4.219  1.00  0.00     0.037 A 
HETATM   30  C   UNL     1      44.449 -19.807   3.864  1.00  0.00     0.020 A 
BRANCH  28  31
HETATM   31  O   UNL     1      44.939 -23.407   3.717  1.00  0.00    -0.361 OA
HETATM   32  H   UNL     1      44.799 -24.018   2.976  1.00  0.00     0.217 HD
ENDBRANCH  28  31
ENDBRANCH  22  25
ENDBRANCH  18  21
ENDBRANCH   1  17
TORSDOF 9
ENDMDL
MODEL 7
REMARK VINA RESULT:      -7.3      5.234      9.311
REMARK  9 active torsions:
REMARK  status: ('A' for Active; 'I' for Inactive)
REMARK    1  A    between atoms: S_2  and  C_3 
REMARK    2  A    between atoms: C_3  and  C_4 
REMARK    3  A    between atoms: C_4  and  C_5 
REMARK    4  A    between atoms: C_5  and  N_6 
REMARK    5  A    between atoms: C_5  and  C_16 
REMARK       I    between atoms: N_6  and  C_7 
REMARK    6  A    between atoms: C_7  and  C_8 
REMARK       I    between atoms: C_16  and  N_17 
REMARK    7  A    between atoms: N_17  and  N_18 
REMARK       I    between atoms: N_18  and  C_19 
REMARK    8  A    between atoms: C_19  and  C_20 
REMARK    9  A    between atoms: C_23  and  O_24 
ROOT
HETATM    1  C   UNL     1      41.705 -12.319   5.942  1.00  0.00     0.179 C 
ENDROOT
BRANCH   1   2
HETATM    2  C   UNL     1      40.197 -12.584   5.797  1.00  0.00     0.045 C 
BRANCH   2   3
HETATM    3  C   UNL     1      39.405 -11.489   5.081  1.00  0.00     0.076 C 
BRANCH   3   4
HETATM    4  S   UNL     1      39.733 -11.448   3.289  1.00  0.00    -0.173 SA
HETATM    5  C   UNL     1      39.598 -13.220   2.947  1.00  0.00     0.089 C 
ENDBRANCH   3   4
ENDBRANCH   2   3
ENDBRANCH   1   2
BRANCH   1   6
HETATM    6  N   UNL     1      42.148 -12.030   7.313  1.00  0.00    -0.344 N 
HETATM    7  C   UNL     1      42.249 -10.780   7.868  1.00  0.00     0.254 C 
HETATM    8  O   UNL     1      41.933  -9.772   7.243  1.00  0.00    -0.268 OA
HETATM    9  H   UNL     1      42.360 -12.836   7.890  1.00  0.00     0.163 HD
BRANCH   7  10
HETATM   10  C   UNL     1      42.789 -10.660   9.253  1.00  0.00     0.053 A 
HETATM   11  C   UNL     1      42.050 -10.308  10.392  1.00  0.00     0.049 A 
HETATM   12 CL   UNL     1      40.370  -9.899  10.363  1.00  0.00    -0.083 Cl
HETATM   13  C   UNL     1      42.680 -10.243  11.643  1.00  0.00     0.025 A 
HETATM   14  C   UNL     1      44.041 -10.519  11.771  1.00  0.00     0.002 A 
HETATM   15  C   UNL     1      44.786 -10.854  10.646  1.00  0.00     0.001 A 
HETATM   16  C   UNL     1      44.166 -10.922   9.397  1.00  0.00     0.019 A 
ENDBRANCH   7  10
ENDBRANCH   1   6
BRANCH   1  17
HETATM   17  C   UNL     1      42.503 -13.452   5.264  1.00  0.00     0.259 C 
HETATM   18  N   UNL     1      42.046 -14.732   5.485  1.00  0.00    -0.265 N 
HETATM   19  H   UNL     1      41.213 -14.941   6.045  1.00  0.00     0.190 HD
HETATM   20  O   UNL     1      43.408 -13.223   4.455  1.00  0.00    -0.269 OA
BRANCH  18  21
HETATM   21  N   UNL     1      42.670 -15.790   4.819  1.00  0.00    -0.263 N 
HETATM   22  C   UNL     1      42.074 -17.036   4.856  1.00  0.00     0.270 C 
HETATM   23  O   UNL     1      40.982 -17.241   5.379  1.00  0.00    -0.266 OA
HETATM   24  H   UNL     1      43.657 -15.650   4.611  1.00  0.00     0.190 HD
BRANCH  22  25
HETATM   25  C   UNL     1      42.837 -18.158   4.235  1.00  0.00     0.033 A 
HETATM   26  C   UNL     1      43.724 -18.963   4.966  1.00  0.00     0.020 A 
HETATM   27  C   UNL     1      44.430 -19.991   4.330  1.00  0.00     0.037 A 
HETATM   28  C   UNL     1      44.255 -20.203   2.966  1.00  0.00     0.065 A 
HETATM   29  C   UNL     1      43.388 -19.408   2.228  1.00  0.00     0.037 A 
HETATM   30  C   UNL     1      42.681 -18.384   2.860  1.00  0.00     0.020 A 
BRANCH  28  31
HETATM   31  O   UNL     1      44.930 -21.188   2.309  1.00  0.00    -0.361 OA
HETATM   32  H   UNL     1      45.324 -20.816   1.503  1.00  0.00     0.217 HD
ENDBRANCH  28  31
ENDBRANCH  22  25
ENDBRANCH  18  21
ENDBRANCH   1  17
TORSDOF 9
ENDMDL
MODEL 8
REMARK VINA RESULT:      -7.3      1.953      2.502
REMARK  9 active torsions:
REMARK  status: ('A' for Active; 'I' for Inactive)
REMARK    1  A    between atoms: S_2  and  C_3 
REMARK    2  A    between atoms: C_3  and  C_4 
REMARK    3  A    between atoms: C_4  and  C_5 
REMARK    4  A    between atoms: C_5  and  N_6 
REMARK    5  A    between atoms: C_5  and  C_16 
REMARK       I    between atoms: N_6  and  C_7 
REMARK    6  A    between atoms: C_7  and  C_8 
REMARK       I    between atoms: C_16  and  N_17 
REMARK    7  A    between atoms: N_17  and  N_18 
REMARK       I    between atoms: N_18  and  C_19 
REMARK    8  A    between atoms: C_19  and  C_20 
REMARK    9  A    between atoms: C_23  and  O_24 
ROOT
HETATM    1  C   UNL     1      42.234 -15.054   3.505  1.00  0.00     0.179 C 
ENDROOT
BRANCH   1   2
HETATM    2  C   UNL     1      41.555 -14.467   4.753  1.00  0.00     0.045 C 
BRANCH   2   3
HETATM    3  C   UNL     1      42.097 -13.115   5.218  1.00  0.00     0.076 C 
BRANCH   3   4
HETATM    4  S   UNL     1      40.843 -11.795   5.137  1.00  0.00    -0.173 SA
HETATM    5  C   UNL     1      41.430 -10.777   6.513  1.00  0.00     0.089 C 
ENDBRANCH   3   4
ENDBRANCH   2   3
ENDBRANCH   1   2
BRANCH   1   6
HETATM    6  N   UNL     1      42.920 -16.334   3.726  1.00  0.00    -0.344 N 
HETATM    7  C   UNL     1      42.322 -17.492   4.154  1.00  0.00     0.254 C 
HETATM    8  O   UNL     1      41.114 -17.554   4.360  1.00  0.00    -0.268 OA
HETATM    9  H   UNL     1      43.910 -16.351   3.508  1.00  0.00     0.163 HD
BRANCH   7  10
HETATM   10  C   UNL     1      43.182 -18.686   4.399  1.00  0.00     0.053 A 
HETATM   11  C   UNL     1      43.820 -19.452   3.412  1.00  0.00     0.049 A 
HETATM   12 CL   UNL     1      43.667 -19.159   1.715  1.00  0.00    -0.083 Cl
HETATM   13  C   UNL     1      44.614 -20.548   3.780  1.00  0.00     0.025 A 
HETATM   14  C   UNL     1      44.773 -20.894   5.122  1.00  0.00     0.002 A 
HETATM   15  C   UNL     1      44.133 -20.150   6.107  1.00  0.00     0.001 A 
HETATM   16  C   UNL     1      43.342 -19.057   5.748  1.00  0.00     0.019 A 
ENDBRANCH   7  10
ENDBRANCH   1   6
BRANCH   1  17
HETATM   17  C   UNL     1      41.232 -15.089   2.332  1.00  0.00     0.259 C 
HETATM   18  N   UNL     1      41.733 -15.503   1.118  1.00  0.00    -0.265 N 
HETATM   19  H   UNL     1      42.706 -15.797   0.984  1.00  0.00     0.190 HD
HETATM   20  O   UNL     1      40.023 -14.899   2.497  1.00  0.00    -0.269 OA
BRANCH  18  21
HETATM   21  N   UNL     1      40.850 -15.647   0.044  1.00  0.00    -0.263 N 
HETATM   22  C   UNL     1      40.988 -14.803  -1.041  1.00  0.00     0.270 C 
HETATM   23  O   UNL     1      41.898 -13.985  -1.142  1.00  0.00    -0.266 OA
HETATM   24  H   UNL     1      39.990 -16.149   0.255  1.00  0.00     0.190 HD
BRANCH  22  25
HETATM   25  C   UNL     1      39.949 -14.913  -2.107  1.00  0.00     0.033 A 
HETATM   26  C   UNL     1      40.083 -15.777  -3.204  1.00  0.00     0.020 A 
HETATM   27  C   UNL     1      39.087 -15.826  -4.188  1.00  0.00     0.037 A 
HETATM   28  C   UNL     1      37.969 -15.006  -4.074  1.00  0.00     0.065 A 
HETATM   29  C   UNL     1      37.828 -14.139  -2.998  1.00  0.00     0.037 A 
HETATM   30  C   UNL     1      38.818 -14.089  -2.016  1.00  0.00     0.020 A 
BRANCH  28  31
HETATM   31  O   UNL     1      36.982 -15.019  -5.014  1.00  0.00    -0.361 OA
HETATM   32  H   UNL     1      36.207 -15.477  -4.651  1.00  0.00     0.217 HD
ENDBRANCH  28  31
ENDBRANCH  22  25
ENDBRANCH  18  21
ENDBRANCH   1  17
TORSDOF 9
ENDMDL
MODEL 9
REMARK VINA RESULT:      -7.0      5.592     10.145
REMARK  9 active torsions:
REMARK  status: ('A' for Active; 'I' for Inactive)
REMARK    1  A    between atoms: S_2  and  C_3 
REMARK    2  A    between atoms: C_3  and  C_4 
REMARK    3  A    between atoms: C_4  and  C_5 
REMARK    4  A    between atoms: C_5  and  N_6 
REMARK    5  A    between atoms: C_5  and  C_16 
REMARK       I    between atoms: N_6  and  C_7 
REMARK    6  A    between atoms: C_7  and  C_8 
REMARK       I    between atoms: C_16  and  N_17 
REMARK    7  A    between atoms: N_17  and  N_18 
REMARK       I    between atoms: N_18  and  C_19 
REMARK    8  A    between atoms: C_19  and  C_20 
REMARK    9  A    between atoms: C_23  and  O_24 
ROOT
HETATM    1  C   UNL     1      41.967 -12.461   6.089  1.00  0.00     0.179 C 
ENDROOT
BRANCH   1   2
HETATM    2  C   UNL     1      40.453 -12.464   5.821  1.00  0.00     0.045 C 
BRANCH   2   3
HETATM    3  C   UNL     1      40.047 -12.400   4.349  1.00  0.00     0.076 C 
BRANCH   3   4
HETATM    4  S   UNL     1      38.686 -11.225   4.050  1.00  0.00    -0.173 SA
HETATM    5  C   UNL     1      38.854 -11.065   2.255  1.00  0.00     0.089 C 
ENDBRANCH   3   4
ENDBRANCH   2   3
ENDBRANCH   1   2
BRANCH   1   6
HETATM    6  N   UNL     1      42.347 -12.081   7.456  1.00  0.00    -0.344 N 
HETATM    7  C   UNL     1      42.341 -10.804   7.956  1.00  0.00     0.254 C 
HETATM    8  O   UNL     1      41.971  -9.850   7.278  1.00  0.00    -0.268 OA
HETATM    9  H   UNL     1      42.601 -12.843   8.075  1.00  0.00     0.163 HD
BRANCH   7  10
HETATM   10  C   UNL     1      42.830 -10.584   9.347  1.00  0.00     0.053 A 
HETATM   11  C   UNL     1      42.096  -9.999  10.390  1.00  0.00     0.049 A 
HETATM   12 CL   UNL     1      40.492  -9.381  10.211  1.00  0.00    -0.083 Cl
HETATM   13  C   UNL     1      42.673  -9.862  11.661  1.00  0.00     0.025 A 
HETATM   14  C   UNL     1      43.976 -10.295  11.903  1.00  0.00     0.002 A 
HETATM   15  C   UNL     1      44.717 -10.862  10.873  1.00  0.00     0.001 A 
HETATM   16  C   UNL     1      44.150 -11.003   9.605  1.00  0.00     0.019 A 
ENDBRANCH   7  10
ENDBRANCH   1   6
BRANCH   1  17
HETATM   17  C   UNL     1      42.582 -13.800   5.630  1.00  0.00     0.259 C 
HETATM   18  N   UNL     1      42.069 -14.936   6.215  1.00  0.00    -0.265 N 
HETATM   19  H   UNL     1      41.306 -14.918   6.900  1.00  0.00     0.190 HD
HETATM   20  O   UNL     1      43.382 -13.866   4.691  1.00  0.00    -0.269 OA
BRANCH  18  21
HETATM   21  N   UNL     1      42.518 -16.181   5.767  1.00  0.00    -0.263 N 
HETATM   22  C   UNL     1      42.996 -17.083   6.698  1.00  0.00     0.270 C 
HETATM   23  O   UNL     1      42.969 -16.875   7.908  1.00  0.00    -0.266 OA
HETATM   24  H   UNL     1      42.747 -16.228   4.777  1.00  0.00     0.190 HD
BRANCH  22  25
HETATM   25  C   UNL     1      43.577 -18.349   6.162  1.00  0.00     0.033 A 
HETATM   26  C   UNL     1      44.115 -18.444   4.869  1.00  0.00     0.020 A 
HETATM   27  C   UNL     1      44.630 -19.662   4.409  1.00  0.00     0.037 A 
HETATM   28  C   UNL     1      44.597 -20.779   5.238  1.00  0.00     0.065 A 
HETATM   29  C   UNL     1      44.060 -20.702   6.516  1.00  0.00     0.037 A 
HETATM   30  C   UNL     1      43.547 -19.489   6.978  1.00  0.00     0.020 A 
BRANCH  28  31
HETATM   31  O   UNL     1      45.081 -21.984   4.824  1.00  0.00    -0.361 OA
HETATM   32  H   UNL     1      45.729 -22.303   5.473  1.00  0.00     0.217 HD
ENDBRANCH  28  31
ENDBRANCH  22  25
ENDBRANCH  18  21
ENDBRANCH   1  17
TORSDOF 9
ENDMDL
MODEL 10
REMARK VINA RESULT:      -7.0      1.797      2.058
REMARK  9 active torsions:
REMARK  status: ('A' for Active; 'I' for Inactive)
REMARK    1  A    between atoms: S_2  and  C_3 
REMARK    2  A    between atoms: C_3  and  C_4 
REMARK    3  A    between atoms: C_4  and  C_5 
REMARK    4  A    between atoms: C_5  and  N_6 
REMARK    5  A    between atoms: C_5  and  C_16 
REMARK       I    between atoms: N_6  and  C_7 
REMARK    6  A    between atoms: C_7  and  C_8 
REMARK       I    between atoms: C_16  and  N_17 
REMARK    7  A    between atoms: N_17  and  N_18 
REMARK       I    between atoms: N_18  and  C_19 
REMARK    8  A    between atoms: C_19  and  C_20 
REMARK    9  A    between atoms: C_23  and  O_24 
ROOT
HETATM    1  C   UNL     1      41.936 -16.812   3.095  1.00  0.00     0.179 C 
ENDROOT
BRANCH   1   2
HETATM    2  C   UNL     1      41.080 -16.381   4.296  1.00  0.00     0.045 C 
BRANCH   2   3
HETATM    3  C   UNL     1      41.726 -15.355   5.227  1.00  0.00     0.076 C 
BRANCH   3   4
HETATM    4  S   UNL     1      43.110 -14.469   4.437  1.00  0.00    -0.173 SA
HETATM    5  C   UNL     1      42.221 -12.980   3.922  1.00  0.00     0.089 C 
ENDBRANCH   3   4
ENDBRANCH   2   3
ENDBRANCH   1   2
BRANCH   1   6
HETATM    6  N   UNL     1      42.441 -18.190   3.165  1.00  0.00    -0.344 N 
HETATM    7  C   UNL     1      43.627 -18.572   3.740  1.00  0.00     0.254 C 
HETATM    8  O   UNL     1      44.367 -17.761   4.288  1.00  0.00    -0.268 OA
HETATM    9  H   UNL     1      41.835 -18.907   2.782  1.00  0.00     0.163 HD
BRANCH   7  10
HETATM   10  C   UNL     1      44.024 -20.007   3.658  1.00  0.00     0.053 A 
HETATM   11  C   UNL     1      44.298 -20.844   4.750  1.00  0.00     0.049 A 
HETATM   12 CL   UNL     1      44.267 -20.321   6.398  1.00  0.00    -0.083 Cl
HETATM   13  C   UNL     1      44.652 -22.185   4.534  1.00  0.00     0.025 A 
HETATM   14  C   UNL     1      44.742 -22.698   3.241  1.00  0.00     0.002 A 
HETATM   15  C   UNL     1      44.487 -21.873   2.151  1.00  0.00     0.001 A 
HETATM   16  C   UNL     1      44.134 -20.539   2.358  1.00  0.00     0.019 A 
ENDBRANCH   7  10
ENDBRANCH   1   6
BRANCH   1  17
HETATM   17  C   UNL     1      41.191 -16.498   1.781  1.00  0.00     0.259 C 
HETATM   18  N   UNL     1      40.484 -15.317   1.752  1.00  0.00    -0.265 N 
HETATM   19  H   UNL     1      40.460 -14.658   2.537  1.00  0.00     0.190 HD
HETATM   20  O   UNL     1      41.334 -17.187   0.766  1.00  0.00    -0.269 OA
BRANCH  18  21
HETATM   21  N   UNL     1      39.870 -14.933   0.556  1.00  0.00    -0.263 N 
HETATM   22  C   UNL     1      40.480 -13.965  -0.217  1.00  0.00     0.270 C 
HETATM   23  O   UNL     1      41.576 -13.482   0.055  1.00  0.00    -0.266 OA
HETATM   24  H   UNL     1      38.882 -15.164   0.483  1.00  0.00     0.190 HD
BRANCH  22  25
HETATM   25  C   UNL     1      39.728 -13.501  -1.420  1.00  0.00     0.033 A 
HETATM   26  C   UNL     1      40.320 -12.720  -2.425  1.00  0.00     0.020 A 
HETATM   27  C   UNL     1      39.562 -12.295  -3.523  1.00  0.00     0.037 A 
HETATM   28  C   UNL     1      38.218 -12.642  -3.607  1.00  0.00     0.065 A 
HETATM   29  C   UNL     1      37.617 -13.406  -2.615  1.00  0.00     0.037 A 
HETATM   30  C   UNL     1      38.369 -13.833  -1.520  1.00  0.00     0.020 A 
BRANCH  28  31
HETATM   31  O   UNL     1      37.445 -12.241  -4.656  1.00  0.00    -0.361 OA
HETATM   32  H   UNL     1      37.108 -11.349  -4.475  1.00  0.00     0.217 HD
ENDBRANCH  28  31
ENDBRANCH  22  25
ENDBRANCH  18  21
ENDBRANCH   1  17
TORSDOF 9
ENDMDL
