MODEL 1
REMARK VINA RESULT:      -8.3      0.000      0.000
REMARK  8 active torsions:
REMARK  status: ('A' for Active; 'I' for Inactive)
REMARK    1  A    between atoms: C_9  and  S_10 
REMARK    2  A    between atoms: S_10  and  C_11 
REMARK    3  A    between atoms: C_11  and  C_12 
REMARK       I    between atoms: C_12  and  N_13 
REMARK    4  A    between atoms: N_13  and  C_14 
REMARK    5  A    between atoms: C_15  and  O_16 
REMARK    6  A    between atoms: C_19  and  O_20 
REMARK    7  A    between atoms: N_25  and  C_26 
REMARK    8  A    between atoms: C_33  and  N_34 
ROOT
HETATM    1  C   UNL     1      43.615 -20.765   7.715  1.00  0.00     0.073 C 
HETATM    2  C   UNL     1      43.913 -20.283   6.341  1.00  0.00     0.068 A 
HETATM    3  N   UNL     1      44.543 -21.101   5.489  1.00  0.00    -0.177 NA
HETATM    4  N   UNL     1      44.646 -20.388   4.358  1.00  0.00    -0.260 N 
HETATM    5  H   UNL     1      45.095 -20.810   3.550  1.00  0.00     0.191 HD
HETATM    6  C   UNL     1      44.102 -19.141   4.464  1.00  0.00     0.162 A 
HETATM    7  C   UNL     1      43.614 -19.019   5.747  1.00  0.00     0.081 A 
HETATM    8  N   UNL     1      44.057 -18.221   3.503  1.00  0.00    -0.204 NA
HETATM    9  C   UNL     1      43.450 -17.084   3.906  1.00  0.00     0.177 A 
HETATM   10  N   UNL     1      42.923 -16.882   5.148  1.00  0.00    -0.276 N 
HETATM   11  C   UNL     1      43.003 -17.817   6.140  1.00  0.00     0.124 A 
ENDROOT
BRANCH   9  12
HETATM   12  S   UNL     1      43.310 -15.855   2.600  1.00  0.00    -0.082 SA
BRANCH  12  13
HETATM   13  C   UNL     1      43.241 -16.957   1.147  1.00  0.00     0.185 C 
BRANCH  13  14
HETATM   14  C   UNL     1      41.920 -16.766   0.430  1.00  0.00     0.232 C 
HETATM   15  N   UNL     1      41.985 -15.834  -0.591  1.00  0.00    -0.324 N 
HETATM   16  H   UNL     1      42.857 -15.784  -1.103  1.00  0.00     0.169 HD
HETATM   17  O   UNL     1      40.948 -17.453   0.735  1.00  0.00    -0.272 OA
BRANCH  15  18
HETATM   18  C   UNL     1      40.862 -15.232  -1.205  1.00  0.00     0.068 A 
HETATM   19  C   UNL     1      40.062 -14.253  -0.579  1.00  0.00     0.097 A 
HETATM   20  C   UNL     1      38.962 -13.719  -1.271  1.00  0.00     0.075 A 
HETATM   21  C   UNL     1      38.681 -14.119  -2.580  1.00  0.00     0.070 A 
HETATM   22  C   UNL     1      39.518 -15.040  -3.210  1.00  0.00     0.039 A 
HETATM   23  C   UNL     1      40.608 -15.586  -2.534  1.00  0.00     0.035 A 
BRANCH  19  24
HETATM   24  O   UNL     1      40.486 -13.800   0.645  1.00  0.00    -0.354 OA
HETATM   25  C   UNL     1      39.740 -14.182   1.793  1.00  0.00     0.210 C 
ENDBRANCH  19  24
BRANCH  21  26
HETATM   26  O   UNL     1      37.650 -13.669  -3.357  1.00  0.00    -0.356 OA
HETATM   27  C   UNL     1      36.965 -14.631  -4.150  1.00  0.00     0.210 C 
ENDBRANCH  21  26
ENDBRANCH  15  18
ENDBRANCH  13  14
ENDBRANCH  12  13
ENDBRANCH   9  12
BRANCH  10  28
HETATM   28  C   UNL     1      42.208 -15.665   5.427  1.00  0.00     0.043 A 
HETATM   29  C   UNL     1      42.941 -14.520   5.753  1.00  0.00     0.031 A 
HETATM   30  C   UNL     1      42.261 -13.320   5.960  1.00  0.00     0.021 A 
HETATM   31  C   UNL     1      40.870 -13.281   5.837  1.00  0.00     0.011 A 
HETATM   32 BR   UNL     1      39.955 -11.651   6.113  1.00  0.00    -0.051 Br
HETATM   33  C   UNL     1      40.147 -14.431   5.503  1.00  0.00     0.021 A 
HETATM   34  C   UNL     1      40.817 -15.639   5.288  1.00  0.00     0.031 A 
ENDBRANCH  10  28
BRANCH  11  35
HETATM   35  N   UNL     1      42.515 -17.606   7.425  1.00  0.00    -0.384 N 
HETATM   36  H   UNL     1      41.530 -17.435   7.594  1.00  0.00     0.157 HD
HETATM   37  H   UNL     1      43.129 -17.174   8.108  1.00  0.00     0.157 HD
ENDBRANCH  11  35
TORSDOF 8
ENDMDL
MODEL 2
REMARK VINA RESULT:      -8.3      5.180      9.629
REMARK  8 active torsions:
REMARK  status: ('A' for Active; 'I' for Inactive)
REMARK    1  A    between atoms: C_9  and  S_10 
REMARK    2  A    between atoms: S_10  and  C_11 
REMARK    3  A    between atoms: C_11  and  C_12 
REMARK       I    between atoms: C_12  and  N_13 
REMARK    4  A    between atoms: N_13  and  C_14 
REMARK    5  A    between atoms: C_15  and  O_16 
REMARK    6  A    between atoms: C_19  and  O_20 
REMARK    7  A    between atoms: N_25  and  C_26 
REMARK    8  A    between atoms: C_33  and  N_34 
ROOT
HETATM    1  C   UNL     1      39.056 -14.333   2.347  1.00  0.00     0.073 C 
HETATM    2  C   UNL     1      39.970 -13.848   3.414  1.00  0.00     0.068 A 
HETATM    3  N   UNL     1      39.837 -12.595   3.863  1.00  0.00    -0.177 NA
HETATM    4  N   UNL     1      40.780 -12.478   4.809  1.00  0.00    -0.260 N 
HETATM    5  H   UNL     1      40.872 -11.596   5.305  1.00  0.00     0.191 HD
HETATM    6  C   UNL     1      41.511 -13.618   4.976  1.00  0.00     0.162 A 
HETATM    7  C   UNL     1      41.024 -14.546   4.080  1.00  0.00     0.081 A 
HETATM    8  N   UNL     1      42.505 -13.792   5.843  1.00  0.00    -0.204 NA
HETATM    9  C   UNL     1      43.033 -15.034   5.779  1.00  0.00     0.177 A 
HETATM   10  N   UNL     1      42.605 -16.019   4.938  1.00  0.00    -0.276 N 
HETATM   11  C   UNL     1      41.607 -15.823   4.027  1.00  0.00     0.124 A 
ENDROOT
BRANCH   9  12
HETATM   12  S   UNL     1      44.329 -15.315   6.995  1.00  0.00    -0.082 SA
BRANCH  12  13
HETATM   13  C   UNL     1      45.378 -13.858   6.669  1.00  0.00     0.185 C 
BRANCH  13  14
HETATM   14  C   UNL     1      45.433 -12.987   7.907  1.00  0.00     0.232 C 
HETATM   15  N   UNL     1      44.243 -12.972   8.614  1.00  0.00    -0.324 N 
HETATM   16  H   UNL     1      43.708 -13.831   8.617  1.00  0.00     0.169 HD
HETATM   17  O   UNL     1      46.481 -12.430   8.223  1.00  0.00    -0.272 OA
BRANCH  15  18
HETATM   18  C   UNL     1      43.907 -12.022   9.606  1.00  0.00     0.068 A 
HETATM   19  C   UNL     1      43.171 -10.847   9.342  1.00  0.00     0.097 A 
HETATM   20  C   UNL     1      42.893  -9.960  10.395  1.00  0.00     0.075 A 
HETATM   21  C   UNL     1      43.302 -10.251  11.699  1.00  0.00     0.070 A 
HETATM   22  C   UNL     1      43.971 -11.446  11.957  1.00  0.00     0.039 A 
HETATM   23  C   UNL     1      44.264 -12.333  10.922  1.00  0.00     0.035 A 
BRANCH  19  24
HETATM   24  O   UNL     1      42.674 -10.702   8.071  1.00  0.00    -0.354 OA
HETATM   25  C   UNL     1      41.269 -10.546   7.919  1.00  0.00     0.210 C 
ENDBRANCH  19  24
BRANCH  21  26
HETATM   26  O   UNL     1      43.085  -9.475  12.804  1.00  0.00    -0.356 OA
HETATM   27  C   UNL     1      42.584 -10.124  13.967  1.00  0.00     0.210 C 
ENDBRANCH  21  26
ENDBRANCH  15  18
ENDBRANCH  13  14
ENDBRANCH  12  13
ENDBRANCH   9  12
BRANCH  10  28
HETATM   28  C   UNL     1      43.179 -17.335   5.034  1.00  0.00     0.043 A 
HETATM   29  C   UNL     1      42.822 -18.140   6.121  1.00  0.00     0.031 A 
HETATM   30  C   UNL     1      43.322 -19.441   6.188  1.00  0.00     0.021 A 
HETATM   31  C   UNL     1      44.161 -19.914   5.177  1.00  0.00     0.011 A 
HETATM   32 BR   UNL     1      44.829 -21.680   5.271  1.00  0.00    -0.051 Br
HETATM   33  C   UNL     1      44.505 -19.102   4.091  1.00  0.00     0.021 A 
HETATM   34  C   UNL     1      44.007 -17.799   4.008  1.00  0.00     0.031 A 
ENDBRANCH  10  28
BRANCH  11  35
HETATM   35  N   UNL     1      41.194 -16.801   3.129  1.00  0.00    -0.384 N 
HETATM   36  H   UNL     1      40.519 -16.598   2.400  1.00  0.00     0.157 HD
HETATM   37  H   UNL     1      41.180 -17.767   3.442  1.00  0.00     0.157 HD
ENDBRANCH  11  35
TORSDOF 8
ENDMDL
MODEL 3
REMARK VINA RESULT:      -8.3      4.722      8.634
REMARK  8 active torsions:
REMARK  status: ('A' for Active; 'I' for Inactive)
REMARK    1  A    between atoms: C_9  and  S_10 
REMARK    2  A    between atoms: S_10  and  C_11 
REMARK    3  A    between atoms: C_11  and  C_12 
REMARK       I    between atoms: C_12  and  N_13 
REMARK    4  A    between atoms: N_13  and  C_14 
REMARK    5  A    between atoms: C_15  and  O_16 
REMARK    6  A    between atoms: C_19  and  O_20 
REMARK    7  A    between atoms: N_25  and  C_26 
REMARK    8  A    between atoms: C_33  and  N_34 
ROOT
HETATM    1  C   UNL     1      43.967 -20.312   2.606  1.00  0.00     0.073 C 
HETATM    2  C   UNL     1      44.237 -19.488   3.813  1.00  0.00     0.068 A 
HETATM    3  N   UNL     1      45.011 -19.990   4.783  1.00  0.00    -0.177 NA
HETATM    4  N   UNL     1      45.068 -19.016   5.702  1.00  0.00    -0.260 N 
HETATM    5  H   UNL     1      45.613 -19.167   6.546  1.00  0.00     0.191 HD
HETATM    6  C   UNL     1      44.355 -17.908   5.348  1.00  0.00     0.162 A 
HETATM    7  C   UNL     1      43.784 -18.168   4.120  1.00  0.00     0.081 A 
HETATM    8  N   UNL     1      44.236 -16.790   6.061  1.00  0.00    -0.204 NA
HETATM    9  C   UNL     1      43.468 -15.865   5.445  1.00  0.00     0.177 A 
HETATM   10  N   UNL     1      42.879 -16.029   4.225  1.00  0.00    -0.276 N 
HETATM   11  C   UNL     1      42.977 -17.192   3.515  1.00  0.00     0.124 A 
ENDROOT
BRANCH   9  12
HETATM   12  S   UNL     1      43.356 -14.318   6.356  1.00  0.00    -0.082 SA
BRANCH  12  13
HETATM   13  C   UNL     1      45.125 -14.044   6.715  1.00  0.00     0.185 C 
BRANCH  13  14
HETATM   14  C   UNL     1      45.262 -13.098   7.890  1.00  0.00     0.232 C 
HETATM   15  N   UNL     1      44.108 -13.001   8.648  1.00  0.00    -0.324 N 
HETATM   16  H   UNL     1      43.549 -13.841   8.730  1.00  0.00     0.169 HD
HETATM   17  O   UNL     1      46.340 -12.557   8.123  1.00  0.00    -0.272 OA
BRANCH  15  18
HETATM   18  C   UNL     1      43.847 -11.980   9.590  1.00  0.00     0.068 A 
HETATM   19  C   UNL     1      43.109 -10.814   9.293  1.00  0.00     0.097 A 
HETATM   20  C   UNL     1      42.909  -9.853  10.297  1.00  0.00     0.075 A 
HETATM   21  C   UNL     1      43.396 -10.060  11.590  1.00  0.00     0.070 A 
HETATM   22  C   UNL     1      44.067 -11.245  11.887  1.00  0.00     0.039 A 
HETATM   23  C   UNL     1      44.283 -12.205  10.900  1.00  0.00     0.035 A 
BRANCH  19  24
HETATM   24  O   UNL     1      42.533 -10.749   8.049  1.00  0.00    -0.354 OA
HETATM   25  C   UNL     1      41.162 -10.382   7.967  1.00  0.00     0.210 C 
ENDBRANCH  19  24
BRANCH  21  26
HETATM   26  O   UNL     1      43.259  -9.207  12.650  1.00  0.00    -0.356 OA
HETATM   27  C   UNL     1      42.811  -9.764  13.880  1.00  0.00     0.210 C 
ENDBRANCH  21  26
ENDBRANCH  15  18
ENDBRANCH  13  14
ENDBRANCH  12  13
ENDBRANCH   9  12
BRANCH  10  28
HETATM   28  C   UNL     1      42.169 -14.932   3.626  1.00  0.00     0.043 A 
HETATM   29  C   UNL     1      40.802 -14.797   3.891  1.00  0.00     0.031 A 
HETATM   30  C   UNL     1      40.119 -13.699   3.368  1.00  0.00     0.021 A 
HETATM   31  C   UNL     1      40.805 -12.759   2.597  1.00  0.00     0.011 A 
HETATM   32 BR   UNL     1      39.875 -11.270   1.897  1.00  0.00    -0.051 Br
HETATM   33  C   UNL     1      42.174 -12.899   2.344  1.00  0.00     0.021 A 
HETATM   34  C   UNL     1      42.871 -13.992   2.867  1.00  0.00     0.031 A 
ENDBRANCH  10  28
BRANCH  11  35
HETATM   35  N   UNL     1      42.341 -17.392   2.294  1.00  0.00    -0.384 N 
HETATM   36  H   UNL     1      41.697 -16.706   1.916  1.00  0.00     0.157 HD
HETATM   37  H   UNL     1      42.142 -18.344   2.005  1.00  0.00     0.157 HD
ENDBRANCH  11  35
TORSDOF 8
ENDMDL
MODEL 4
REMARK VINA RESULT:      -8.1      2.887      3.347
REMARK  8 active torsions:
REMARK  status: ('A' for Active; 'I' for Inactive)
REMARK    1  A    between atoms: C_9  and  S_10 
REMARK    2  A    between atoms: S_10  and  C_11 
REMARK    3  A    between atoms: C_11  and  C_12 
REMARK       I    between atoms: C_12  and  N_13 
REMARK    4  A    between atoms: N_13  and  C_14 
REMARK    5  A    between atoms: C_15  and  O_16 
REMARK    6  A    between atoms: C_19  and  O_20 
REMARK    7  A    between atoms: N_25  and  C_26 
REMARK    8  A    between atoms: C_33  and  N_34 
ROOT
HETATM    1  C   UNL     1      45.184 -20.438   4.721  1.00  0.00     0.073 C 
HETATM    2  C   UNL     1      44.322 -20.013   3.586  1.00  0.00     0.068 A 
HETATM    3  N   UNL     1      44.165 -20.840   2.545  1.00  0.00    -0.177 NA
HETATM    4  N   UNL     1      43.339 -20.183   1.720  1.00  0.00    -0.260 N 
HETATM    5  H   UNL     1      43.066 -20.622   0.845  1.00  0.00     0.191 HD
HETATM    6  C   UNL     1      42.965 -18.962   2.201  1.00  0.00     0.162 A 
HETATM    7  C   UNL     1      43.588 -18.799   3.420  1.00  0.00     0.081 A 
HETATM    8  N   UNL     1      42.151 -18.097   1.600  1.00  0.00    -0.204 NA
HETATM    9  C   UNL     1      41.964 -16.974   2.327  1.00  0.00     0.177 A 
HETATM   10  N   UNL     1      42.525 -16.736   3.548  1.00  0.00    -0.276 N 
HETATM   11  C   UNL     1      43.386 -17.613   4.144  1.00  0.00     0.124 A 
ENDROOT
BRANCH   9  12
HETATM   12  S   UNL     1      40.809 -15.824   1.568  1.00  0.00    -0.082 SA
BRANCH  12  13
HETATM   13  C   UNL     1      41.222 -16.088  -0.190  1.00  0.00     0.185 C 
BRANCH  13  14
HETATM   14  C   UNL     1      40.999 -14.803  -0.961  1.00  0.00     0.232 C 
HETATM   15  N   UNL     1      42.176 -14.211  -1.382  1.00  0.00    -0.324 N 
HETATM   16  H   UNL     1      42.931 -14.835  -1.637  1.00  0.00     0.169 HD
HETATM   17  O   UNL     1      39.857 -14.420  -1.205  1.00  0.00    -0.272 OA
BRANCH  15  18
HETATM   18  C   UNL     1      42.290 -12.874  -1.832  1.00  0.00     0.068 A 
HETATM   19  C   UNL     1      42.484 -11.775  -0.969  1.00  0.00     0.097 A 
HETATM   20  C   UNL     1      42.579 -10.483  -1.513  1.00  0.00     0.075 A 
HETATM   21  C   UNL     1      42.522 -10.286  -2.895  1.00  0.00     0.070 A 
HETATM   22  C   UNL     1      42.395 -11.387  -3.740  1.00  0.00     0.039 A 
HETATM   23  C   UNL     1      42.290 -12.675  -3.217  1.00  0.00     0.035 A 
BRANCH  19  24
HETATM   24  O   UNL     1      42.682 -12.060   0.359  1.00  0.00    -0.354 OA
HETATM   25  C   UNL     1      41.620 -11.791   1.264  1.00  0.00     0.210 C 
ENDBRANCH  19  24
BRANCH  21  26
HETATM   26  O   UNL     1      42.609  -9.084  -3.542  1.00  0.00    -0.356 OA
HETATM   27  C   UNL     1      42.651  -7.912  -2.737  1.00  0.00     0.210 C 
ENDBRANCH  21  26
ENDBRANCH  15  18
ENDBRANCH  13  14
ENDBRANCH  12  13
ENDBRANCH   9  12
BRANCH  10  28
HETATM   28  C   UNL     1      42.168 -15.545   4.273  1.00  0.00     0.043 A 
HETATM   29  C   UNL     1      42.920 -14.385   4.062  1.00  0.00     0.031 A 
HETATM   30  C   UNL     1      42.542 -13.209   4.710  1.00  0.00     0.021 A 
HETATM   31  C   UNL     1      41.426 -13.209   5.550  1.00  0.00     0.011 A 
HETATM   32 BR   UNL     1      40.914 -11.611   6.419  1.00  0.00    -0.051 Br
HETATM   33  C   UNL     1      40.677 -14.374   5.748  1.00  0.00     0.021 A 
HETATM   34  C   UNL     1      41.042 -15.557   5.100  1.00  0.00     0.031 A 
ENDBRANCH  10  28
BRANCH  11  35
HETATM   35  N   UNL     1      44.004 -17.361   5.364  1.00  0.00    -0.384 N 
HETATM   36  H   UNL     1      44.619 -16.564   5.490  1.00  0.00     0.157 HD
HETATM   37  H   UNL     1      44.229 -18.150   5.962  1.00  0.00     0.157 HD
ENDBRANCH  11  35
TORSDOF 8
ENDMDL
MODEL 5
REMARK VINA RESULT:      -8.0      5.574     10.281
REMARK  8 active torsions:
REMARK  status: ('A' for Active; 'I' for Inactive)
REMARK    1  A    between atoms: C_9  and  S_10 
REMARK    2  A    between atoms: S_10  and  C_11 
REMARK    3  A    between atoms: C_11  and  C_12 
REMARK       I    between atoms: C_12  and  N_13 
REMARK    4  A    between atoms: N_13  and  C_14 
REMARK    5  A    between atoms: C_15  and  O_16 
REMARK    6  A    between atoms: C_19  and  O_20 
REMARK    7  A    between atoms: N_25  and  C_26 
REMARK    8  A    between atoms: C_33  and  N_34 
ROOT
HETATM    1  C   UNL     1      37.589 -14.284   0.503  1.00  0.00     0.073 C 
HETATM    2  C   UNL     1      38.163 -13.277   1.433  1.00  0.00     0.068 A 
HETATM    3  N   UNL     1      37.776 -12.000   1.327  1.00  0.00    -0.177 NA
HETATM    4  N   UNL     1      38.451 -11.365   2.296  1.00  0.00    -0.260 N 
HETATM    5  H   UNL     1      38.315 -10.366   2.416  1.00  0.00     0.191 HD
HETATM    6  C   UNL     1      39.257 -12.198   3.016  1.00  0.00     0.162 A 
HETATM    7  C   UNL     1      39.110 -13.462   2.486  1.00  0.00     0.081 A 
HETATM    8  N   UNL     1      40.035 -11.847   4.037  1.00  0.00    -0.204 NA
HETATM    9  C   UNL     1      40.712 -12.896   4.554  1.00  0.00     0.177 A 
HETATM   10  N   UNL     1      40.616 -14.181   4.105  1.00  0.00    -0.276 N 
HETATM   11  C   UNL     1      39.841 -14.529   3.035  1.00  0.00     0.124 A 
ENDROOT
BRANCH   9  12
HETATM   12  S   UNL     1      41.713 -12.458   5.982  1.00  0.00    -0.082 SA
BRANCH  12  13
HETATM   13  C   UNL     1      40.920 -10.880   6.441  1.00  0.00     0.185 C 
BRANCH  13  14
HETATM   14  C   UNL     1      41.699 -10.229   7.566  1.00  0.00     0.232 C 
HETATM   15  N   UNL     1      42.066 -11.120   8.559  1.00  0.00    -0.324 N 
HETATM   16  H   UNL     1      42.286 -12.063   8.264  1.00  0.00     0.169 HD
HETATM   17  O   UNL     1      41.996  -9.039   7.502  1.00  0.00    -0.272 OA
BRANCH  15  18
HETATM   18  C   UNL     1      42.509 -10.750   9.850  1.00  0.00     0.068 A 
HETATM   19  C   UNL     1      43.870 -10.642  10.207  1.00  0.00     0.097 A 
HETATM   20  C   UNL     1      44.210 -10.273  11.519  1.00  0.00     0.075 A 
HETATM   21  C   UNL     1      43.217  -9.976  12.455  1.00  0.00     0.070 A 
HETATM   22  C   UNL     1      41.877 -10.023  12.072  1.00  0.00     0.039 A 
HETATM   23  C   UNL     1      41.522 -10.397  10.777  1.00  0.00     0.035 A 
BRANCH  19  24
HETATM   24  O   UNL     1      44.787 -10.801   9.197  1.00  0.00    -0.354 OA
HETATM   25  C   UNL     1      45.469 -12.045   9.105  1.00  0.00     0.210 C 
ENDBRANCH  19  24
BRANCH  21  26
HETATM   26  O   UNL     1      43.420  -9.599  13.754  1.00  0.00    -0.356 OA
HETATM   27  C   UNL     1      42.447 -10.004  14.709  1.00  0.00     0.210 C 
ENDBRANCH  21  26
ENDBRANCH  15  18
ENDBRANCH  13  14
ENDBRANCH  12  13
ENDBRANCH   9  12
BRANCH  10  28
HETATM   28  C   UNL     1      41.308 -15.231   4.804  1.00  0.00     0.043 A 
HETATM   29  C   UNL     1      42.622 -15.530   4.426  1.00  0.00     0.031 A 
HETATM   30  C   UNL     1      43.324 -16.501   5.141  1.00  0.00     0.021 A 
HETATM   31  C   UNL     1      42.710 -17.151   6.214  1.00  0.00     0.011 A 
HETATM   32 BR   UNL     1      43.669 -18.460   7.182  1.00  0.00    -0.051 Br
HETATM   33  C   UNL     1      41.399 -16.838   6.587  1.00  0.00     0.021 A 
HETATM   34  C   UNL     1      40.686 -15.864   5.883  1.00  0.00     0.031 A 
ENDBRANCH  10  28
BRANCH  11  35
HETATM   35  N   UNL     1      39.772 -15.825   2.536  1.00  0.00    -0.384 N 
HETATM   36  H   UNL     1      39.129 -16.069   1.791  1.00  0.00     0.157 HD
HETATM   37  H   UNL     1      39.985 -16.594   3.163  1.00  0.00     0.157 HD
ENDBRANCH  11  35
TORSDOF 8
ENDMDL
MODEL 6
REMARK VINA RESULT:      -7.8      2.612      3.267
REMARK  8 active torsions:
REMARK  status: ('A' for Active; 'I' for Inactive)
REMARK    1  A    between atoms: C_9  and  S_10 
REMARK    2  A    between atoms: S_10  and  C_11 
REMARK    3  A    between atoms: C_11  and  C_12 
REMARK       I    between atoms: C_12  and  N_13 
REMARK    4  A    between atoms: N_13  and  C_14 
REMARK    5  A    between atoms: C_15  and  O_16 
REMARK    6  A    between atoms: C_19  and  O_20 
REMARK    7  A    between atoms: N_25  and  C_26 
REMARK    8  A    between atoms: C_33  and  N_34 
ROOT
HETATM    1  C   UNL     1      45.476 -18.144   6.618  1.00  0.00     0.073 C 
HETATM    2  C   UNL     1      44.663 -18.465   5.415  1.00  0.00     0.068 A 
HETATM    3  N   UNL     1      44.829 -19.650   4.817  1.00  0.00    -0.177 NA
HETATM    4  N   UNL     1      43.959 -19.633   3.797  1.00  0.00    -0.260 N 
HETATM    5  H   UNL     1      43.899 -20.444   3.188  1.00  0.00     0.191 HD
HETATM    6  C   UNL     1      43.244 -18.473   3.726  1.00  0.00     0.162 A 
HETATM    7  C   UNL     1      43.673 -17.669   4.761  1.00  0.00     0.081 A 
HETATM    8  N   UNL     1      42.311 -18.180   2.823  1.00  0.00    -0.204 NA
HETATM    9  C   UNL     1      41.775 -16.955   3.015  1.00  0.00     0.177 A 
HETATM   10  N   UNL     1      42.124 -16.101   4.021  1.00  0.00    -0.276 N 
HETATM   11  C   UNL     1      43.107 -16.394   4.923  1.00  0.00     0.124 A 
ENDROOT
BRANCH   9  12
HETATM   12  S   UNL     1      40.458 -16.569   1.852  1.00  0.00    -0.082 SA
BRANCH  12  13
HETATM   13  C   UNL     1      41.439 -16.399   0.323  1.00  0.00     0.185 C 
BRANCH  13  14
HETATM   14  C   UNL     1      41.094 -15.090  -0.358  1.00  0.00     0.232 C 
HETATM   15  N   UNL     1      41.857 -14.847  -1.486  1.00  0.00    -0.324 N 
HETATM   16  H   UNL     1      42.123 -15.654  -2.036  1.00  0.00     0.169 HD
HETATM   17  O   UNL     1      40.173 -14.398   0.069  1.00  0.00    -0.272 OA
BRANCH  15  18
HETATM   18  C   UNL     1      41.976 -13.589  -2.122  1.00  0.00     0.068 A 
HETATM   19  C   UNL     1      41.384 -13.286  -3.367  1.00  0.00     0.097 A 
HETATM   20  C   UNL     1      41.565 -12.008  -3.921  1.00  0.00     0.075 A 
HETATM   21  C   UNL     1      42.289 -11.030  -3.235  1.00  0.00     0.070 A 
HETATM   22  C   UNL     1      42.813 -11.322  -1.976  1.00  0.00     0.039 A 
HETATM   23  C   UNL     1      42.651 -12.588  -1.416  1.00  0.00     0.035 A 
BRANCH  19  24
HETATM   24  O   UNL     1      40.564 -14.243  -3.910  1.00  0.00    -0.354 OA
HETATM   25  C   UNL     1      39.185 -14.215  -3.564  1.00  0.00     0.210 C 
ENDBRANCH  19  24
BRANCH  21  26
HETATM   26  O   UNL     1      42.527  -9.753  -3.663  1.00  0.00    -0.356 OA
HETATM   27  C   UNL     1      42.154  -8.693  -2.791  1.00  0.00     0.210 C 
ENDBRANCH  21  26
ENDBRANCH  15  18
ENDBRANCH  13  14
ENDBRANCH  12  13
ENDBRANCH   9  12
BRANCH  10  28
HETATM   28  C   UNL     1      41.408 -14.864   4.183  1.00  0.00     0.043 A 
HETATM   29  C   UNL     1      41.780 -13.770   3.396  1.00  0.00     0.031 A 
HETATM   30  C   UNL     1      41.049 -12.586   3.500  1.00  0.00     0.021 A 
HETATM   31  C   UNL     1      39.965 -12.515   4.378  1.00  0.00     0.011 A 
HETATM   32 BR   UNL     1      38.975 -10.911   4.508  1.00  0.00    -0.051 Br
HETATM   33  C   UNL     1      39.598 -13.619   5.155  1.00  0.00     0.021 A 
HETATM   34  C   UNL     1      40.318 -14.812   5.057  1.00  0.00     0.031 A 
ENDBRANCH  10  28
BRANCH  11  35
HETATM   35  N   UNL     1      43.509 -15.514   5.922  1.00  0.00    -0.384 N 
HETATM   36  H   UNL     1      44.367 -14.979   5.841  1.00  0.00     0.157 HD
HETATM   37  H   UNL     1      43.243 -15.719   6.880  1.00  0.00     0.157 HD
ENDBRANCH  11  35
TORSDOF 8
ENDMDL
MODEL 7
REMARK VINA RESULT:      -7.8      2.978      7.378
REMARK  8 active torsions:
REMARK  status: ('A' for Active; 'I' for Inactive)
REMARK    1  A    between atoms: C_9  and  S_10 
REMARK    2  A    between atoms: S_10  and  C_11 
REMARK    3  A    between atoms: C_11  and  C_12 
REMARK       I    between atoms: C_12  and  N_13 
REMARK    4  A    between atoms: N_13  and  C_14 
REMARK    5  A    between atoms: C_15  and  O_16 
REMARK    6  A    between atoms: C_19  and  O_20 
REMARK    7  A    between atoms: N_25  and  C_26 
REMARK    8  A    between atoms: C_33  and  N_34 
ROOT
HETATM    1  C   UNL     1      39.279 -13.969  -2.062  1.00  0.00     0.073 C 
HETATM    2  C   UNL     1      40.262 -14.502  -1.082  1.00  0.00     0.068 A 
HETATM    3  N   UNL     1      41.050 -15.523  -1.441  1.00  0.00    -0.177 NA
HETATM    4  N   UNL     1      41.813 -15.750  -0.363  1.00  0.00    -0.260 N 
HETATM    5  H   UNL     1      42.506 -16.493  -0.399  1.00  0.00     0.191 HD
HETATM    6  C   UNL     1      41.536 -14.907   0.673  1.00  0.00     0.162 A 
HETATM    7  C   UNL     1      40.521 -14.072   0.256  1.00  0.00     0.081 A 
HETATM    8  N   UNL     1      42.137 -14.899   1.860  1.00  0.00    -0.204 NA
HETATM    9  C   UNL     1      41.649 -13.942   2.679  1.00  0.00     0.177 A 
HETATM   10  N   UNL     1      40.660 -13.063   2.345  1.00  0.00    -0.276 N 
HETATM   11  C   UNL     1      40.024 -13.098   1.137  1.00  0.00     0.124 A 
ENDROOT
BRANCH   9  12
HETATM   12  S   UNL     1      42.499 -13.864   4.262  1.00  0.00    -0.082 SA
BRANCH  12  13
HETATM   13  C   UNL     1      41.361 -14.872   5.272  1.00  0.00     0.185 C 
BRANCH  13  14
HETATM   14  C   UNL     1      41.782 -16.325   5.211  1.00  0.00     0.232 C 
HETATM   15  N   UNL     1      43.051 -16.502   4.686  1.00  0.00    -0.324 N 
HETATM   16  H   UNL     1      43.730 -15.781   4.892  1.00  0.00     0.169 HD
HETATM   17  O   UNL     1      41.047 -17.201   5.661  1.00  0.00    -0.272 OA
BRANCH  15  18
HETATM   18  C   UNL     1      43.567 -17.735   4.223  1.00  0.00     0.068 A 
HETATM   19  C   UNL     1      44.328 -18.612   5.024  1.00  0.00     0.097 A 
HETATM   20  C   UNL     1      44.803 -19.812   4.470  1.00  0.00     0.075 A 
HETATM   21  C   UNL     1      44.494 -20.159   3.152  1.00  0.00     0.070 A 
HETATM   22  C   UNL     1      43.687 -19.314   2.392  1.00  0.00     0.039 A 
HETATM   23  C   UNL     1      43.216 -18.115   2.923  1.00  0.00     0.035 A 
BRANCH  19  24
HETATM   24  O   UNL     1      44.463 -18.278   6.349  1.00  0.00    -0.354 OA
HETATM   25  C   UNL     1      43.793 -19.083   7.311  1.00  0.00     0.210 C 
ENDBRANCH  19  24
BRANCH  21  26
HETATM   26  O   UNL     1      44.888 -21.297   2.505  1.00  0.00    -0.356 OA
HETATM   27  C   UNL     1      43.961 -21.886   1.600  1.00  0.00     0.210 C 
ENDBRANCH  21  26
ENDBRANCH  15  18
ENDBRANCH  13  14
ENDBRANCH  12  13
ENDBRANCH   9  12
BRANCH  10  28
HETATM   28  C   UNL     1      40.296 -12.020   3.267  1.00  0.00     0.043 A 
HETATM   29  C   UNL     1      39.269 -12.268   4.183  1.00  0.00     0.031 A 
HETATM   30  C   UNL     1      38.953 -11.287   5.124  1.00  0.00     0.021 A 
HETATM   31  C   UNL     1      39.664 -10.085   5.137  1.00  0.00     0.011 A 
HETATM   32 BR   UNL     1      39.235  -8.764   6.419  1.00  0.00    -0.051 Br
HETATM   33  C   UNL     1      40.694  -9.851   4.221  1.00  0.00     0.021 A 
HETATM   34  C   UNL     1      41.024 -10.827   3.277  1.00  0.00     0.031 A 
ENDBRANCH  10  28
BRANCH  11  35
HETATM   35  N   UNL     1      38.981 -12.242   0.802  1.00  0.00    -0.384 N 
HETATM   36  H   UNL     1      39.085 -11.543   0.074  1.00  0.00     0.157 HD
HETATM   37  H   UNL     1      38.318 -11.984   1.526  1.00  0.00     0.157 HD
ENDBRANCH  11  35
TORSDOF 8
ENDMDL
MODEL 8
REMARK VINA RESULT:      -7.8      3.518      5.754
REMARK  8 active torsions:
REMARK  status: ('A' for Active; 'I' for Inactive)
REMARK    1  A    between atoms: C_9  and  S_10 
REMARK    2  A    between atoms: S_10  and  C_11 
REMARK    3  A    between atoms: C_11  and  C_12 
REMARK       I    between atoms: C_12  and  N_13 
REMARK    4  A    between atoms: N_13  and  C_14 
REMARK    5  A    between atoms: C_15  and  O_16 
REMARK    6  A    between atoms: C_19  and  O_20 
REMARK    7  A    between atoms: N_25  and  C_26 
REMARK    8  A    between atoms: C_33  and  N_34 
ROOT
HETATM    1  C   UNL     1      44.798 -21.786   2.086  1.00  0.00     0.073 C 
HETATM    2  C   UNL     1      44.549 -21.121   3.391  1.00  0.00     0.068 A 
HETATM    3  N   UNL     1      45.041 -21.673   4.507  1.00  0.00    -0.177 NA
HETATM    4  N   UNL     1      44.662 -20.840   5.486  1.00  0.00    -0.260 N 
HETATM    5  H   UNL     1      44.928 -21.053   6.443  1.00  0.00     0.191 HD
HETATM    6  C   UNL     1      43.944 -19.774   5.030  1.00  0.00     0.162 A 
HETATM    7  C   UNL     1      43.835 -19.913   3.663  1.00  0.00     0.081 A 
HETATM    8  N   UNL     1      43.444 -18.789   5.773  1.00  0.00    -0.204 NA
HETATM    9  C   UNL     1      42.783 -17.870   5.035  1.00  0.00     0.177 A 
HETATM   10  N   UNL     1      42.641 -17.919   3.679  1.00  0.00    -0.276 N 
HETATM   11  C   UNL     1      43.127 -18.950   2.926  1.00  0.00     0.124 A 
ENDROOT
BRANCH   9  12
HETATM   12  S   UNL     1      42.165 -16.491   6.009  1.00  0.00    -0.082 SA
BRANCH  12  13
HETATM   13  C   UNL     1      43.545 -15.316   5.790  1.00  0.00     0.185 C 
BRANCH  13  14
HETATM   14  C   UNL     1      42.993 -13.938   5.489  1.00  0.00     0.232 C 
HETATM   15  N   UNL     1      41.885 -13.617   6.255  1.00  0.00    -0.324 N 
HETATM   16  H   UNL     1      41.867 -13.981   7.199  1.00  0.00     0.169 HD
HETATM   17  O   UNL     1      43.563 -13.208   4.682  1.00  0.00    -0.272 OA
BRANCH  15  18
HETATM   18  C   UNL     1      40.991 -12.558   5.974  1.00  0.00     0.068 A 
HETATM   19  C   UNL     1      41.051 -11.298   6.608  1.00  0.00     0.097 A 
HETATM   20  C   UNL     1      40.112 -10.311   6.265  1.00  0.00     0.075 A 
HETATM   21  C   UNL     1      39.152 -10.553   5.279  1.00  0.00     0.070 A 
HETATM   22  C   UNL     1      39.145 -11.779   4.615  1.00  0.00     0.039 A 
HETATM   23  C   UNL     1      40.063 -12.773   4.950  1.00  0.00     0.035 A 
BRANCH  19  24
HETATM   24  O   UNL     1      42.111 -11.082   7.452  1.00  0.00    -0.354 OA
HETATM   25  C   UNL     1      41.883 -10.314   8.627  1.00  0.00     0.210 C 
ENDBRANCH  19  24
BRANCH  21  26
HETATM   26  O   UNL     1      38.195  -9.674   4.854  1.00  0.00    -0.356 OA
HETATM   27  C   UNL     1      37.704  -9.838   3.528  1.00  0.00     0.210 C 
ENDBRANCH  21  26
ENDBRANCH  15  18
ENDBRANCH  13  14
ENDBRANCH  12  13
ENDBRANCH   9  12
BRANCH  10  28
HETATM   28  C   UNL     1      42.004 -16.827   2.992  1.00  0.00     0.043 A 
HETATM   29  C   UNL     1      40.607 -16.758   3.000  1.00  0.00     0.031 A 
HETATM   30  C   UNL     1      39.982 -15.668   2.393  1.00  0.00     0.021 A 
HETATM   31  C   UNL     1      40.756 -14.670   1.796  1.00  0.00     0.011 A 
HETATM   32 BR   UNL     1      39.903 -13.193   0.983  1.00  0.00    -0.051 Br
HETATM   33  C   UNL     1      42.152 -14.745   1.801  1.00  0.00     0.021 A 
HETATM   34  C   UNL     1      42.791 -15.829   2.410  1.00  0.00     0.031 A 
ENDBRANCH  10  28
BRANCH  11  35
HETATM   35  N   UNL     1      42.946 -19.038   1.550  1.00  0.00    -0.384 N 
HETATM   36  H   UNL     1      42.084 -19.397   1.153  1.00  0.00     0.157 HD
HETATM   37  H   UNL     1      43.762 -19.192   0.967  1.00  0.00     0.157 HD
ENDBRANCH  11  35
TORSDOF 8
ENDMDL
MODEL 9
REMARK VINA RESULT:      -7.6      3.524      7.406
REMARK  8 active torsions:
REMARK  status: ('A' for Active; 'I' for Inactive)
REMARK    1  A    between atoms: C_9  and  S_10 
REMARK    2  A    between atoms: S_10  and  C_11 
REMARK    3  A    between atoms: C_11  and  C_12 
REMARK       I    between atoms: C_12  and  N_13 
REMARK    4  A    between atoms: N_13  and  C_14 
REMARK    5  A    between atoms: C_15  and  O_16 
REMARK    6  A    between atoms: C_19  and  O_20 
REMARK    7  A    between atoms: N_25  and  C_26 
REMARK    8  A    between atoms: C_33  and  N_34 
ROOT
HETATM    1  C   UNL     1      40.715 -11.701   6.297  1.00  0.00     0.073 C 
HETATM    2  C   UNL     1      40.423 -12.881   5.443  1.00  0.00     0.068 A 
HETATM    3  N   UNL     1      40.003 -14.014   6.020  1.00  0.00    -0.177 NA
HETATM    4  N   UNL     1      39.819 -14.861   4.997  1.00  0.00    -0.260 N 
HETATM    5  H   UNL     1      39.491 -15.802   5.192  1.00  0.00     0.191 HD
HETATM    6  C   UNL     1      40.109 -14.304   3.786  1.00  0.00     0.162 A 
HETATM    7  C   UNL     1      40.517 -13.008   4.022  1.00  0.00     0.081 A 
HETATM    8  N   UNL     1      40.015 -14.906   2.603  1.00  0.00    -0.204 NA
HETATM    9  C   UNL     1      40.366 -14.094   1.582  1.00  0.00     0.177 A 
HETATM   10  N   UNL     1      40.764 -12.797   1.721  1.00  0.00    -0.276 N 
HETATM   11  C   UNL     1      40.892 -12.195   2.940  1.00  0.00     0.124 A 
ENDROOT
BRANCH   9  12
HETATM   12  S   UNL     1      40.173 -14.864  -0.033  1.00  0.00    -0.082 SA
BRANCH  12  13
HETATM   13  C   UNL     1      41.770 -15.740  -0.149  1.00  0.00     0.185 C 
BRANCH  13  14
HETATM   14  C   UNL     1      41.825 -16.833   0.899  1.00  0.00     0.232 C 
HETATM   15  N   UNL     1      42.890 -16.696   1.771  1.00  0.00    -0.324 N 
HETATM   16  H   UNL     1      43.166 -15.751   2.004  1.00  0.00     0.169 HD
HETATM   17  O   UNL     1      40.941 -17.685   0.949  1.00  0.00    -0.272 OA
BRANCH  15  18
HETATM   18  C   UNL     1      43.367 -17.716   2.628  1.00  0.00     0.068 A 
HETATM   19  C   UNL     1      43.276 -17.659   4.035  1.00  0.00     0.097 A 
HETATM   20  C   UNL     1      43.785 -18.721   4.800  1.00  0.00     0.075 A 
HETATM   21  C   UNL     1      44.341 -19.843   4.181  1.00  0.00     0.070 A 
HETATM   22  C   UNL     1      44.367 -19.915   2.789  1.00  0.00     0.039 A 
HETATM   23  C   UNL     1      43.874 -18.866   2.014  1.00  0.00     0.035 A 
BRANCH  19  24
HETATM   24  O   UNL     1      42.582 -16.600   4.566  1.00  0.00    -0.354 OA
HETATM   25  C   UNL     1      43.318 -15.606   5.268  1.00  0.00     0.210 C 
ENDBRANCH  19  24
BRANCH  21  26
HETATM   26  O   UNL     1      44.860 -20.939   4.813  1.00  0.00    -0.356 OA
HETATM   27  C   UNL     1      44.701 -22.198   4.170  1.00  0.00     0.210 C 
ENDBRANCH  21  26
ENDBRANCH  15  18
ENDBRANCH  13  14
ENDBRANCH  12  13
ENDBRANCH   9  12
BRANCH  10  28
HETATM   28  C   UNL     1      41.013 -12.001   0.549  1.00  0.00     0.043 A 
HETATM   29  C   UNL     1      42.297 -12.014  -0.006  1.00  0.00     0.031 A 
HETATM   30  C   UNL     1      42.532 -11.298  -1.180  1.00  0.00     0.021 A 
HETATM   31  C   UNL     1      41.489 -10.587  -1.779  1.00  0.00     0.011 A 
HETATM   32 BR   UNL     1      41.812  -9.624  -3.372  1.00  0.00    -0.051 Br
HETATM   33  C   UNL     1      40.207 -10.587  -1.219  1.00  0.00     0.021 A 
HETATM   34  C   UNL     1      39.957 -11.304  -0.046  1.00  0.00     0.031 A 
ENDBRANCH  10  28
BRANCH  11  35
HETATM   35  N   UNL     1      41.344 -10.890   3.101  1.00  0.00    -0.384 N 
HETATM   36  H   UNL     1      42.274 -10.694   3.456  1.00  0.00     0.157 HD
HETATM   37  H   UNL     1      40.663 -10.167   3.312  1.00  0.00     0.157 HD
ENDBRANCH  11  35
TORSDOF 8
ENDMDL
MODEL 10
REMARK VINA RESULT:      -7.5      2.941      7.563
REMARK  8 active torsions:
REMARK  status: ('A' for Active; 'I' for Inactive)
REMARK    1  A    between atoms: C_9  and  S_10 
REMARK    2  A    between atoms: S_10  and  C_11 
REMARK    3  A    between atoms: C_11  and  C_12 
REMARK       I    between atoms: C_12  and  N_13 
REMARK    4  A    between atoms: N_13  and  C_14 
REMARK    5  A    between atoms: C_15  and  O_16 
REMARK    6  A    between atoms: C_19  and  O_20 
REMARK    7  A    between atoms: N_25  and  C_26 
REMARK    8  A    between atoms: C_33  and  N_34 
ROOT
HETATM    1  C   UNL     1      41.078 -14.083  -1.926  1.00  0.00     0.073 C 
HETATM    2  C   UNL     1      40.937 -14.842  -0.656  1.00  0.00     0.068 A 
HETATM    3  N   UNL     1      41.138 -16.166  -0.665  1.00  0.00    -0.177 NA
HETATM    4  N   UNL     1      40.954 -16.539   0.609  1.00  0.00    -0.260 N 
HETATM    5  H   UNL     1      41.059 -17.520   0.854  1.00  0.00     0.191 HD
HETATM    6  C   UNL     1      40.641 -15.496   1.430  1.00  0.00     0.162 A 
HETATM    7  C   UNL     1      40.611 -14.360   0.648  1.00  0.00     0.081 A 
HETATM    8  N   UNL     1      40.409 -15.569   2.738  1.00  0.00    -0.204 NA
HETATM    9  C   UNL     1      40.130 -14.363   3.280  1.00  0.00     0.177 A 
HETATM   10  N   UNL     1      40.095 -13.188   2.588  1.00  0.00    -0.276 N 
HETATM   11  C   UNL     1      40.300 -13.125   1.240  1.00  0.00     0.124 A 
ENDROOT
BRANCH   9  12
HETATM   12  S   UNL     1      39.888 -14.428   5.062  1.00  0.00    -0.082 SA
BRANCH  12  13
HETATM   13  C   UNL     1      41.627 -14.528   5.605  1.00  0.00     0.185 C 
BRANCH  13  14
HETATM   14  C   UNL     1      42.030 -15.981   5.746  1.00  0.00     0.232 C 
HETATM   15  N   UNL     1      43.237 -16.272   5.135  1.00  0.00    -0.324 N 
HETATM   16  H   UNL     1      43.939 -15.543   5.150  1.00  0.00     0.169 HD
HETATM   17  O   UNL     1      41.338 -16.752   6.407  1.00  0.00    -0.272 OA
BRANCH  15  18
HETATM   18  C   UNL     1      43.696 -17.576   4.836  1.00  0.00     0.068 A 
HETATM   19  C   UNL     1      43.727 -18.112   3.531  1.00  0.00     0.097 A 
HETATM   20  C   UNL     1      44.194 -19.422   3.337  1.00  0.00     0.075 A 
HETATM   21  C   UNL     1      44.661 -20.179   4.414  1.00  0.00     0.070 A 
HETATM   22  C   UNL     1      44.685 -19.615   5.689  1.00  0.00     0.039 A 
HETATM   23  C   UNL     1      44.217 -18.320   5.900  1.00  0.00     0.035 A 
BRANCH  19  24
HETATM   24  O   UNL     1      43.396 -17.261   2.506  1.00  0.00    -0.354 OA
HETATM   25  C   UNL     1      44.222 -17.257   1.349  1.00  0.00     0.210 C 
ENDBRANCH  19  24
BRANCH  21  26
HETATM   26  O   UNL     1      45.146 -21.456   4.352  1.00  0.00    -0.356 OA
HETATM   27  C   UNL     1      44.790 -22.340   5.409  1.00  0.00     0.210 C 
ENDBRANCH  21  26
ENDBRANCH  15  18
ENDBRANCH  13  14
ENDBRANCH  12  13
ENDBRANCH   9  12
BRANCH  10  28
HETATM   28  C   UNL     1      39.887 -11.953   3.296  1.00  0.00     0.043 A 
HETATM   29  C   UNL     1      41.004 -11.268   3.784  1.00  0.00     0.031 A 
HETATM   30  C   UNL     1      40.817 -10.037   4.414  1.00  0.00     0.021 A 
HETATM   31  C   UNL     1      39.529  -9.512   4.543  1.00  0.00     0.011 A 
HETATM   32 BR   UNL     1      39.284  -7.841   5.391  1.00  0.00    -0.051 Br
HETATM   33  C   UNL     1      38.420 -10.203   4.044  1.00  0.00     0.021 A 
HETATM   34  C   UNL     1      38.593 -11.435   3.407  1.00  0.00     0.031 A 
ENDBRANCH  10  28
BRANCH  11  35
HETATM   35  N   UNL     1      40.218 -11.942   0.513  1.00  0.00    -0.384 N 
HETATM   36  H   UNL     1      39.336 -11.618   0.130  1.00  0.00     0.157 HD
HETATM   37  H   UNL     1      41.030 -11.648  -0.021  1.00  0.00     0.157 HD
ENDBRANCH  11  35
TORSDOF 8
ENDMDL
