MODEL 1
REMARK VINA RESULT:      -9.1      0.000      0.000
REMARK  8 active torsions:
REMARK  status: ('A' for Active; 'I' for Inactive)
REMARK    1  A    between atoms: C_2  and  O_3 
REMARK    2  A    between atoms: O_3  and  C_4 
REMARK    3  A    between atoms: C_5  and  C_6 
REMARK    4  A    between atoms: C_6  and  N_7 
REMARK    5  A    between atoms: C_23  and  C_24 
REMARK    6  A    between atoms: N_25  and  N_26 
REMARK       I    between atoms: N_26  and  C_27 
REMARK    7  A    between atoms: C_27  and  C_28 
REMARK    8  A    between atoms: C_32  and  C_33 
ROOT
HETATM    1  C   UNL     1      44.428 -18.763   4.129  1.00  0.00     0.076 A 
HETATM    2  C   UNL     1      43.930 -17.467   3.886  1.00  0.00     0.002 A 
HETATM    3  C   UNL     1      43.713 -16.626   4.985  1.00  0.00     0.024 A 
HETATM    4  C   UNL     1      44.047 -17.026   6.287  1.00  0.00    -0.016 A 
HETATM    5  C   UNL     1      44.542 -18.302   6.520  1.00  0.00     0.016 A 
HETATM    6  C   UNL     1      44.723 -19.172   5.438  1.00  0.00     0.038 A 
ENDROOT
BRANCH   2   7
HETATM    7  C   UNL     1      43.594 -17.049   2.471  1.00  0.00     0.276 C 
BRANCH   7   8
HETATM    8  N   UNL     1      42.285 -17.580   1.880  1.00  0.00    -0.066 N 
HETATM    9  H   UNL     1      42.510 -18.561   1.680  1.00  0.00     0.280 HD
HETATM   10  C   UNL     1      41.106 -17.638   2.841  1.00  0.00     0.246 C 
HETATM   11  C   UNL     1      40.191 -16.401   2.783  1.00  0.00     0.062 C 
HETATM   12  C   UNL     1      39.745 -16.153   1.348  1.00  0.00     0.020 C 
HETATM   13  C   UNL     1      40.869 -15.174   3.357  1.00  0.00     0.020 A 
HETATM   14  C   UNL     1      40.989 -15.829   0.536  1.00  0.00     0.031 C 
HETATM   15  C   UNL     1      41.618 -14.534   1.058  1.00  0.00     0.138 C 
HETATM   16  C   UNL     1      41.954 -17.017   0.520  1.00  0.00     0.241 C 
HETATM   17  N   UNL     1      41.609 -14.348   2.507  1.00  0.00    -0.317 N 
HETATM   18  C   UNL     1      42.292 -13.216   2.976  1.00  0.00     0.247 A 
HETATM   19  O   UNL     1      42.971 -12.483   2.263  1.00  0.00    -0.268 OA
HETATM   20  C   UNL     1      42.179 -12.929   4.427  1.00  0.00     0.074 A 
HETATM   21  C   UNL     1      41.450 -13.730   5.212  1.00  0.00     0.007 A 
HETATM   22  C   UNL     1      40.781 -14.881   4.666  1.00  0.00     0.026 A 
ENDBRANCH   7   8
ENDBRANCH   2   7
BRANCH   1  23
HETATM   23  O   UNL     1      44.578 -19.541   3.012  1.00  0.00    -0.351 OA
BRANCH  23  24
HETATM   24  C   UNL     1      44.439 -20.956   3.159  1.00  0.00     0.171 C 
HETATM   25  C   UNL     1      43.786 -21.489   1.896  1.00  0.00     0.034 C 
ENDBRANCH  23  24
ENDBRANCH   1  23
BRANCH   4  26
HETATM   26  C   UNL     1      43.904 -16.043   7.382  1.00  0.00     0.150 C 
HETATM   27  N   UNL     1      44.263 -14.822   7.157  1.00  0.00    -0.184 NA
BRANCH  27  28
HETATM   28  N   UNL     1      44.146 -13.937   8.173  1.00  0.00    -0.242 N 
HETATM   29  C   UNL     1      45.086 -12.924   8.312  1.00  0.00     0.292 C 
HETATM   30  O   UNL     1      46.050 -12.761   7.565  1.00  0.00    -0.264 OA
HETATM   31  H   UNL     1      43.394 -13.980   8.860  1.00  0.00     0.192 HD
BRANCH  29  32
HETATM   32  C   UNL     1      44.810 -12.053   9.463  1.00  0.00     0.148 A 
HETATM   33  N   UNL     1      45.794 -11.449  10.159  1.00  0.00    -0.169 NA
HETATM   34  N   UNL     1      45.139 -10.751  11.107  1.00  0.00    -0.281 N 
HETATM   35  H   UNL     1      45.687 -10.195  11.757  1.00  0.00     0.189 HD
HETATM   36  C   UNL     1      43.774 -10.891  11.066  1.00  0.00     0.038 A 
HETATM   37  C   UNL     1      43.539 -11.725   9.992  1.00  0.00     0.066 A 
BRANCH  36  38
HETATM   38  C   UNL     1      42.839 -10.191  12.030  1.00  0.00    -0.007 C 
HETATM   39  C   UNL     1      41.874 -11.222  12.640  1.00  0.00     0.021 C 
HETATM   40  C   UNL     1      43.634  -9.522  13.170  1.00  0.00     0.021 C 
HETATM   41  C   UNL     1      42.026  -9.093  11.316  1.00  0.00     0.021 C 
ENDBRANCH  36  38
ENDBRANCH  29  32
ENDBRANCH  27  28
ENDBRANCH   4  26
TORSDOF 8
ENDMDL
MODEL 2
REMARK VINA RESULT:      -9.0      2.991      5.308
REMARK  8 active torsions:
REMARK  status: ('A' for Active; 'I' for Inactive)
REMARK    1  A    between atoms: C_2  and  O_3 
REMARK    2  A    between atoms: O_3  and  C_4 
REMARK    3  A    between atoms: C_5  and  C_6 
REMARK    4  A    between atoms: C_6  and  N_7 
REMARK    5  A    between atoms: C_23  and  C_24 
REMARK    6  A    between atoms: N_25  and  N_26 
REMARK       I    between atoms: N_26  and  C_27 
REMARK    7  A    between atoms: C_27  and  C_28 
REMARK    8  A    between atoms: C_32  and  C_33 
ROOT
HETATM    1  C   UNL     1      38.906 -13.801   1.966  1.00  0.00     0.076 A 
HETATM    2  C   UNL     1      39.612 -14.655   2.837  1.00  0.00     0.002 A 
HETATM    3  C   UNL     1      40.127 -14.113   4.021  1.00  0.00     0.024 A 
HETATM    4  C   UNL     1      39.890 -12.778   4.375  1.00  0.00    -0.016 A 
HETATM    5  C   UNL     1      39.190 -11.941   3.516  1.00  0.00     0.016 A 
HETATM    6  C   UNL     1      38.706 -12.455   2.307  1.00  0.00     0.038 A 
ENDROOT
BRANCH   2   7
HETATM    7  C   UNL     1      39.841 -16.099   2.443  1.00  0.00     0.276 C 
BRANCH   7   8
HETATM    8  N   UNL     1      40.750 -16.358   1.239  1.00  0.00    -0.066 N 
HETATM    9  H   UNL     1      40.125 -16.184   0.443  1.00  0.00     0.280 HD
HETATM   10  C   UNL     1      41.895 -15.371   1.057  1.00  0.00     0.246 C 
HETATM   11  C   UNL     1      43.225 -15.836   1.682  1.00  0.00     0.062 C 
HETATM   12  C   UNL     1      43.580 -17.224   1.170  1.00  0.00     0.020 C 
HETATM   13  C   UNL     1      43.169 -15.816   3.195  1.00  0.00     0.020 A 
HETATM   14  C   UNL     1      42.501 -18.178   1.655  1.00  0.00     0.031 C 
HETATM   15  C   UNL     1      42.513 -18.230   3.185  1.00  0.00     0.138 C 
HETATM   16  C   UNL     1      41.139 -17.804   1.063  1.00  0.00     0.241 C 
HETATM   17  N   UNL     1      42.747 -16.962   3.874  1.00  0.00    -0.317 N 
HETATM   18  C   UNL     1      42.638 -17.004   5.272  1.00  0.00     0.247 A 
HETATM   19  O   UNL     1      42.247 -17.985   5.898  1.00  0.00    -0.268 OA
HETATM   20  C   UNL     1      43.008 -15.766   6.001  1.00  0.00     0.074 A 
HETATM   21  C   UNL     1      43.423 -14.691   5.325  1.00  0.00     0.007 A 
HETATM   22  C   UNL     1      43.504 -14.714   3.888  1.00  0.00     0.026 A 
ENDBRANCH   7   8
ENDBRANCH   2   7
BRANCH   1  23
HETATM   23  O   UNL     1      38.467 -14.390   0.811  1.00  0.00    -0.351 OA
BRANCH  23  24
HETATM   24  C   UNL     1      38.279 -13.558  -0.336  1.00  0.00     0.171 C 
HETATM   25  C   UNL     1      39.440 -13.808  -1.283  1.00  0.00     0.034 C 
ENDBRANCH  23  24
ENDBRANCH   1  23
BRANCH   4  26
HETATM   26  C   UNL     1      40.360 -12.307   5.696  1.00  0.00     0.150 C 
HETATM   27  N   UNL     1      39.533 -12.351   6.688  1.00  0.00    -0.184 NA
BRANCH  27  28
HETATM   28  N   UNL     1      39.968 -11.898   7.887  1.00  0.00    -0.242 N 
HETATM   29  C   UNL     1      39.478 -10.699   8.387  1.00  0.00     0.292 C 
HETATM   30  O   UNL     1      38.657  -9.987   7.810  1.00  0.00    -0.264 OA
HETATM   31  H   UNL     1      40.655 -12.399   8.450  1.00  0.00     0.192 HD
BRANCH  29  32
HETATM   32  C   UNL     1      40.052 -10.358   9.695  1.00  0.00     0.148 A 
HETATM   33  N   UNL     1      39.289  -9.957  10.732  1.00  0.00    -0.169 NA
HETATM   34  N   UNL     1      40.175  -9.754  11.727  1.00  0.00    -0.281 N 
HETATM   35  H   UNL     1      39.820  -9.452  12.629  1.00  0.00     0.189 HD
HETATM   36  C   UNL     1      41.480  -9.987  11.373  1.00  0.00     0.038 A 
HETATM   37  C   UNL     1      41.420 -10.396  10.057  1.00  0.00     0.066 A 
BRANCH  36  38
HETATM   38  C   UNL     1      42.641  -9.830  12.334  1.00  0.00    -0.007 C 
HETATM   39  C   UNL     1      42.772  -8.350  12.734  1.00  0.00     0.021 C 
HETATM   40  C   UNL     1      42.409 -10.668  13.608  1.00  0.00     0.021 C 
HETATM   41  C   UNL     1      43.960 -10.302  11.693  1.00  0.00     0.021 C 
ENDBRANCH  36  38
ENDBRANCH  29  32
ENDBRANCH  27  28
ENDBRANCH   4  26
TORSDOF 8
ENDMDL
MODEL 3
REMARK VINA RESULT:      -8.2      1.924      2.455
REMARK  8 active torsions:
REMARK  status: ('A' for Active; 'I' for Inactive)
REMARK    1  A    between atoms: C_2  and  O_3 
REMARK    2  A    between atoms: O_3  and  C_4 
REMARK    3  A    between atoms: C_5  and  C_6 
REMARK    4  A    between atoms: C_6  and  N_7 
REMARK    5  A    between atoms: C_23  and  C_24 
REMARK    6  A    between atoms: N_25  and  N_26 
REMARK       I    between atoms: N_26  and  C_27 
REMARK    7  A    between atoms: C_27  and  C_28 
REMARK    8  A    between atoms: C_32  and  C_33 
ROOT
HETATM    1  C   UNL     1      42.860 -16.636   2.713  1.00  0.00     0.076 A 
HETATM    2  C   UNL     1      42.382 -15.327   2.502  1.00  0.00     0.002 A 
HETATM    3  C   UNL     1      42.228 -14.493   3.616  1.00  0.00     0.024 A 
HETATM    4  C   UNL     1      42.604 -14.912   4.899  1.00  0.00    -0.016 A 
HETATM    5  C   UNL     1      43.079 -16.201   5.101  1.00  0.00     0.016 A 
HETATM    6  C   UNL     1      43.198 -17.065   4.006  1.00  0.00     0.038 A 
ENDROOT
BRANCH   2   7
HETATM    7  C   UNL     1      41.999 -14.889   1.105  1.00  0.00     0.276 C 
BRANCH   7   8
HETATM    8  N   UNL     1      40.667 -15.404   0.553  1.00  0.00    -0.066 N 
HETATM    9  H   UNL     1      40.870 -16.392   0.361  1.00  0.00     0.280 HD
HETATM   10  C   UNL     1      39.511 -15.428   1.544  1.00  0.00     0.246 C 
HETATM   11  C   UNL     1      38.616 -14.176   1.491  1.00  0.00     0.062 C 
HETATM   12  C   UNL     1      38.140 -13.939   0.064  1.00  0.00     0.020 C 
HETATM   13  C   UNL     1      39.330 -12.954   2.031  1.00  0.00     0.020 A 
HETATM   14  C   UNL     1      39.369 -13.648  -0.782  1.00  0.00     0.031 C 
HETATM   15  C   UNL     1      40.033 -12.358  -0.294  1.00  0.00     0.138 C 
HETATM   16  C   UNL     1      40.312 -14.854  -0.806  1.00  0.00     0.241 C 
HETATM   17  N   UNL     1      40.063 -12.152   1.152  1.00  0.00    -0.317 N 
HETATM   18  C   UNL     1      40.777 -11.026   1.589  1.00  0.00     0.247 A 
HETATM   19  O   UNL     1      41.451 -10.316   0.849  1.00  0.00    -0.268 OA
HETATM   20  C   UNL     1      40.705 -10.719   3.038  1.00  0.00     0.074 A 
HETATM   21  C   UNL     1      39.982 -11.496   3.851  1.00  0.00     0.007 A 
HETATM   22  C   UNL     1      39.280 -12.642   3.338  1.00  0.00     0.026 A 
ENDBRANCH   7   8
ENDBRANCH   2   7
BRANCH   1  23
HETATM   23  O   UNL     1      42.947 -17.407   1.585  1.00  0.00    -0.351 OA
BRANCH  23  24
HETATM   24  C   UNL     1      43.982 -18.391   1.524  1.00  0.00     0.171 C 
HETATM   25  C   UNL     1      43.345 -19.746   1.774  1.00  0.00     0.034 C 
ENDBRANCH  23  24
ENDBRANCH   1  23
BRANCH   4  26
HETATM   26  C   UNL     1      42.528 -13.937   6.008  1.00  0.00     0.150 C 
HETATM   27  N   UNL     1      43.625 -13.606   6.606  1.00  0.00    -0.184 NA
BRANCH  27  28
HETATM   28  N   UNL     1      43.539 -12.729   7.632  1.00  0.00    -0.242 N 
HETATM   29  C   UNL     1      44.628 -12.550   8.475  1.00  0.00     0.292 C 
HETATM   30  O   UNL     1      45.699 -13.146   8.366  1.00  0.00    -0.264 OA
HETATM   31  H   UNL     1      42.698 -12.186   7.827  1.00  0.00     0.192 HD
BRANCH  29  32
HETATM   32  C   UNL     1      44.367 -11.563   9.532  1.00  0.00     0.148 A 
HETATM   33  N   UNL     1      45.188 -10.518   9.758  1.00  0.00    -0.169 NA
HETATM   34  N   UNL     1      44.605  -9.863  10.781  1.00  0.00    -0.281 N 
HETATM   35  H   UNL     1      45.050  -9.017  11.123  1.00  0.00     0.189 HD
HETATM   36  C   UNL     1      43.453 -10.450  11.240  1.00  0.00     0.038 A 
HETATM   37  C   UNL     1      43.272 -11.552  10.429  1.00  0.00     0.066 A 
BRANCH  36  38
HETATM   38  C   UNL     1      42.628  -9.882  12.377  1.00  0.00    -0.007 C 
HETATM   39  C   UNL     1      41.637 -10.951  12.868  1.00  0.00     0.021 C 
HETATM   40  C   UNL     1      43.535  -9.470  13.554  1.00  0.00     0.021 C 
HETATM   41  C   UNL     1      41.846  -8.633  11.925  1.00  0.00     0.021 C 
ENDBRANCH  36  38
ENDBRANCH  29  32
ENDBRANCH  27  28
ENDBRANCH   4  26
TORSDOF 8
ENDMDL
MODEL 4
REMARK VINA RESULT:      -7.9      3.433      4.311
REMARK  8 active torsions:
REMARK  status: ('A' for Active; 'I' for Inactive)
REMARK    1  A    between atoms: C_2  and  O_3 
REMARK    2  A    between atoms: O_3  and  C_4 
REMARK    3  A    between atoms: C_5  and  C_6 
REMARK    4  A    between atoms: C_6  and  N_7 
REMARK    5  A    between atoms: C_23  and  C_24 
REMARK    6  A    between atoms: N_25  and  N_26 
REMARK       I    between atoms: N_26  and  C_27 
REMARK    7  A    between atoms: C_27  and  C_28 
REMARK    8  A    between atoms: C_32  and  C_33 
ROOT
HETATM    1  C   UNL     1      41.341 -16.677   2.653  1.00  0.00     0.076 A 
HETATM    2  C   UNL     1      40.977 -15.317   2.577  1.00  0.00     0.002 A 
HETATM    3  C   UNL     1      40.646 -14.655   3.766  1.00  0.00     0.024 A 
HETATM    4  C   UNL     1      40.742 -15.295   5.009  1.00  0.00    -0.016 A 
HETATM    5  C   UNL     1      41.106 -16.633   5.078  1.00  0.00     0.016 A 
HETATM    6  C   UNL     1      41.396 -17.324   3.896  1.00  0.00     0.038 A 
ENDROOT
BRANCH   2   7
HETATM    7  C   UNL     1      40.898 -14.640   1.225  1.00  0.00     0.276 C 
BRANCH   7   8
HETATM    8  N   UNL     1      39.614 -14.845   0.417  1.00  0.00    -0.066 N 
HETATM    9  H   UNL     1      39.595 -15.862   0.280  1.00  0.00     0.280 HD
HETATM   10  C   UNL     1      38.318 -14.527   1.150  1.00  0.00     0.246 C 
HETATM   11  C   UNL     1      37.796 -13.098   0.904  1.00  0.00     0.062 C 
HETATM   12  C   UNL     1      37.685 -12.838  -0.592  1.00  0.00     0.020 C 
HETATM   13  C   UNL     1      38.674 -12.059   1.569  1.00  0.00     0.020 A 
HETATM   14  C   UNL     1      39.088 -12.908  -1.171  1.00  0.00     0.031 C 
HETATM   15  C   UNL     1      39.947 -11.793  -0.569  1.00  0.00     0.138 C 
HETATM   16  C   UNL     1      39.683 -14.307  -0.990  1.00  0.00     0.241 C 
HETATM   17  N   UNL     1      39.743 -11.515   0.852  1.00  0.00    -0.317 N 
HETATM   18  C   UNL     1      40.617 -10.574   1.416  1.00  0.00     0.247 A 
HETATM   19  O   UNL     1      41.581 -10.095   0.824  1.00  0.00    -0.268 OA
HETATM   20  C   UNL     1      40.342 -10.172   2.817  1.00  0.00     0.074 A 
HETATM   21  C   UNL     1      39.302 -10.698   3.471  1.00  0.00     0.007 A 
HETATM   22  C   UNL     1      38.448 -11.666   2.834  1.00  0.00     0.026 A 
ENDBRANCH   7   8
ENDBRANCH   2   7
BRANCH   1  23
HETATM   23  O   UNL     1      41.612 -17.268   1.448  1.00  0.00    -0.351 OA
BRANCH  23  24
HETATM   24  C   UNL     1      42.734 -18.151   1.374  1.00  0.00     0.171 C 
HETATM   25  C   UNL     1      43.988 -17.298   1.289  1.00  0.00     0.034 C 
ENDBRANCH  23  24
ENDBRANCH   1  23
BRANCH   4  26
HETATM   26  C   UNL     1      40.494 -14.499   6.230  1.00  0.00     0.150 C 
HETATM   27  N   UNL     1      39.651 -13.523   6.161  1.00  0.00    -0.184 NA
BRANCH  27  28
HETATM   28  N   UNL     1      39.448 -12.790   7.280  1.00  0.00    -0.242 N 
HETATM   29  C   UNL     1      40.010 -11.525   7.384  1.00  0.00     0.292 C 
HETATM   30  O   UNL     1      40.705 -10.998   6.515  1.00  0.00    -0.264 OA
HETATM   31  H   UNL     1      38.898 -13.128   8.069  1.00  0.00     0.192 HD
BRANCH  29  32
HETATM   32  C   UNL     1      39.691 -10.868   8.658  1.00  0.00     0.148 A 
HETATM   33  N   UNL     1      38.464 -10.377   8.927  1.00  0.00    -0.169 NA
HETATM   34  N   UNL     1      38.580  -9.875  10.171  1.00  0.00    -0.281 N 
HETATM   35  H   UNL     1      37.760  -9.454  10.596  1.00  0.00     0.189 HD
HETATM   36  C   UNL     1      39.835 -10.002  10.713  1.00  0.00     0.038 A 
HETATM   37  C   UNL     1      40.570 -10.660   9.748  1.00  0.00     0.066 A 
BRANCH  36  38
HETATM   38  C   UNL     1      40.191  -9.516  12.103  1.00  0.00    -0.007 C 
HETATM   39  C   UNL     1      41.340  -8.497  12.005  1.00  0.00     0.021 C 
HETATM   40  C   UNL     1      38.979  -8.831  12.767  1.00  0.00     0.021 C 
HETATM   41  C   UNL     1      40.624 -10.687  13.007  1.00  0.00     0.021 C 
ENDBRANCH  36  38
ENDBRANCH  29  32
ENDBRANCH  27  28
ENDBRANCH   4  26
TORSDOF 8
ENDMDL
MODEL 5
REMARK VINA RESULT:      -7.9      3.453      4.590
REMARK  8 active torsions:
REMARK  status: ('A' for Active; 'I' for Inactive)
REMARK    1  A    between atoms: C_2  and  O_3 
REMARK    2  A    between atoms: O_3  and  C_4 
REMARK    3  A    between atoms: C_5  and  C_6 
REMARK    4  A    between atoms: C_6  and  N_7 
REMARK    5  A    between atoms: C_23  and  C_24 
REMARK    6  A    between atoms: N_25  and  N_26 
REMARK       I    between atoms: N_26  and  C_27 
REMARK    7  A    between atoms: C_27  and  C_28 
REMARK    8  A    between atoms: C_32  and  C_33 
ROOT
HETATM    1  C   UNL     1      41.557 -16.697   2.458  1.00  0.00     0.076 A 
HETATM    2  C   UNL     1      41.303 -15.320   2.293  1.00  0.00     0.002 A 
HETATM    3  C   UNL     1      40.855 -14.593   3.403  1.00  0.00     0.024 A 
HETATM    4  C   UNL     1      40.730 -15.191   4.665  1.00  0.00    -0.016 A 
HETATM    5  C   UNL     1      40.986 -16.547   4.823  1.00  0.00     0.016 A 
HETATM    6  C   UNL     1      41.391 -17.299   3.714  1.00  0.00     0.038 A 
ENDROOT
BRANCH   2   7
HETATM    7  C   UNL     1      41.463 -14.690   0.926  1.00  0.00     0.276 C 
BRANCH   7   8
HETATM    8  N   UNL     1      40.422 -15.055  -0.136  1.00  0.00    -0.066 N 
HETATM    9  H   UNL     1      40.106 -15.983   0.169  1.00  0.00     0.280 HD
HETATM   10  C   UNL     1      39.164 -14.198  -0.144  1.00  0.00     0.246 C 
HETATM   11  C   UNL     1      39.214 -13.024  -1.140  1.00  0.00     0.062 C 
HETATM   12  C   UNL     1      39.563 -13.539  -2.530  1.00  0.00     0.020 C 
HETATM   13  C   UNL     1      40.193 -11.956  -0.698  1.00  0.00     0.020 A 
HETATM   14  C   UNL     1      40.963 -14.126  -2.458  1.00  0.00     0.031 C 
HETATM   15  C   UNL     1      41.965 -13.022  -2.107  1.00  0.00     0.138 C 
HETATM   16  C   UNL     1      41.005 -15.320  -1.501  1.00  0.00     0.241 C 
HETATM   17  N   UNL     1      41.522 -12.036  -1.122  1.00  0.00    -0.317 N 
HETATM   18  C   UNL     1      42.490 -11.102  -0.723  1.00  0.00     0.247 A 
HETATM   19  O   UNL     1      43.670 -11.157  -1.056  1.00  0.00    -0.268 OA
HETATM   20  C   UNL     1      42.027 -10.010   0.166  1.00  0.00     0.074 A 
HETATM   21  C   UNL     1      40.745  -9.951   0.542  1.00  0.00     0.007 A 
HETATM   22  C   UNL     1      39.805 -10.948   0.102  1.00  0.00     0.026 A 
ENDBRANCH   7   8
ENDBRANCH   2   7
BRANCH   1  23
HETATM   23  O   UNL     1      41.953 -17.350   1.322  1.00  0.00    -0.351 OA
BRANCH  23  24
HETATM   24  C   UNL     1      43.082 -18.221   1.410  1.00  0.00     0.171 C 
HETATM   25  C   UNL     1      44.331 -17.358   1.420  1.00  0.00     0.034 C 
ENDBRANCH  23  24
ENDBRANCH   1  23
BRANCH   4  26
HETATM   26  C   UNL     1      40.370 -14.336   5.816  1.00  0.00     0.150 C 
HETATM   27  N   UNL     1      40.942 -13.182   5.921  1.00  0.00    -0.184 NA
BRANCH  27  28
HETATM   28  N   UNL     1      40.620 -12.417   6.989  1.00  0.00    -0.242 N 
HETATM   29  C   UNL     1      39.606 -11.474   6.877  1.00  0.00     0.292 C 
HETATM   30  O   UNL     1      38.957 -11.267   5.852  1.00  0.00    -0.264 OA
HETATM   31  H   UNL     1      41.096 -12.493   7.886  1.00  0.00     0.192 HD
BRANCH  29  32
HETATM   32  C   UNL     1      39.385 -10.733   8.126  1.00  0.00     0.148 A 
HETATM   33  N   UNL     1      38.509  -9.712   8.211  1.00  0.00    -0.169 NA
HETATM   34  N   UNL     1      38.595  -9.316   9.495  1.00  0.00    -0.281 N 
HETATM   35  H   UNL     1      38.003  -8.549   9.801  1.00  0.00     0.189 HD
HETATM   36  C   UNL     1      39.503 -10.025  10.242  1.00  0.00     0.038 A 
HETATM   37  C   UNL     1      40.018 -10.963   9.371  1.00  0.00     0.066 A 
BRANCH  36  38
HETATM   38  C   UNL     1      39.758  -9.757  11.711  1.00  0.00    -0.007 C 
HETATM   39  C   UNL     1      40.144 -11.074  12.407  1.00  0.00     0.021 C 
HETATM   40  C   UNL     1      40.910  -8.748  11.888  1.00  0.00     0.021 C 
HETATM   41  C   UNL     1      38.507  -9.169  12.393  1.00  0.00     0.021 C 
ENDBRANCH  36  38
ENDBRANCH  29  32
ENDBRANCH  27  28
ENDBRANCH   4  26
TORSDOF 8
ENDMDL
MODEL 6
REMARK VINA RESULT:      -7.7      3.940      6.645
REMARK  8 active torsions:
REMARK  status: ('A' for Active; 'I' for Inactive)
REMARK    1  A    between atoms: C_2  and  O_3 
REMARK    2  A    between atoms: O_3  and  C_4 
REMARK    3  A    between atoms: C_5  and  C_6 
REMARK    4  A    between atoms: C_6  and  N_7 
REMARK    5  A    between atoms: C_23  and  C_24 
REMARK    6  A    between atoms: N_25  and  N_26 
REMARK       I    between atoms: N_26  and  C_27 
REMARK    7  A    between atoms: C_27  and  C_28 
REMARK    8  A    between atoms: C_32  and  C_33 
ROOT
HETATM    1  C   UNL     1      37.314 -11.539   0.934  1.00  0.00     0.076 A 
HETATM    2  C   UNL     1      38.188 -12.622   1.151  1.00  0.00     0.002 A 
HETATM    3  C   UNL     1      38.905 -12.661   2.354  1.00  0.00     0.024 A 
HETATM    4  C   UNL     1      38.712 -11.695   3.350  1.00  0.00    -0.016 A 
HETATM    5  C   UNL     1      37.845 -10.632   3.132  1.00  0.00     0.016 A 
HETATM    6  C   UNL     1      37.154 -10.552   1.918  1.00  0.00     0.038 A 
ENDROOT
BRANCH   2   7
HETATM    7  C   UNL     1      38.368 -13.666   0.069  1.00  0.00     0.276 C 
BRANCH   7   8
HETATM    8  N   UNL     1      38.975 -13.197  -1.256  1.00  0.00    -0.066 N 
HETATM    9  H   UNL     1      38.177 -12.752  -1.724  1.00  0.00     0.280 HD
HETATM   10  C   UNL     1      40.025 -12.100  -1.147  1.00  0.00     0.246 C 
HETATM   11  C   UNL     1      41.473 -12.624  -1.104  1.00  0.00     0.062 C 
HETATM   12  C   UNL     1      41.728 -13.541  -2.292  1.00  0.00     0.020 C 
HETATM   13  C   UNL     1      41.774 -13.332   0.200  1.00  0.00     0.020 A 
HETATM   14  C   UNL     1      40.812 -14.745  -2.141  1.00  0.00     0.031 C 
HETATM   15  C   UNL     1      41.184 -15.515  -0.870  1.00  0.00     0.138 C 
HETATM   16  C   UNL     1      39.342 -14.321  -2.193  1.00  0.00     0.241 C 
HETATM   17  N   UNL     1      41.547 -14.708   0.293  1.00  0.00    -0.317 N 
HETATM   18  C   UNL     1      41.770 -15.422   1.479  1.00  0.00     0.247 A 
HETATM   19  O   UNL     1      41.557 -16.625   1.603  1.00  0.00    -0.268 OA
HETATM   20  C   UNL     1      42.275 -14.643   2.636  1.00  0.00     0.074 A 
HETATM   21  C   UNL     1      42.497 -13.330   2.511  1.00  0.00     0.007 A 
HETATM   22  C   UNL     1      42.239 -12.657   1.266  1.00  0.00     0.026 A 
ENDBRANCH   7   8
ENDBRANCH   2   7
BRANCH   1  23
HETATM   23  O   UNL     1      36.678 -11.547  -0.279  1.00  0.00    -0.351 OA
BRANCH  23  24
HETATM   24  C   UNL     1      35.995 -10.358  -0.684  1.00  0.00     0.171 C 
HETATM   25  C   UNL     1      34.514 -10.684  -0.772  1.00  0.00     0.034 C 
ENDBRANCH  23  24
ENDBRANCH   1  23
BRANCH   4  26
HETATM   26  C   UNL     1      39.411 -11.866   4.641  1.00  0.00     0.150 C 
HETATM   27  N   UNL     1      39.019 -11.155   5.646  1.00  0.00    -0.184 NA
BRANCH  27  28
HETATM   28  N   UNL     1      39.680 -11.306   6.817  1.00  0.00    -0.242 N 
HETATM   29  C   UNL     1      40.430 -10.253   7.323  1.00  0.00     0.292 C 
HETATM   30  O   UNL     1      40.552  -9.158   6.774  1.00  0.00    -0.264 OA
HETATM   31  H   UNL     1      39.660 -12.172   7.355  1.00  0.00     0.192 HD
BRANCH  29  32
HETATM   32  C   UNL     1      41.079 -10.584   8.598  1.00  0.00     0.148 A 
HETATM   33  N   UNL     1      40.390 -11.068   9.651  1.00  0.00    -0.169 NA
HETATM   34  N   UNL     1      41.330 -11.245  10.600  1.00  0.00    -0.281 N 
HETATM   35  H   UNL     1      41.039 -11.620  11.498  1.00  0.00     0.189 HD
HETATM   36  C   UNL     1      42.594 -10.877  10.214  1.00  0.00     0.038 A 
HETATM   37  C   UNL     1      42.455 -10.457   8.907  1.00  0.00     0.066 A 
BRANCH  36  38
HETATM   38  C   UNL     1      43.805 -10.996  11.117  1.00  0.00    -0.007 C 
HETATM   39  C   UNL     1      43.957 -12.458  11.572  1.00  0.00     0.021 C 
HETATM   40  C   UNL     1      45.086 -10.576  10.368  1.00  0.00     0.021 C 
HETATM   41  C   UNL     1      43.665 -10.090  12.356  1.00  0.00     0.021 C 
ENDBRANCH  36  38
ENDBRANCH  29  32
ENDBRANCH  27  28
ENDBRANCH   4  26
TORSDOF 8
ENDMDL
MODEL 7
REMARK VINA RESULT:      -7.7      4.348      9.776
REMARK  8 active torsions:
REMARK  status: ('A' for Active; 'I' for Inactive)
REMARK    1  A    between atoms: C_2  and  O_3 
REMARK    2  A    between atoms: O_3  and  C_4 
REMARK    3  A    between atoms: C_5  and  C_6 
REMARK    4  A    between atoms: C_6  and  N_7 
REMARK    5  A    between atoms: C_23  and  C_24 
REMARK    6  A    between atoms: N_25  and  N_26 
REMARK       I    between atoms: N_26  and  C_27 
REMARK    7  A    between atoms: C_27  and  C_28 
REMARK    8  A    between atoms: C_32  and  C_33 
ROOT
HETATM    1  C   UNL     1      42.345 -12.821   5.507  1.00  0.00     0.076 A 
HETATM    2  C   UNL     1      42.857 -13.654   4.492  1.00  0.00     0.002 A 
HETATM    3  C   UNL     1      42.500 -13.376   3.166  1.00  0.00     0.024 A 
HETATM    4  C   UNL     1      41.715 -12.262   2.841  1.00  0.00    -0.016 A 
HETATM    5  C   UNL     1      41.216 -11.442   3.845  1.00  0.00     0.016 A 
HETATM    6  C   UNL     1      41.527 -11.730   5.179  1.00  0.00     0.038 A 
ENDROOT
BRANCH   2   7
HETATM    7  C   UNL     1      43.719 -14.842   4.864  1.00  0.00     0.276 C 
BRANCH   7   8
HETATM    8  N   UNL     1      43.118 -15.861   5.835  1.00  0.00    -0.066 N 
HETATM    9  H   UNL     1      43.187 -15.380   6.739  1.00  0.00     0.280 HD
HETATM   10  C   UNL     1      41.632 -16.143   5.656  1.00  0.00     0.246 C 
HETATM   11  C   UNL     1      41.331 -17.369   4.774  1.00  0.00     0.062 C 
HETATM   12  C   UNL     1      42.082 -18.584   5.302  1.00  0.00     0.020 C 
HETATM   13  C   UNL     1      41.672 -17.112   3.322  1.00  0.00     0.020 A 
HETATM   14  C   UNL     1      43.567 -18.292   5.169  1.00  0.00     0.031 C 
HETATM   15  C   UNL     1      43.928 -18.129   3.690  1.00  0.00     0.138 C 
HETATM   16  C   UNL     1      43.966 -17.093   6.034  1.00  0.00     0.241 C 
HETATM   17  N   UNL     1      42.955 -17.420   2.861  1.00  0.00    -0.317 N 
HETATM   18  C   UNL     1      43.351 -17.176   1.538  1.00  0.00     0.247 A 
HETATM   19  O   UNL     1      44.477 -17.410   1.108  1.00  0.00    -0.268 OA
HETATM   20  C   UNL     1      42.330 -16.583   0.641  1.00  0.00     0.074 A 
HETATM   21  C   UNL     1      41.106 -16.315   1.106  1.00  0.00     0.007 A 
HETATM   22  C   UNL     1      40.768 -16.583   2.479  1.00  0.00     0.026 A 
ENDBRANCH   7   8
ENDBRANCH   2   7
BRANCH   1  23
HETATM   23  O   UNL     1      42.705 -13.177   6.779  1.00  0.00    -0.351 OA
BRANCH  23  24
HETATM   24  C   UNL     1      43.606 -12.320   7.484  1.00  0.00     0.171 C 
HETATM   25  C   UNL     1      44.747 -13.177   8.003  1.00  0.00     0.034 C 
ENDBRANCH  23  24
ENDBRANCH   1  23
BRANCH   4  26
HETATM   26  C   UNL     1      41.478 -11.962   1.413  1.00  0.00     0.150 C 
HETATM   27  N   UNL     1      42.415 -12.239   0.568  1.00  0.00    -0.184 NA
BRANCH  27  28
HETATM   28  N   UNL     1      42.195 -11.941  -0.734  1.00  0.00    -0.242 N 
HETATM   29  C   UNL     1      43.023 -11.034  -1.381  1.00  0.00     0.292 C 
HETATM   30  O   UNL     1      43.972 -10.456  -0.851  1.00  0.00    -0.264 OA
HETATM   31  H   UNL     1      41.433 -12.352  -1.272  1.00  0.00     0.192 HD
BRANCH  29  32
HETATM   32  C   UNL     1      42.646 -10.828  -2.785  1.00  0.00     0.148 A 
HETATM   33  N   UNL     1      42.358 -11.854  -3.611  1.00  0.00    -0.169 NA
HETATM   34  N   UNL     1      42.060 -11.256  -4.780  1.00  0.00    -0.281 N 
HETATM   35  H   UNL     1      41.795 -11.844  -5.565  1.00  0.00     0.189 HD
HETATM   36  C   UNL     1      42.161  -9.887  -4.753  1.00  0.00     0.038 A 
HETATM   37  C   UNL     1      42.527  -9.587  -3.457  1.00  0.00     0.066 A 
BRANCH  36  38
HETATM   38  C   UNL     1      41.865  -9.009  -5.952  1.00  0.00    -0.007 C 
HETATM   39  C   UNL     1      41.568  -9.899  -7.171  1.00  0.00     0.021 C 
HETATM   40  C   UNL     1      40.637  -8.116  -5.681  1.00  0.00     0.021 C 
HETATM   41  C   UNL     1      43.057  -8.087  -6.273  1.00  0.00     0.021 C 
ENDBRANCH  36  38
ENDBRANCH  29  32
ENDBRANCH  27  28
ENDBRANCH   4  26
TORSDOF 8
ENDMDL
MODEL 8
REMARK VINA RESULT:      -7.6      5.022      8.679
REMARK  8 active torsions:
REMARK  status: ('A' for Active; 'I' for Inactive)
REMARK    1  A    between atoms: C_2  and  O_3 
REMARK    2  A    between atoms: O_3  and  C_4 
REMARK    3  A    between atoms: C_5  and  C_6 
REMARK    4  A    between atoms: C_6  and  N_7 
REMARK    5  A    between atoms: C_23  and  C_24 
REMARK    6  A    between atoms: N_25  and  N_26 
REMARK       I    between atoms: N_26  and  C_27 
REMARK    7  A    between atoms: C_27  and  C_28 
REMARK    8  A    between atoms: C_32  and  C_33 
ROOT
HETATM    1  C   UNL     1      42.919 -13.262   5.229  1.00  0.00     0.076 A 
HETATM    2  C   UNL     1      42.304 -13.515   3.986  1.00  0.00     0.002 A 
HETATM    3  C   UNL     1      40.995 -13.055   3.792  1.00  0.00     0.024 A 
HETATM    4  C   UNL     1      40.333 -12.301   4.770  1.00  0.00    -0.016 A 
HETATM    5  C   UNL     1      40.946 -12.051   5.991  1.00  0.00     0.016 A 
HETATM    6  C   UNL     1      42.237 -12.541   6.221  1.00  0.00     0.038 A 
ENDROOT
BRANCH   2   7
HETATM    7  C   UNL     1      43.045 -14.315   2.936  1.00  0.00     0.276 C 
BRANCH   7   8
HETATM    8  N   UNL     1      43.162 -15.824   3.164  1.00  0.00    -0.066 N 
HETATM    9  H   UNL     1      43.844 -15.884   3.929  1.00  0.00     0.280 HD
HETATM   10  C   UNL     1      41.912 -16.506   3.703  1.00  0.00     0.246 C 
HETATM   11  C   UNL     1      41.017 -17.123   2.611  1.00  0.00     0.062 C 
HETATM   12  C   UNL     1      41.840 -18.053   1.731  1.00  0.00     0.020 C 
HETATM   13  C   UNL     1      40.333 -16.057   1.781  1.00  0.00     0.020 A 
HETATM   14  C   UNL     1      42.885 -17.204   1.026  1.00  0.00     0.031 C 
HETATM   15  C   UNL     1      42.191 -16.191   0.111  1.00  0.00     0.138 C 
HETATM   16  C   UNL     1      43.840 -16.564   2.038  1.00  0.00     0.241 C 
HETATM   17  N   UNL     1      40.967 -15.583   0.630  1.00  0.00    -0.317 N 
HETATM   18  C   UNL     1      40.409 -14.573  -0.168  1.00  0.00     0.247 A 
HETATM   19  O   UNL     1      40.951 -14.115  -1.169  1.00  0.00    -0.268 OA
HETATM   20  C   UNL     1      39.095 -14.039   0.266  1.00  0.00     0.074 A 
HETATM   21  C   UNL     1      38.505 -14.524   1.363  1.00  0.00     0.007 A 
HETATM   22  C   UNL     1      39.138 -15.556   2.141  1.00  0.00     0.026 A 
ENDBRANCH   7   8
ENDBRANCH   2   7
BRANCH   1  23
HETATM   23  O   UNL     1      44.182 -13.774   5.362  1.00  0.00    -0.351 OA
BRANCH  23  24
HETATM   24  C   UNL     1      44.571 -14.273   6.643  1.00  0.00     0.171 C 
HETATM   25  C   UNL     1      44.125 -15.722   6.730  1.00  0.00     0.034 C 
ENDBRANCH  23  24
ENDBRANCH   1  23
BRANCH   4  26
HETATM   26  C   UNL     1      39.001 -11.747   4.449  1.00  0.00     0.150 C 
HETATM   27  N   UNL     1      38.746 -11.448   3.218  1.00  0.00    -0.184 NA
BRANCH  27  28
HETATM   28  N   UNL     1      37.531 -10.923   2.939  1.00  0.00    -0.242 N 
HETATM   29  C   UNL     1      37.204 -10.606   1.627  1.00  0.00     0.292 C 
HETATM   30  O   UNL     1      37.954 -10.766   0.664  1.00  0.00    -0.264 OA
HETATM   31  H   UNL     1      36.832 -10.737   3.657  1.00  0.00     0.192 HD
BRANCH  29  32
HETATM   32  C   UNL     1      35.851 -10.049   1.501  1.00  0.00     0.148 A 
HETATM   33  N   UNL     1      35.546  -8.802   1.914  1.00  0.00    -0.169 NA
HETATM   34  N   UNL     1      34.237  -8.675   1.621  1.00  0.00    -0.281 N 
HETATM   35  H   UNL     1      33.782  -7.793   1.837  1.00  0.00     0.189 HD
HETATM   36  C   UNL     1      33.677  -9.792   1.055  1.00  0.00     0.038 A 
HETATM   37  C   UNL     1      34.716 -10.694   0.954  1.00  0.00     0.066 A 
BRANCH  36  38
HETATM   38  C   UNL     1      32.222  -9.870   0.637  1.00  0.00    -0.007 C 
HETATM   39  C   UNL     1      32.131 -10.471  -0.776  1.00  0.00     0.021 C 
HETATM   40  C   UNL     1      31.426 -10.766   1.608  1.00  0.00     0.021 C 
HETATM   41  C   UNL     1      31.569  -8.475   0.640  1.00  0.00     0.021 C 
ENDBRANCH  36  38
ENDBRANCH  29  32
ENDBRANCH  27  28
ENDBRANCH   4  26
TORSDOF 8
ENDMDL
MODEL 9
REMARK VINA RESULT:      -7.6      2.787      4.575
REMARK  8 active torsions:
REMARK  status: ('A' for Active; 'I' for Inactive)
REMARK    1  A    between atoms: C_2  and  O_3 
REMARK    2  A    between atoms: O_3  and  C_4 
REMARK    3  A    between atoms: C_5  and  C_6 
REMARK    4  A    between atoms: C_6  and  N_7 
REMARK    5  A    between atoms: C_23  and  C_24 
REMARK    6  A    between atoms: N_25  and  N_26 
REMARK       I    between atoms: N_26  and  C_27 
REMARK    7  A    between atoms: C_27  and  C_28 
REMARK    8  A    between atoms: C_32  and  C_33 
ROOT
HETATM    1  C   UNL     1      42.057 -14.821   1.940  1.00  0.00     0.076 A 
HETATM    2  C   UNL     1      40.906 -14.192   2.454  1.00  0.00     0.002 A 
HETATM    3  C   UNL     1      40.973 -13.637   3.738  1.00  0.00     0.024 A 
HETATM    4  C   UNL     1      42.168 -13.636   4.470  1.00  0.00    -0.016 A 
HETATM    5  C   UNL     1      43.302 -14.254   3.957  1.00  0.00     0.016 A 
HETATM    6  C   UNL     1      43.240 -14.853   2.694  1.00  0.00     0.038 A 
ENDROOT
BRANCH   2   7
HETATM    7  C   UNL     1      39.630 -14.187   1.638  1.00  0.00     0.276 C 
BRANCH   7   8
HETATM    8  N   UNL     1      38.832 -12.881   1.599  1.00  0.00    -0.066 N 
HETATM    9  H   UNL     1      38.566 -12.751   2.582  1.00  0.00     0.280 HD
HETATM   10  C   UNL     1      39.630 -11.634   1.244  1.00  0.00     0.246 C 
HETATM   11  C   UNL     1      39.581 -11.267  -0.252  1.00  0.00     0.062 C 
HETATM   12  C   UNL     1      38.134 -11.170  -0.714  1.00  0.00     0.020 C 
HETATM   13  C   UNL     1      40.353 -12.258  -1.097  1.00  0.00     0.020 A 
HETATM   14  C   UNL     1      37.518 -12.552  -0.573  1.00  0.00     0.031 C 
HETATM   15  C   UNL     1      38.239 -13.532  -1.503  1.00  0.00     0.138 C 
HETATM   16  C   UNL     1      37.505 -12.995   0.893  1.00  0.00     0.241 C 
HETATM   17  N   UNL     1      39.688 -13.372  -1.614  1.00  0.00    -0.317 N 
HETATM   18  C   UNL     1      40.347 -14.348  -2.375  1.00  0.00     0.247 A 
HETATM   19  O   UNL     1      39.799 -15.352  -2.822  1.00  0.00    -0.268 OA
HETATM   20  C   UNL     1      41.794 -14.131  -2.619  1.00  0.00     0.074 A 
HETATM   21  C   UNL     1      42.399 -13.047  -2.125  1.00  0.00     0.007 A 
HETATM   22  C   UNL     1      41.664 -12.088  -1.344  1.00  0.00     0.026 A 
ENDBRANCH   7   8
ENDBRANCH   2   7
BRANCH   1  23
HETATM   23  O   UNL     1      41.905 -15.374   0.697  1.00  0.00    -0.351 OA
BRANCH  23  24
HETATM   24  C   UNL     1      42.221 -16.759   0.538  1.00  0.00     0.171 C 
HETATM   25  C   UNL     1      41.057 -17.564   1.087  1.00  0.00     0.034 C 
ENDBRANCH  23  24
ENDBRANCH   1  23
BRANCH   4  26
HETATM   26  C   UNL     1      42.198 -12.926   5.767  1.00  0.00     0.150 C 
HETATM   27  N   UNL     1      43.258 -13.036   6.498  1.00  0.00    -0.184 NA
BRANCH  27  28
HETATM   28  N   UNL     1      43.266 -12.398   7.691  1.00  0.00    -0.242 N 
HETATM   29  C   UNL     1      44.363 -12.529   8.532  1.00  0.00     0.292 C 
HETATM   30  O   UNL     1      45.361 -13.202   8.277  1.00  0.00    -0.264 OA
HETATM   31  H   UNL     1      42.490 -11.821   8.013  1.00  0.00     0.192 HD
BRANCH  29  32
HETATM   32  C   UNL     1      44.208 -11.773   9.782  1.00  0.00     0.148 A 
HETATM   33  N   UNL     1      45.245 -11.529  10.607  1.00  0.00    -0.169 NA
HETATM   34  N   UNL     1      44.700 -10.817  11.612  1.00  0.00    -0.281 N 
HETATM   35  H   UNL     1      45.309 -10.504  12.363  1.00  0.00     0.189 HD
HETATM   36  C   UNL     1      43.351 -10.605  11.482  1.00  0.00     0.038 A 
HETATM   37  C   UNL     1      43.013 -11.208  10.288  1.00  0.00     0.066 A 
BRANCH  36  38
HETATM   38  C   UNL     1      42.533  -9.822  12.490  1.00  0.00    -0.007 C 
HETATM   39  C   UNL     1      41.961  -8.565  11.813  1.00  0.00     0.021 C 
HETATM   40  C   UNL     1      41.362 -10.675  13.020  1.00  0.00     0.021 C 
HETATM   41  C   UNL     1      43.394  -9.403  13.697  1.00  0.00     0.021 C 
ENDBRANCH  36  38
ENDBRANCH  29  32
ENDBRANCH  27  28
ENDBRANCH   4  26
TORSDOF 8
ENDMDL
MODEL 10
REMARK VINA RESULT:      -7.2      4.602     10.487
REMARK  8 active torsions:
REMARK  status: ('A' for Active; 'I' for Inactive)
REMARK    1  A    between atoms: C_2  and  O_3 
REMARK    2  A    between atoms: O_3  and  C_4 
REMARK    3  A    between atoms: C_5  and  C_6 
REMARK    4  A    between atoms: C_6  and  N_7 
REMARK    5  A    between atoms: C_23  and  C_24 
REMARK    6  A    between atoms: N_25  and  N_26 
REMARK       I    between atoms: N_26  and  C_27 
REMARK    7  A    between atoms: C_27  and  C_28 
REMARK    8  A    between atoms: C_32  and  C_33 
ROOT
HETATM    1  C   UNL     1      42.528 -13.157   3.754  1.00  0.00     0.076 A 
HETATM    2  C   UNL     1      42.541 -14.067   2.677  1.00  0.00     0.002 A 
HETATM    3  C   UNL     1      41.519 -13.976   1.724  1.00  0.00     0.024 A 
HETATM    4  C   UNL     1      40.548 -12.967   1.789  1.00  0.00    -0.016 A 
HETATM    5  C   UNL     1      40.543 -12.070   2.850  1.00  0.00     0.016 A 
HETATM    6  C   UNL     1      41.531 -12.174   3.836  1.00  0.00     0.038 A 
ENDROOT
BRANCH   2   7
HETATM    7  C   UNL     1      43.610 -15.137   2.616  1.00  0.00     0.276 C 
BRANCH   7   8
HETATM    8  N   UNL     1      43.424 -16.249   1.581  1.00  0.00    -0.066 N 
HETATM    9  H   UNL     1      43.739 -15.803   0.712  1.00  0.00     0.280 HD
HETATM   10  C   UNL     1      44.331 -17.460   1.747  1.00  0.00     0.246 C 
HETATM   11  C   UNL     1      43.693 -18.614   2.544  1.00  0.00     0.062 C 
HETATM   12  C   UNL     1      42.350 -18.986   1.931  1.00  0.00     0.020 C 
HETATM   13  C   UNL     1      43.538 -18.264   4.009  1.00  0.00     0.020 A 
HETATM   14  C   UNL     1      41.435 -17.782   2.075  1.00  0.00     0.031 C 
HETATM   15  C   UNL     1      41.202 -17.491   3.560  1.00  0.00     0.138 C 
HETATM   16  C   UNL     1      41.982 -16.585   1.293  1.00  0.00     0.241 C 
HETATM   17  N   UNL     1      42.357 -17.655   4.441  1.00  0.00    -0.317 N 
HETATM   18  C   UNL     1      42.159 -17.272   5.776  1.00  0.00     0.247 A 
HETATM   19  O   UNL     1      41.145 -16.712   6.183  1.00  0.00    -0.268 OA
HETATM   20  C   UNL     1      43.269 -17.559   6.717  1.00  0.00     0.074 A 
HETATM   21  C   UNL     1      44.380 -18.157   6.278  1.00  0.00     0.007 A 
HETATM   22  C   UNL     1      44.521 -18.517   4.891  1.00  0.00     0.026 A 
ENDBRANCH   7   8
ENDBRANCH   2   7
BRANCH   1  23
HETATM   23  O   UNL     1      43.534 -13.332   4.666  1.00  0.00    -0.351 OA
BRANCH  23  24
HETATM   24  C   UNL     1      43.169 -13.620   6.018  1.00  0.00     0.171 C 
HETATM   25  C   UNL     1      44.424 -14.056   6.752  1.00  0.00     0.034 C 
ENDBRANCH  23  24
ENDBRANCH   1  23
BRANCH   4  26
HETATM   26  C   UNL     1      39.573 -12.857   0.683  1.00  0.00     0.150 C 
HETATM   27  N   UNL     1      39.430 -13.870  -0.106  1.00  0.00    -0.184 NA
BRANCH  27  28
HETATM   28  N   UNL     1      38.549 -13.750  -1.126  1.00  0.00    -0.242 N 
HETATM   29  C   UNL     1      38.864 -14.278  -2.371  1.00  0.00     0.292 C 
HETATM   30  O   UNL     1      39.914 -14.863  -2.635  1.00  0.00    -0.264 OA
HETATM   31  H   UNL     1      37.651 -13.277  -1.028  1.00  0.00     0.192 HD
BRANCH  29  32
HETATM   32  C   UNL     1      37.800 -14.062  -3.361  1.00  0.00     0.148 A 
HETATM   33  N   UNL     1      37.445 -15.009  -4.252  1.00  0.00    -0.169 NA
HETATM   34  N   UNL     1      36.452 -14.434  -4.958  1.00  0.00    -0.281 N 
HETATM   35  H   UNL     1      36.012 -14.977  -5.695  1.00  0.00     0.189 HD
HETATM   36  C   UNL     1      36.162 -13.149  -4.575  1.00  0.00     0.038 A 
HETATM   37  C   UNL     1      37.020 -12.893  -3.525  1.00  0.00     0.066 A 
BRANCH  36  38
HETATM   38  C   UNL     1      35.077 -12.314  -5.224  1.00  0.00    -0.007 C 
HETATM   39  C   UNL     1      35.459 -10.827  -5.136  1.00  0.00     0.021 C 
HETATM   40  C   UNL     1      34.914 -12.695  -6.710  1.00  0.00     0.021 C 
HETATM   41  C   UNL     1      33.718 -12.533  -4.530  1.00  0.00     0.021 C 
ENDBRANCH  36  38
ENDBRANCH  29  32
ENDBRANCH  27  28
ENDBRANCH   4  26
TORSDOF 8
ENDMDL
