MODEL 1
REMARK VINA RESULT:      -8.2      0.000      0.000
REMARK  6 active torsions:
REMARK  status: ('A' for Active; 'I' for Inactive)
REMARK    1  A    between atoms: C_3  and  C_4 
REMARK    2  A    between atoms: C_4  and  O_5 
REMARK    3  A    between atoms: O_5  and  C_6 
REMARK    4  A    between atoms: C_9  and  C_10 
REMARK    5  A    between atoms: C_15  and  N_16 
REMARK       I    between atoms: N_16  and  C_17 
REMARK       I    between atoms: C_17  and  N_18 
REMARK    6  A    between atoms: N_18  and  C_19 
ROOT
HETATM    1  C   UNL     1      44.857 -21.663   5.027  1.00  0.00     0.147 C 
HETATM    2  C   UNL     1      44.161 -21.413   6.356  1.00  0.00    -0.016 C 
HETATM    3  N   UNL     1      43.584 -21.206   7.457  1.00  0.00    -0.101 N 
ENDROOT
BRANCH   1   4
HETATM    4  C   UNL     1      44.469 -20.619   4.008  1.00  0.00    -0.046 A 
HETATM    5  C   UNL     1      44.352 -19.270   4.377  1.00  0.00     0.011 A 
HETATM    6  C   UNL     1      43.924 -18.317   3.450  1.00  0.00     0.037 A 
HETATM    7  C   UNL     1      43.626 -18.704   2.148  1.00  0.00     0.069 A 
HETATM    8  C   UNL     1      43.712 -20.043   1.770  1.00  0.00     0.037 A 
HETATM    9  C   UNL     1      44.139 -20.997   2.696  1.00  0.00     0.011 A 
BRANCH   7  10
HETATM   10  O   UNL     1      43.149 -17.753   1.288  1.00  0.00    -0.347 OA
BRANCH  10  11
HETATM   11  C   UNL     1      41.724 -17.834   1.162  1.00  0.00     0.216 C 
BRANCH  11  12
HETATM   12  C   UNL     1      41.155 -16.446   0.943  1.00  0.00    -0.007 A 
HETATM   13  C   UNL     1      41.275 -15.859  -0.330  1.00  0.00     0.011 A 
HETATM   14  C   UNL     1      40.696 -14.621  -0.603  1.00  0.00     0.001 A 
HETATM   15  C   UNL     1      39.989 -13.951   0.391  1.00  0.00     0.002 A 
HETATM   16  C   UNL     1      39.851 -14.524   1.656  1.00  0.00     0.030 A 
HETATM   17  C   UNL     1      40.414 -15.775   1.938  1.00  0.00     0.044 A 
BRANCH  17  18
HETATM   18  N   UNL     1      40.323 -16.351   3.218  1.00  0.00    -0.308 N 
HETATM   19  C   UNL     1      41.144 -16.268   4.311  1.00  0.00     0.325 C 
HETATM   20  N   UNL     1      41.986 -15.187   4.345  1.00  0.00    -0.306 N 
HETATM   21  O   UNL     1      41.004 -17.082   5.221  1.00  0.00    -0.247 OA
HETATM   22  H   UNL     1      41.860 -14.477   3.639  1.00  0.00     0.171 HD
HETATM   23  H   UNL     1      39.530 -16.969   3.375  1.00  0.00     0.170 HD
BRANCH  20  24
HETATM   24  C   UNL     1      42.813 -14.874   5.405  1.00  0.00     0.072 A 
HETATM   25  C   UNL     1      43.684 -15.669   6.182  1.00  0.00     0.169 A 
HETATM   26  N   UNL     1      44.295 -14.962   7.140  1.00  0.00    -0.185 NA
HETATM   27  N   UNL     1      43.812 -13.722   6.974  1.00  0.00    -0.287 N 
HETATM   28  H   UNL     1      44.129 -12.997   7.609  1.00  0.00     0.188 HD
HETATM   29  C   UNL     1      42.928 -13.613   5.940  1.00  0.00     0.140 A 
ENDBRANCH  20  24
ENDBRANCH  17  18
ENDBRANCH  11  12
ENDBRANCH  10  11
ENDBRANCH   7  10
ENDBRANCH   1   4
TORSDOF 6
ENDMDL
MODEL 2
REMARK VINA RESULT:      -8.1      2.291      4.866
REMARK  6 active torsions:
REMARK  status: ('A' for Active; 'I' for Inactive)
REMARK    1  A    between atoms: C_3  and  C_4 
REMARK    2  A    between atoms: C_4  and  O_5 
REMARK    3  A    between atoms: O_5  and  C_6 
REMARK    4  A    between atoms: C_9  and  C_10 
REMARK    5  A    between atoms: C_15  and  N_16 
REMARK       I    between atoms: N_16  and  C_17 
REMARK       I    between atoms: C_17  and  N_18 
REMARK    6  A    between atoms: N_18  and  C_19 
ROOT
HETATM    1  C   UNL     1      43.983 -21.113   1.901  1.00  0.00     0.147 C 
HETATM    2  C   UNL     1      44.359 -22.003   3.075  1.00  0.00    -0.016 C 
HETATM    3  N   UNL     1      44.671 -22.740   4.048  1.00  0.00    -0.101 N 
ENDROOT
BRANCH   1   4
HETATM    4  C   UNL     1      43.912 -19.664   2.320  1.00  0.00    -0.046 A 
HETATM    5  C   UNL     1      43.866 -19.316   3.680  1.00  0.00     0.011 A 
HETATM    6  C   UNL     1      43.729 -17.982   4.064  1.00  0.00     0.037 A 
HETATM    7  C   UNL     1      43.651 -16.987   3.095  1.00  0.00     0.069 A 
HETATM    8  C   UNL     1      43.668 -17.315   1.741  1.00  0.00     0.037 A 
HETATM    9  C   UNL     1      43.806 -18.651   1.355  1.00  0.00     0.011 A 
BRANCH   7  10
HETATM   10  O   UNL     1      43.452 -15.698   3.510  1.00  0.00    -0.347 OA
BRANCH  10  11
HETATM   11  C   UNL     1      43.102 -15.648   4.899  1.00  0.00     0.216 C 
BRANCH  11  12
HETATM   12  C   UNL     1      42.144 -14.498   5.138  1.00  0.00    -0.007 A 
HETATM   13  C   UNL     1      42.580 -13.403   5.905  1.00  0.00     0.011 A 
HETATM   14  C   UNL     1      41.766 -12.286   6.083  1.00  0.00     0.001 A 
HETATM   15  C   UNL     1      40.504 -12.246   5.497  1.00  0.00     0.002 A 
HETATM   16  C   UNL     1      40.060 -13.319   4.723  1.00  0.00     0.030 A 
HETATM   17  C   UNL     1      40.876 -14.440   4.524  1.00  0.00     0.044 A 
BRANCH  17  18
HETATM   18  N   UNL     1      40.431 -15.550   3.782  1.00  0.00    -0.308 N 
HETATM   19  C   UNL     1      40.186 -15.707   2.443  1.00  0.00     0.325 C 
HETATM   20  N   UNL     1      40.806 -14.810   1.613  1.00  0.00    -0.306 N 
HETATM   21  O   UNL     1      39.536 -16.682   2.070  1.00  0.00    -0.247 OA
HETATM   22  H   UNL     1      41.481 -14.184   2.026  1.00  0.00     0.171 HD
HETATM   23  H   UNL     1      40.214 -16.388   4.317  1.00  0.00     0.170 HD
BRANCH  20  24
HETATM   24  C   UNL     1      40.766 -14.865   0.235  1.00  0.00     0.072 A 
HETATM   25  C   UNL     1      39.907 -14.253  -0.704  1.00  0.00     0.169 A 
HETATM   26  N   UNL     1      40.208 -14.593  -1.963  1.00  0.00    -0.185 NA
HETATM   27  N   UNL     1      41.254 -15.420  -1.825  1.00  0.00    -0.287 N 
HETATM   28  H   UNL     1      41.657 -15.825  -2.663  1.00  0.00     0.188 HD
HETATM   29  C   UNL     1      41.635 -15.608  -0.527  1.00  0.00     0.140 A 
ENDBRANCH  20  24
ENDBRANCH  17  18
ENDBRANCH  11  12
ENDBRANCH  10  11
ENDBRANCH   7  10
ENDBRANCH   1   4
TORSDOF 6
ENDMDL
MODEL 3
REMARK VINA RESULT:      -8.0      1.783      2.468
REMARK  6 active torsions:
REMARK  status: ('A' for Active; 'I' for Inactive)
REMARK    1  A    between atoms: C_3  and  C_4 
REMARK    2  A    between atoms: C_4  and  O_5 
REMARK    3  A    between atoms: O_5  and  C_6 
REMARK    4  A    between atoms: C_9  and  C_10 
REMARK    5  A    between atoms: C_15  and  N_16 
REMARK       I    between atoms: N_16  and  C_17 
REMARK       I    between atoms: C_17  and  N_18 
REMARK    6  A    between atoms: N_18  and  C_19 
ROOT
HETATM    1  C   UNL     1      44.846 -20.687   2.854  1.00  0.00     0.147 C 
HETATM    2  C   UNL     1      44.877 -21.399   4.197  1.00  0.00    -0.016 C 
HETATM    3  N   UNL     1      44.902 -21.989   5.310  1.00  0.00    -0.101 N 
ENDROOT
BRANCH   1   4
HETATM    4  C   UNL     1      43.891 -19.518   2.883  1.00  0.00    -0.046 A 
HETATM    5  C   UNL     1      43.440 -18.995   4.105  1.00  0.00     0.011 A 
HETATM    6  C   UNL     1      42.503 -17.960   4.129  1.00  0.00     0.037 A 
HETATM    7  C   UNL     1      42.023 -17.434   2.935  1.00  0.00     0.069 A 
HETATM    8  C   UNL     1      42.439 -17.957   1.713  1.00  0.00     0.037 A 
HETATM    9  C   UNL     1      43.377 -18.992   1.687  1.00  0.00     0.011 A 
BRANCH   7  10
HETATM   10  O   UNL     1      41.058 -16.465   3.001  1.00  0.00    -0.347 OA
BRANCH  10  11
HETATM   11  C   UNL     1      40.709 -15.990   1.696  1.00  0.00     0.216 C 
BRANCH  11  12
HETATM   12  C   UNL     1      40.207 -14.563   1.794  1.00  0.00    -0.007 A 
HETATM   13  C   UNL     1      38.834 -14.315   1.608  1.00  0.00     0.011 A 
HETATM   14  C   UNL     1      38.312 -13.033   1.770  1.00  0.00     0.001 A 
HETATM   15  C   UNL     1      39.152 -11.980   2.121  1.00  0.00     0.002 A 
HETATM   16  C   UNL     1      40.514 -12.211   2.321  1.00  0.00     0.030 A 
HETATM   17  C   UNL     1      41.048 -13.499   2.176  1.00  0.00     0.044 A 
BRANCH  17  18
HETATM   18  N   UNL     1      42.425 -13.745   2.332  1.00  0.00    -0.308 N 
HETATM   19  C   UNL     1      43.207 -13.848   3.451  1.00  0.00     0.325 C 
HETATM   20  N   UNL     1      42.546 -14.139   4.617  1.00  0.00    -0.306 N 
HETATM   21  O   UNL     1      44.428 -13.786   3.329  1.00  0.00    -0.247 OA
HETATM   22  H   UNL     1      41.567 -14.372   4.551  1.00  0.00     0.171 HD
HETATM   23  H   UNL     1      42.963 -13.833   1.473  1.00  0.00     0.170 HD
BRANCH  20  24
HETATM   24  C   UNL     1      43.166 -14.382   5.826  1.00  0.00     0.072 A 
HETATM   25  C   UNL     1      43.491 -15.585   6.489  1.00  0.00     0.169 A 
HETATM   26  N   UNL     1      44.080 -15.369   7.672  1.00  0.00    -0.185 NA
HETATM   27  N   UNL     1      44.127 -14.032   7.760  1.00  0.00    -0.287 N 
HETATM   28  H   UNL     1      44.530 -13.623   8.597  1.00  0.00     0.188 HD
HETATM   29  C   UNL     1      43.602 -13.392   6.674  1.00  0.00     0.140 A 
ENDBRANCH  20  24
ENDBRANCH  17  18
ENDBRANCH  11  12
ENDBRANCH  10  11
ENDBRANCH   7  10
ENDBRANCH   1   4
TORSDOF 6
ENDMDL
MODEL 4
REMARK VINA RESULT:      -7.9      3.547      5.588
REMARK  6 active torsions:
REMARK  status: ('A' for Active; 'I' for Inactive)
REMARK    1  A    between atoms: C_3  and  C_4 
REMARK    2  A    between atoms: C_4  and  O_5 
REMARK    3  A    between atoms: O_5  and  C_6 
REMARK    4  A    between atoms: C_9  and  C_10 
REMARK    5  A    between atoms: C_15  and  N_16 
REMARK       I    between atoms: N_16  and  C_17 
REMARK       I    between atoms: C_17  and  N_18 
REMARK    6  A    between atoms: N_18  and  C_19 
ROOT
HETATM    1  C   UNL     1      44.437 -19.804   3.397  1.00  0.00     0.147 C 
HETATM    2  C   UNL     1      44.454 -21.054   2.531  1.00  0.00    -0.016 C 
HETATM    3  N   UNL     1      44.467 -22.089   1.813  1.00  0.00    -0.101 N 
ENDROOT
BRANCH   1   4
HETATM    4  C   UNL     1      43.417 -18.811   2.896  1.00  0.00    -0.046 A 
HETATM    5  C   UNL     1      43.458 -18.354   1.569  1.00  0.00     0.011 A 
HETATM    6  C   UNL     1      42.559 -17.383   1.126  1.00  0.00     0.037 A 
HETATM    7  C   UNL     1      41.605 -16.873   2.001  1.00  0.00     0.069 A 
HETATM    8  C   UNL     1      41.566 -17.295   3.329  1.00  0.00     0.037 A 
HETATM    9  C   UNL     1      42.465 -18.267   3.773  1.00  0.00     0.011 A 
BRANCH   7  10
HETATM   10  O   UNL     1      40.784 -15.877   1.548  1.00  0.00    -0.347 OA
BRANCH  10  11
HETATM   11  C   UNL     1      39.597 -15.779   2.345  1.00  0.00     0.216 C 
BRANCH  11  12
HETATM   12  C   UNL     1      39.406 -14.345   2.795  1.00  0.00    -0.007 A 
HETATM   13  C   UNL     1      39.956 -13.944   4.027  1.00  0.00     0.011 A 
HETATM   14  C   UNL     1      39.879 -12.617   4.445  1.00  0.00     0.001 A 
HETATM   15  C   UNL     1      39.252 -11.670   3.640  1.00  0.00     0.002 A 
HETATM   16  C   UNL     1      38.712 -12.048   2.410  1.00  0.00     0.030 A 
HETATM   17  C   UNL     1      38.798 -13.376   1.971  1.00  0.00     0.044 A 
BRANCH  17  18
HETATM   18  N   UNL     1      38.223 -13.786   0.754  1.00  0.00    -0.308 N 
HETATM   19  C   UNL     1      38.756 -13.925  -0.500  1.00  0.00     0.325 C 
HETATM   20  N   UNL     1      40.119 -14.063  -0.558  1.00  0.00    -0.306 N 
HETATM   21  O   UNL     1      37.995 -14.025  -1.460  1.00  0.00    -0.247 OA
HETATM   22  H   UNL     1      40.612 -14.173   0.315  1.00  0.00     0.171 HD
HETATM   23  H   UNL     1      37.226 -13.991   0.777  1.00  0.00     0.170 HD
BRANCH  20  24
HETATM   24  C   UNL     1      40.830 -14.314  -1.713  1.00  0.00     0.072 A 
HETATM   25  C   UNL     1      40.828 -15.416  -2.596  1.00  0.00     0.169 A 
HETATM   26  N   UNL     1      41.698 -15.262  -3.601  1.00  0.00    -0.185 NA
HETATM   27  N   UNL     1      42.254 -14.066  -3.356  1.00  0.00    -0.287 N 
HETATM   28  H   UNL     1      42.970 -13.732  -3.993  1.00  0.00     0.188 HD
HETATM   29  C   UNL     1      41.761 -13.451  -2.241  1.00  0.00     0.140 A 
ENDBRANCH  20  24
ENDBRANCH  17  18
ENDBRANCH  11  12
ENDBRANCH  10  11
ENDBRANCH   7  10
ENDBRANCH   1   4
TORSDOF 6
ENDMDL
MODEL 5
REMARK VINA RESULT:      -7.8      2.469      3.639
REMARK  6 active torsions:
REMARK  status: ('A' for Active; 'I' for Inactive)
REMARK    1  A    between atoms: C_3  and  C_4 
REMARK    2  A    between atoms: C_4  and  O_5 
REMARK    3  A    between atoms: O_5  and  C_6 
REMARK    4  A    between atoms: C_9  and  C_10 
REMARK    5  A    between atoms: C_15  and  N_16 
REMARK       I    between atoms: N_16  and  C_17 
REMARK       I    between atoms: C_17  and  N_18 
REMARK    6  A    between atoms: N_18  and  C_19 
ROOT
HETATM    1  C   UNL     1      44.579 -19.816   2.919  1.00  0.00     0.147 C 
HETATM    2  C   UNL     1      44.205 -21.042   2.102  1.00  0.00    -0.016 C 
HETATM    3  N   UNL     1      43.895 -22.059   1.425  1.00  0.00    -0.101 N 
ENDROOT
BRANCH   1   4
HETATM    4  C   UNL     1      43.659 -18.659   2.611  1.00  0.00    -0.046 A 
HETATM    5  C   UNL     1      44.013 -17.705   1.643  1.00  0.00     0.011 A 
HETATM    6  C   UNL     1      43.196 -16.598   1.410  1.00  0.00     0.037 A 
HETATM    7  C   UNL     1      42.015 -16.445   2.129  1.00  0.00     0.069 A 
HETATM    8  C   UNL     1      41.661 -17.368   3.112  1.00  0.00     0.037 A 
HETATM    9  C   UNL     1      42.478 -18.476   3.346  1.00  0.00     0.011 A 
BRANCH   7  10
HETATM   10  O   UNL     1      41.274 -15.314   1.917  1.00  0.00    -0.347 OA
BRANCH  10  11
HETATM   11  C   UNL     1      40.254 -15.167   2.912  1.00  0.00     0.216 C 
BRANCH  11  12
HETATM   12  C   UNL     1      40.513 -13.913   3.723  1.00  0.00    -0.007 A 
HETATM   13  C   UNL     1      40.866 -12.731   3.045  1.00  0.00     0.011 A 
HETATM   14  C   UNL     1      41.033 -11.534   3.739  1.00  0.00     0.001 A 
HETATM   15  C   UNL     1      40.851 -11.499   5.118  1.00  0.00     0.002 A 
HETATM   16  C   UNL     1      40.490 -12.659   5.804  1.00  0.00     0.030 A 
HETATM   17  C   UNL     1      40.303 -13.865   5.116  1.00  0.00     0.044 A 
BRANCH  17  18
HETATM   18  N   UNL     1      39.980 -15.055   5.794  1.00  0.00    -0.308 N 
HETATM   19  C   UNL     1      40.760 -16.099   6.216  1.00  0.00     0.325 C 
HETATM   20  N   UNL     1      42.095 -15.824   6.366  1.00  0.00    -0.306 N 
HETATM   21  O   UNL     1      40.217 -17.154   6.534  1.00  0.00    -0.247 OA
HETATM   22  H   UNL     1      42.385 -14.863   6.272  1.00  0.00     0.171 HD
HETATM   23  H   UNL     1      38.992 -15.206   5.987  1.00  0.00     0.170 HD
BRANCH  20  24
HETATM   24  C   UNL     1      43.022 -16.710   6.876  1.00  0.00     0.072 A 
HETATM   25  C   UNL     1      43.121 -17.346   8.133  1.00  0.00     0.169 A 
HETATM   26  N   UNL     1      44.204 -18.126   8.222  1.00  0.00    -0.185 NA
HETATM   27  N   UNL     1      44.794 -17.986   7.026  1.00  0.00    -0.287 N 
HETATM   28  H   UNL     1      45.661 -18.486   6.859  1.00  0.00     0.188 HD
HETATM   29  C   UNL     1      44.119 -17.155   6.178  1.00  0.00     0.140 A 
ENDBRANCH  20  24
ENDBRANCH  17  18
ENDBRANCH  11  12
ENDBRANCH  10  11
ENDBRANCH   7  10
ENDBRANCH   1   4
TORSDOF 6
ENDMDL
MODEL 6
REMARK VINA RESULT:      -7.8      2.489      5.829
REMARK  6 active torsions:
REMARK  status: ('A' for Active; 'I' for Inactive)
REMARK    1  A    between atoms: C_3  and  C_4 
REMARK    2  A    between atoms: C_4  and  O_5 
REMARK    3  A    between atoms: O_5  and  C_6 
REMARK    4  A    between atoms: C_9  and  C_10 
REMARK    5  A    between atoms: C_15  and  N_16 
REMARK       I    between atoms: N_16  and  C_17 
REMARK       I    between atoms: C_17  and  N_18 
REMARK    6  A    between atoms: N_18  and  C_19 
ROOT
HETATM    1  C   UNL     1      45.509 -13.550   7.364  1.00  0.00     0.147 C 
HETATM    2  C   UNL     1      44.985 -12.674   8.490  1.00  0.00    -0.016 C 
HETATM    3  N   UNL     1      44.550 -11.948   9.424  1.00  0.00    -0.101 N 
ENDROOT
BRANCH   1   4
HETATM    4  C   UNL     1      44.398 -14.367   6.751  1.00  0.00    -0.046 A 
HETATM    5  C   UNL     1      43.723 -13.910   5.608  1.00  0.00     0.011 A 
HETATM    6  C   UNL     1      42.649 -14.631   5.084  1.00  0.00     0.037 A 
HETATM    7  C   UNL     1      42.253 -15.819   5.688  1.00  0.00     0.069 A 
HETATM    8  C   UNL     1      42.894 -16.276   6.838  1.00  0.00     0.037 A 
HETATM    9  C   UNL     1      43.968 -15.555   7.364  1.00  0.00     0.011 A 
BRANCH   7  10
HETATM   10  O   UNL     1      41.156 -16.464   5.183  1.00  0.00    -0.347 OA
BRANCH  10  11
HETATM   11  C   UNL     1      41.385 -17.874   5.078  1.00  0.00     0.216 C 
BRANCH  11  12
HETATM   12  C   UNL     1      42.299 -18.152   3.902  1.00  0.00    -0.007 A 
HETATM   13  C   UNL     1      43.466 -18.908   4.116  1.00  0.00     0.011 A 
HETATM   14  C   UNL     1      44.295 -19.259   3.052  1.00  0.00     0.001 A 
HETATM   15  C   UNL     1      43.971 -18.862   1.759  1.00  0.00     0.002 A 
HETATM   16  C   UNL     1      42.810 -18.121   1.527  1.00  0.00     0.030 A 
HETATM   17  C   UNL     1      41.961 -17.776   2.586  1.00  0.00     0.044 A 
BRANCH  17  18
HETATM   18  N   UNL     1      40.809 -16.994   2.379  1.00  0.00    -0.308 N 
HETATM   19  C   UNL     1      40.655 -15.659   2.115  1.00  0.00     0.325 C 
HETATM   20  N   UNL     1      41.750 -15.023   1.591  1.00  0.00    -0.306 N 
HETATM   21  O   UNL     1      39.543 -15.152   2.253  1.00  0.00    -0.247 OA
HETATM   22  H   UNL     1      42.539 -15.595   1.329  1.00  0.00     0.171 HD
HETATM   23  H   UNL     1      39.919 -17.478   2.470  1.00  0.00     0.170 HD
BRANCH  20  24
HETATM   24  C   UNL     1      41.761 -13.710   1.166  1.00  0.00     0.072 A 
HETATM   25  C   UNL     1      41.478 -13.127  -0.089  1.00  0.00     0.169 A 
HETATM   26  N   UNL     1      41.631 -11.797  -0.076  1.00  0.00    -0.185 NA
HETATM   27  N   UNL     1      42.013 -11.536   1.183  1.00  0.00    -0.287 N 
HETATM   28  H   UNL     1      42.205 -10.572   1.434  1.00  0.00     0.188 HD
HETATM   29  C   UNL     1      42.096 -12.648   1.971  1.00  0.00     0.140 A 
ENDBRANCH  20  24
ENDBRANCH  17  18
ENDBRANCH  11  12
ENDBRANCH  10  11
ENDBRANCH   7  10
ENDBRANCH   1   4
TORSDOF 6
ENDMDL
MODEL 7
REMARK VINA RESULT:      -7.8      2.350      4.024
REMARK  6 active torsions:
REMARK  status: ('A' for Active; 'I' for Inactive)
REMARK    1  A    between atoms: C_3  and  C_4 
REMARK    2  A    between atoms: C_4  and  O_5 
REMARK    3  A    between atoms: O_5  and  C_6 
REMARK    4  A    between atoms: C_9  and  C_10 
REMARK    5  A    between atoms: C_15  and  N_16 
REMARK       I    between atoms: N_16  and  C_17 
REMARK       I    between atoms: C_17  and  N_18 
REMARK    6  A    between atoms: N_18  and  C_19 
ROOT
HETATM    1  C   UNL     1      43.736 -20.252   2.216  1.00  0.00     0.147 C 
HETATM    2  C   UNL     1      44.580 -20.486   3.459  1.00  0.00    -0.016 C 
HETATM    3  N   UNL     1      45.279 -20.679   4.489  1.00  0.00    -0.101 N 
ENDROOT
BRANCH   1   4
HETATM    4  C   UNL     1      43.258 -18.821   2.147  1.00  0.00    -0.046 A 
HETATM    5  C   UNL     1      43.525 -18.034   1.015  1.00  0.00     0.011 A 
HETATM    6  C   UNL     1      43.144 -16.692   0.982  1.00  0.00     0.037 A 
HETATM    7  C   UNL     1      42.484 -16.132   2.071  1.00  0.00     0.069 A 
HETATM    8  C   UNL     1      42.234 -16.891   3.213  1.00  0.00     0.037 A 
HETATM    9  C   UNL     1      42.614 -18.234   3.247  1.00  0.00     0.011 A 
BRANCH   7  10
HETATM   10  O   UNL     1      42.185 -14.798   2.026  1.00  0.00    -0.347 OA
BRANCH  10  11
HETATM   11  C   UNL     1      42.929 -14.065   3.006  1.00  0.00     0.216 C 
BRANCH  11  12
HETATM   12  C   UNL     1      41.972 -13.324   3.919  1.00  0.00    -0.007 A 
HETATM   13  C   UNL     1      40.688 -13.007   3.438  1.00  0.00     0.011 A 
HETATM   14  C   UNL     1      39.745 -12.400   4.265  1.00  0.00     0.001 A 
HETATM   15  C   UNL     1      40.069 -12.103   5.585  1.00  0.00     0.002 A 
HETATM   16  C   UNL     1      41.334 -12.421   6.082  1.00  0.00     0.030 A 
HETATM   17  C   UNL     1      42.285 -13.045   5.265  1.00  0.00     0.044 A 
BRANCH  17  18
HETATM   18  N   UNL     1      43.580 -13.337   5.733  1.00  0.00    -0.308 N 
HETATM   19  C   UNL     1      44.066 -14.394   6.456  1.00  0.00     0.325 C 
HETATM   20  N   UNL     1      43.315 -15.540   6.418  1.00  0.00    -0.306 N 
HETATM   21  O   UNL     1      45.169 -14.290   6.988  1.00  0.00    -0.247 OA
HETATM   22  H   UNL     1      42.536 -15.564   5.777  1.00  0.00     0.171 HD
HETATM   23  H   UNL     1      44.292 -12.636   5.542  1.00  0.00     0.170 HD
BRANCH  20  24
HETATM   24  C   UNL     1      43.687 -16.737   6.995  1.00  0.00     0.072 A 
HETATM   25  C   UNL     1      44.492 -17.797   6.523  1.00  0.00     0.169 A 
HETATM   26  N   UNL     1      44.582 -18.797   7.407  1.00  0.00    -0.185 NA
HETATM   27  N   UNL     1      43.835 -18.375   8.438  1.00  0.00    -0.287 N 
HETATM   28  H   UNL     1      43.742 -18.987   9.242  1.00  0.00     0.188 HD
HETATM   29  C   UNL     1      43.285 -17.141   8.246  1.00  0.00     0.140 A 
ENDBRANCH  20  24
ENDBRANCH  17  18
ENDBRANCH  11  12
ENDBRANCH  10  11
ENDBRANCH   7  10
ENDBRANCH   1   4
TORSDOF 6
ENDMDL
MODEL 8
REMARK VINA RESULT:      -7.7      1.705      2.495
REMARK  6 active torsions:
REMARK  status: ('A' for Active; 'I' for Inactive)
REMARK    1  A    between atoms: C_3  and  C_4 
REMARK    2  A    between atoms: C_4  and  O_5 
REMARK    3  A    between atoms: O_5  and  C_6 
REMARK    4  A    between atoms: C_9  and  C_10 
REMARK    5  A    between atoms: C_15  and  N_16 
REMARK       I    between atoms: N_16  and  C_17 
REMARK       I    between atoms: C_17  and  N_18 
REMARK    6  A    between atoms: N_18  and  C_19 
ROOT
HETATM    1  C   UNL     1      45.315 -20.068   4.314  1.00  0.00     0.147 C 
HETATM    2  C   UNL     1      44.954 -21.507   4.649  1.00  0.00    -0.016 C 
HETATM    3  N   UNL     1      44.654 -22.699   4.927  1.00  0.00    -0.101 N 
ENDROOT
BRANCH   1   4
HETATM    4  C   UNL     1      44.075 -19.239   4.079  1.00  0.00    -0.046 A 
HETATM    5  C   UNL     1      43.723 -18.836   2.781  1.00  0.00     0.011 A 
HETATM    6  C   UNL     1      42.616 -18.011   2.572  1.00  0.00     0.037 A 
HETATM    7  C   UNL     1      41.848 -17.597   3.655  1.00  0.00     0.069 A 
HETATM    8  C   UNL     1      42.198 -17.965   4.953  1.00  0.00     0.037 A 
HETATM    9  C   UNL     1      43.305 -18.791   5.163  1.00  0.00     0.011 A 
BRANCH   7  10
HETATM   10  O   UNL     1      40.811 -16.737   3.417  1.00  0.00    -0.347 OA
BRANCH  10  11
HETATM   11  C   UNL     1      40.671 -16.468   2.017  1.00  0.00     0.216 C 
BRANCH  11  12
HETATM   12  C   UNL     1      40.166 -15.052   1.821  1.00  0.00    -0.007 A 
HETATM   13  C   UNL     1      38.791 -14.848   1.606  1.00  0.00     0.011 A 
HETATM   14  C   UNL     1      38.267 -13.560   1.504  1.00  0.00     0.001 A 
HETATM   15  C   UNL     1      39.109 -12.458   1.615  1.00  0.00     0.002 A 
HETATM   16  C   UNL     1      40.474 -12.642   1.840  1.00  0.00     0.030 A 
HETATM   17  C   UNL     1      41.010 -13.931   1.961  1.00  0.00     0.044 A 
BRANCH  17  18
HETATM   18  N   UNL     1      42.389 -14.139   2.145  1.00  0.00    -0.308 N 
HETATM   19  C   UNL     1      43.177 -14.058   3.263  1.00  0.00     0.325 C 
HETATM   20  N   UNL     1      42.524 -14.165   4.463  1.00  0.00    -0.306 N 
HETATM   21  O   UNL     1      44.397 -14.007   3.125  1.00  0.00    -0.247 OA
HETATM   22  H   UNL     1      41.547 -14.412   4.440  1.00  0.00     0.171 HD
HETATM   23  H   UNL     1      42.924 -14.359   1.308  1.00  0.00     0.170 HD
BRANCH  20  24
HETATM   24  C   UNL     1      43.151 -14.209   5.692  1.00  0.00     0.072 A 
HETATM   25  C   UNL     1      43.874 -15.233   6.342  1.00  0.00     0.169 A 
HETATM   26  N   UNL     1      44.305 -14.860   7.552  1.00  0.00    -0.185 NA
HETATM   27  N   UNL     1      43.856 -13.602   7.673  1.00  0.00    -0.287 N 
HETATM   28  H   UNL     1      44.054 -13.105   8.535  1.00  0.00     0.188 HD
HETATM   29  C   UNL     1      43.167 -13.160   6.580  1.00  0.00     0.140 A 
ENDBRANCH  20  24
ENDBRANCH  17  18
ENDBRANCH  11  12
ENDBRANCH  10  11
ENDBRANCH   7  10
ENDBRANCH   1   4
TORSDOF 6
ENDMDL
MODEL 9
REMARK VINA RESULT:      -7.7      2.320      2.983
REMARK  6 active torsions:
REMARK  status: ('A' for Active; 'I' for Inactive)
REMARK    1  A    between atoms: C_3  and  C_4 
REMARK    2  A    between atoms: C_4  and  O_5 
REMARK    3  A    between atoms: O_5  and  C_6 
REMARK    4  A    between atoms: C_9  and  C_10 
REMARK    5  A    between atoms: C_15  and  N_16 
REMARK       I    between atoms: N_16  and  C_17 
REMARK       I    between atoms: C_17  and  N_18 
REMARK    6  A    between atoms: N_18  and  C_19 
ROOT
HETATM    1  C   UNL     1      44.799 -19.967   4.755  1.00  0.00     0.147 C 
HETATM    2  C   UNL     1      44.728 -21.425   4.329  1.00  0.00    -0.016 C 
HETATM    3  N   UNL     1      44.670 -22.633   3.976  1.00  0.00    -0.101 N 
ENDROOT
BRANCH   1   4
HETATM    4  C   UNL     1      43.857 -19.117   3.935  1.00  0.00    -0.046 A 
HETATM    5  C   UNL     1      44.105 -18.890   2.572  1.00  0.00     0.011 A 
HETATM    6  C   UNL     1      43.273 -18.048   1.833  1.00  0.00     0.037 A 
HETATM    7  C   UNL     1      42.183 -17.439   2.446  1.00  0.00     0.069 A 
HETATM    8  C   UNL     1      41.937 -17.632   3.804  1.00  0.00     0.037 A 
HETATM    9  C   UNL     1      42.768 -18.475   4.545  1.00  0.00     0.011 A 
BRANCH   7  10
HETATM   10  O   UNL     1      41.430 -16.570   1.704  1.00  0.00    -0.347 OA
BRANCH  10  11
HETATM   11  C   UNL     1      41.946 -16.440   0.374  1.00  0.00     0.216 C 
BRANCH  11  12
HETATM   12  C   UNL     1      41.424 -15.161  -0.249  1.00  0.00    -0.007 A 
HETATM   13  C   UNL     1      40.630 -15.248  -1.407  1.00  0.00     0.011 A 
HETATM   14  C   UNL     1      40.058 -14.107  -1.968  1.00  0.00     0.001 A 
HETATM   15  C   UNL     1      40.271 -12.863  -1.381  1.00  0.00     0.002 A 
HETATM   16  C   UNL     1      41.046 -12.761  -0.225  1.00  0.00     0.030 A 
HETATM   17  C   UNL     1      41.612 -13.902   0.357  1.00  0.00     0.044 A 
BRANCH  17  18
HETATM   18  N   UNL     1      42.431 -13.815   1.498  1.00  0.00    -0.308 N 
HETATM   19  C   UNL     1      42.135 -13.554   2.810  1.00  0.00     0.325 C 
HETATM   20  N   UNL     1      40.836 -13.777   3.185  1.00  0.00    -0.306 N 
HETATM   21  O   UNL     1      43.048 -13.252   3.575  1.00  0.00    -0.247 OA
HETATM   22  H   UNL     1      40.228 -14.224   2.514  1.00  0.00     0.171 HD
HETATM   23  H   UNL     1      43.430 -13.930   1.341  1.00  0.00     0.170 HD
BRANCH  20  24
HETATM   24  C   UNL     1      40.367 -13.671   4.478  1.00  0.00     0.072 A 
HETATM   25  C   UNL     1      39.834 -12.578   5.197  1.00  0.00     0.169 A 
HETATM   26  N   UNL     1      39.514 -12.906   6.454  1.00  0.00    -0.185 NA
HETATM   27  N   UNL     1      39.845 -14.203   6.536  1.00  0.00    -0.287 N 
HETATM   28  H   UNL     1      39.701 -14.678   7.421  1.00  0.00     0.188 HD
HETATM   29  C   UNL     1      40.351 -14.713   5.374  1.00  0.00     0.140 A 
ENDBRANCH  20  24
ENDBRANCH  17  18
ENDBRANCH  11  12
ENDBRANCH  10  11
ENDBRANCH   7  10
ENDBRANCH   1   4
TORSDOF 6
ENDMDL
MODEL 10
REMARK VINA RESULT:      -7.7      2.083      2.450
REMARK  6 active torsions:
REMARK  status: ('A' for Active; 'I' for Inactive)
REMARK    1  A    between atoms: C_3  and  C_4 
REMARK    2  A    between atoms: C_4  and  O_5 
REMARK    3  A    between atoms: O_5  and  C_6 
REMARK    4  A    between atoms: C_9  and  C_10 
REMARK    5  A    between atoms: C_15  and  N_16 
REMARK       I    between atoms: N_16  and  C_17 
REMARK       I    between atoms: C_17  and  N_18 
REMARK    6  A    between atoms: N_18  and  C_19 
ROOT
HETATM    1  C   UNL     1      44.947 -20.066   4.918  1.00  0.00     0.147 C 
HETATM    2  C   UNL     1      44.824 -21.558   4.658  1.00  0.00    -0.016 C 
HETATM    3  N   UNL     1      44.721 -22.795   4.441  1.00  0.00    -0.101 N 
ENDROOT
BRANCH   1   4
HETATM    4  C   UNL     1      44.065 -19.277   3.981  1.00  0.00    -0.046 A 
HETATM    5  C   UNL     1      43.151 -18.336   4.483  1.00  0.00     0.011 A 
HETATM    6  C   UNL     1      42.287 -17.660   3.620  1.00  0.00     0.037 A 
HETATM    7  C   UNL     1      42.340 -17.907   2.253  1.00  0.00     0.069 A 
HETATM    8  C   UNL     1      43.222 -18.855   1.739  1.00  0.00     0.037 A 
HETATM    9  C   UNL     1      44.088 -19.533   2.600  1.00  0.00     0.011 A 
BRANCH   7  10
HETATM   10  O   UNL     1      41.433 -17.272   1.448  1.00  0.00    -0.347 OA
BRANCH  10  11
HETATM   11  C   UNL     1      41.796 -15.902   1.238  1.00  0.00     0.216 C 
BRANCH  11  12
HETATM   12  C   UNL     1      40.573 -15.114   0.813  1.00  0.00    -0.007 A 
HETATM   13  C   UNL     1      40.478 -14.681  -0.523  1.00  0.00     0.011 A 
HETATM   14  C   UNL     1      39.337 -14.026  -0.982  1.00  0.00     0.001 A 
HETATM   15  C   UNL     1      38.273 -13.794  -0.115  1.00  0.00     0.002 A 
HETATM   16  C   UNL     1      38.346 -14.228   1.210  1.00  0.00     0.030 A 
HETATM   17  C   UNL     1      39.481 -14.901   1.679  1.00  0.00     0.044 A 
BRANCH  17  18
HETATM   18  N   UNL     1      39.592 -15.309   3.021  1.00  0.00    -0.308 N 
HETATM   19  C   UNL     1      40.050 -14.654   4.133  1.00  0.00     0.325 C 
HETATM   20  N   UNL     1      40.059 -13.285   4.059  1.00  0.00    -0.306 N 
HETATM   21  O   UNL     1      40.314 -15.308   5.140  1.00  0.00    -0.247 OA
HETATM   22  H   UNL     1      39.623 -12.860   3.255  1.00  0.00     0.171 HD
HETATM   23  H   UNL     1      39.320 -16.269   3.221  1.00  0.00     0.170 HD
BRANCH  20  24
HETATM   24  C   UNL     1      40.388 -12.449   5.107  1.00  0.00     0.072 A 
HETATM   25  C   UNL     1      41.625 -12.155   5.721  1.00  0.00     0.169 A 
HETATM   26  N   UNL     1      41.495 -11.289   6.733  1.00  0.00    -0.185 NA
HETATM   27  N   UNL     1      40.179 -11.035   6.764  1.00  0.00    -0.287 N 
HETATM   28  H   UNL     1      39.831 -10.399   7.474  1.00  0.00     0.188 HD
HETATM   29  C   UNL     1      39.471 -11.697   5.802  1.00  0.00     0.140 A 
ENDBRANCH  20  24
ENDBRANCH  17  18
ENDBRANCH  11  12
ENDBRANCH  10  11
ENDBRANCH   7  10
ENDBRANCH   1   4
TORSDOF 6
ENDMDL
