MODEL 1
REMARK VINA RESULT:      -9.4      0.000      0.000
REMARK  7 active torsions:
REMARK  status: ('A' for Active; 'I' for Inactive)
REMARK    1  A    between atoms: C_1  and  C_2 
REMARK    2  A    between atoms: C_1  and  O_9 
REMARK    3  A    between atoms: C_2  and  N_3 
REMARK    4  A    between atoms: O_9  and  C_10 
REMARK    5  A    between atoms: C_15  and  C_31 
REMARK    6  A    between atoms: C_17  and  N_18 
REMARK    7  A    between atoms: N_18  and  C_19 
ROOT
HETATM    1  C   UNL     1      41.893 -13.190   5.719  1.00  0.00     0.069 A 
HETATM    2  C   UNL     1      43.101 -13.651   6.226  1.00  0.00     0.039 A 
HETATM    3  C   UNL     1      43.595 -14.899   5.827  1.00  0.00     0.035 A 
HETATM    4  C   UNL     1      42.912 -15.711   4.932  1.00  0.00     0.073 A 
HETATM    5  N   UNL     1      43.455 -16.883   4.599  1.00  0.00    -0.228 NA
HETATM    6  C   UNL     1      42.777 -17.659   3.739  1.00  0.00     0.162 A 
HETATM    7  N   UNL     1      41.593 -17.332   3.202  1.00  0.00    -0.210 NA
HETATM    8  C   UNL     1      41.054 -16.147   3.534  1.00  0.00     0.143 A 
HETATM    9  C   UNL     1      41.691 -15.262   4.420  1.00  0.00     0.041 A 
HETATM   10  C   UNL     1      41.188 -13.999   4.828  1.00  0.00     0.054 A 
ENDROOT
BRANCH   8  11
HETATM   11  N   UNL     1      39.812 -15.775   2.951  1.00  0.00    -0.340 N 
HETATM   12  H   UNL     1      39.202 -15.412   3.675  1.00  0.00     0.167 HD
BRANCH  11  13
HETATM   13  C   UNL     1      39.620 -15.120   1.711  1.00  0.00     0.034 A 
HETATM   14  C   UNL     1      38.363 -14.571   1.408  1.00  0.00     0.032 A 
HETATM   15  C   UNL     1      38.094 -13.952   0.179  1.00  0.00     0.034 A 
HETATM   16  C   UNL     1      39.130 -13.927  -0.757  1.00  0.00     0.062 A 
HETATM   17  N   UNL     1      39.206 -13.419  -2.028  1.00  0.00    -0.278 N 
HETATM   18  C   UNL     1      40.377 -14.486  -0.514  1.00  0.00     0.013 A 
HETATM   19  H   UNL     1      38.481 -12.934  -2.544  1.00  0.00     0.189 HD
HETATM   20  N   UNL     1      40.394 -13.611  -2.628  1.00  0.00    -0.186 NA
HETATM   21  C   UNL     1      41.104 -14.263  -1.703  1.00  0.00     0.152 A 
HETATM   22  C   UNL     1      40.625 -15.099   0.727  1.00  0.00     0.044 A 
ENDBRANCH  11  13
ENDBRANCH   8  11
BRANCH   6  23
HETATM   23  C   UNL     1      43.380 -18.946   3.338  1.00  0.00     0.012 A 
HETATM   24  C   UNL     1      43.032 -19.578   2.128  1.00  0.00     0.015 A 
HETATM   25  C   UNL     1      43.597 -20.802   1.753  1.00  0.00     0.001 A 
HETATM   26  C   UNL     1      44.524 -21.425   2.581  1.00  0.00     0.000 A 
HETATM   27  C   UNL     1      44.889 -20.826   3.782  1.00  0.00     0.001 A 
HETATM   28  C   UNL     1      44.324 -19.602   4.154  1.00  0.00     0.015 A 
ENDBRANCH   6  23
BRANCH   1  29
HETATM   29  O   UNL     1      41.302 -11.992   6.006  1.00  0.00    -0.349 OA
BRANCH  29  30
HETATM   30  C   UNL     1      39.878 -11.996   6.159  1.00  0.00     0.206 C 
BRANCH  30  31
HETATM   31  C   UNL     1      39.547 -11.627   7.616  1.00  0.00     0.299 C 
BRANCH  31  32
HETATM   32  N   UNL     1      40.177 -10.377   8.077  1.00  0.00     0.094 N 
HETATM   33  C   UNL     1      39.209  -9.341   8.500  1.00  0.00     0.298 C 
HETATM   34  C   UNL     1      38.516  -9.639   9.841  1.00  0.00     0.198 C 
HETATM   35  O   UNL     1      39.473  -9.844  10.887  1.00  0.00    -0.388 OA
HETATM   36  C   UNL     1      40.377 -10.904  10.549  1.00  0.00     0.198 C 
HETATM   37  C   UNL     1      41.094 -10.631   9.215  1.00  0.00     0.298 C 
ENDBRANCH  31  32
ENDBRANCH  30  31
ENDBRANCH  29  30
ENDBRANCH   1  29
TORSDOF 7
ENDMDL
MODEL 2
REMARK VINA RESULT:      -9.2      1.853      2.803
REMARK  7 active torsions:
REMARK  status: ('A' for Active; 'I' for Inactive)
REMARK    1  A    between atoms: C_1  and  C_2 
REMARK    2  A    between atoms: C_1  and  O_9 
REMARK    3  A    between atoms: C_2  and  N_3 
REMARK    4  A    between atoms: O_9  and  C_10 
REMARK    5  A    between atoms: C_15  and  C_31 
REMARK    6  A    between atoms: C_17  and  N_18 
REMARK    7  A    between atoms: N_18  and  C_19 
ROOT
HETATM    1  C   UNL     1      42.085 -13.318   5.550  1.00  0.00     0.069 A 
HETATM    2  C   UNL     1      43.296 -13.783   6.047  1.00  0.00     0.039 A 
HETATM    3  C   UNL     1      43.759 -15.052   5.679  1.00  0.00     0.035 A 
HETATM    4  C   UNL     1      43.045 -15.880   4.824  1.00  0.00     0.073 A 
HETATM    5  N   UNL     1      43.560 -17.072   4.519  1.00  0.00    -0.228 NA
HETATM    6  C   UNL     1      42.852 -17.863   3.698  1.00  0.00     0.162 A 
HETATM    7  N   UNL     1      41.663 -17.531   3.174  1.00  0.00    -0.210 NA
HETATM    8  C   UNL     1      41.152 -16.327   3.478  1.00  0.00     0.143 A 
HETATM    9  C   UNL     1      41.821 -15.425   4.323  1.00  0.00     0.041 A 
HETATM   10  C   UNL     1      41.348 -14.142   4.699  1.00  0.00     0.054 A 
ENDROOT
BRANCH   8  11
HETATM   11  N   UNL     1      39.904 -15.952   2.907  1.00  0.00    -0.340 N 
HETATM   12  H   UNL     1      39.278 -15.656   3.648  1.00  0.00     0.167 HD
BRANCH  11  13
HETATM   13  C   UNL     1      39.705 -15.220   1.712  1.00  0.00     0.034 A 
HETATM   14  C   UNL     1      38.440 -14.674   1.441  1.00  0.00     0.032 A 
HETATM   15  C   UNL     1      38.164 -13.980   0.254  1.00  0.00     0.034 A 
HETATM   16  C   UNL     1      39.202 -13.877  -0.675  1.00  0.00     0.062 A 
HETATM   17  N   UNL     1      39.273 -13.284  -1.909  1.00  0.00    -0.278 N 
HETATM   18  C   UNL     1      40.458 -14.429  -0.463  1.00  0.00     0.013 A 
HETATM   19  H   UNL     1      38.541 -12.780  -2.395  1.00  0.00     0.189 HD
HETATM   20  N   UNL     1      40.465 -13.417  -2.516  1.00  0.00    -0.186 NA
HETATM   21  C   UNL     1      41.185 -14.116  -1.633  1.00  0.00     0.152 A 
HETATM   22  C   UNL     1      40.712 -15.117   0.736  1.00  0.00     0.044 A 
ENDBRANCH  11  13
ENDBRANCH   8  11
BRANCH   6  23
HETATM   23  C   UNL     1      43.425 -19.172   3.326  1.00  0.00     0.012 A 
HETATM   24  C   UNL     1      43.115 -19.791   2.098  1.00  0.00     0.015 A 
HETATM   25  C   UNL     1      43.651 -21.035   1.751  1.00  0.00     0.001 A 
HETATM   26  C   UNL     1      44.510 -21.694   2.625  1.00  0.00     0.000 A 
HETATM   27  C   UNL     1      44.834 -21.109   3.845  1.00  0.00     0.001 A 
HETATM   28  C   UNL     1      44.299 -19.864   4.189  1.00  0.00     0.015 A 
ENDBRANCH   6  23
BRANCH   1  29
HETATM   29  O   UNL     1      41.521 -12.101   5.810  1.00  0.00    -0.349 OA
BRANCH  29  30
HETATM   30  C   UNL     1      40.117 -12.089   6.097  1.00  0.00     0.206 C 
BRANCH  30  31
HETATM   31  C   UNL     1      39.528 -10.766   5.576  1.00  0.00     0.299 C 
BRANCH  31  32
HETATM   32  N   UNL     1      38.458 -10.938   4.576  1.00  0.00     0.094 N 
HETATM   33  C   UNL     1      37.963  -9.665   4.008  1.00  0.00     0.298 C 
HETATM   34  C   UNL     1      38.944  -8.987   3.035  1.00  0.00     0.198 C 
HETATM   35  O   UNL     1      39.308  -9.869   1.967  1.00  0.00    -0.388 OA
HETATM   36  C   UNL     1      39.876 -11.082   2.479  1.00  0.00     0.198 C 
HETATM   37  C   UNL     1      38.914 -11.789   3.451  1.00  0.00     0.298 C 
ENDBRANCH  31  32
ENDBRANCH  30  31
ENDBRANCH  29  30
ENDBRANCH   1  29
TORSDOF 7
ENDMDL
MODEL 3
REMARK VINA RESULT:      -9.1      2.867      7.053
REMARK  7 active torsions:
REMARK  status: ('A' for Active; 'I' for Inactive)
REMARK    1  A    between atoms: C_1  and  C_2 
REMARK    2  A    between atoms: C_1  and  O_9 
REMARK    3  A    between atoms: C_2  and  N_3 
REMARK    4  A    between atoms: O_9  and  C_10 
REMARK    5  A    between atoms: C_15  and  C_31 
REMARK    6  A    between atoms: C_17  and  N_18 
REMARK    7  A    between atoms: N_18  and  C_19 
ROOT
HETATM    1  C   UNL     1      39.777 -14.172  -0.287  1.00  0.00     0.069 A 
HETATM    2  C   UNL     1      40.540 -14.885  -1.203  1.00  0.00     0.039 A 
HETATM    3  C   UNL     1      41.334 -15.953  -0.767  1.00  0.00     0.035 A 
HETATM    4  C   UNL     1      41.392 -16.334   0.566  1.00  0.00     0.073 A 
HETATM    5  N   UNL     1      42.169 -17.367   0.896  1.00  0.00    -0.228 NA
HETATM    6  C   UNL     1      42.220 -17.716   2.191  1.00  0.00     0.162 A 
HETATM    7  N   UNL     1      41.546 -17.091   3.167  1.00  0.00    -0.210 NA
HETATM    8  C   UNL     1      40.759 -16.056   2.828  1.00  0.00     0.143 A 
HETATM    9  C   UNL     1      40.634 -15.620   1.499  1.00  0.00     0.041 A 
HETATM   10  C   UNL     1      39.833 -14.534   1.059  1.00  0.00     0.054 A 
ENDROOT
BRANCH   8  11
HETATM   11  N   UNL     1      40.017 -15.401   3.849  1.00  0.00    -0.340 N 
HETATM   12  H   UNL     1      39.492 -16.093   4.372  1.00  0.00     0.167 HD
BRANCH  11  13
HETATM   13  C   UNL     1      40.461 -14.334   4.668  1.00  0.00     0.034 A 
HETATM   14  C   UNL     1      41.830 -14.024   4.713  1.00  0.00     0.032 A 
HETATM   15  C   UNL     1      42.340 -13.012   5.539  1.00  0.00     0.034 A 
HETATM   16  C   UNL     1      41.426 -12.335   6.348  1.00  0.00     0.062 A 
HETATM   17  N   UNL     1      41.581 -11.319   7.255  1.00  0.00    -0.278 N 
HETATM   18  C   UNL     1      40.070 -12.630   6.360  1.00  0.00     0.013 A 
HETATM   19  H   UNL     1      42.438 -10.845   7.511  1.00  0.00     0.189 HD
HETATM   20  N   UNL     1      40.440 -10.941   7.859  1.00  0.00    -0.186 NA
HETATM   21  C   UNL     1      39.522 -11.743   7.313  1.00  0.00     0.152 A 
HETATM   22  C   UNL     1      39.581 -13.647   5.522  1.00  0.00     0.044 A 
ENDBRANCH  11  13
ENDBRANCH   8  11
BRANCH   6  23
HETATM   23  C   UNL     1      43.052 -18.877   2.567  1.00  0.00     0.012 A 
HETATM   24  C   UNL     1      43.818 -18.883   3.750  1.00  0.00     0.015 A 
HETATM   25  C   UNL     1      44.612 -19.980   4.101  1.00  0.00     0.001 A 
HETATM   26  C   UNL     1      44.662 -21.098   3.276  1.00  0.00     0.000 A 
HETATM   27  C   UNL     1      43.916 -21.123   2.101  1.00  0.00     0.001 A 
HETATM   28  C   UNL     1      43.121 -20.026   1.754  1.00  0.00     0.015 A 
ENDBRANCH   6  23
BRANCH   1  29
HETATM   29  O   UNL     1      38.948 -13.123  -0.571  1.00  0.00    -0.349 OA
BRANCH  29  30
HETATM   30  C   UNL     1      39.270 -12.341  -1.728  1.00  0.00     0.206 C 
BRANCH  30  31
HETATM   31  C   UNL     1      39.924 -11.030  -1.259  1.00  0.00     0.299 C 
BRANCH  31  32
HETATM   32  N   UNL     1      40.993 -10.540  -2.149  1.00  0.00     0.094 N 
HETATM   33  C   UNL     1      41.793  -9.438  -1.570  1.00  0.00     0.298 C 
HETATM   34  C   UNL     1      42.750  -9.879  -0.448  1.00  0.00     0.198 C 
HETATM   35  O   UNL     1      43.631 -10.916  -0.894  1.00  0.00    -0.388 OA
HETATM   36  C   UNL     1      42.887 -12.040  -1.382  1.00  0.00     0.198 C 
HETATM   37  C   UNL     1      41.925 -11.633  -2.513  1.00  0.00     0.298 C 
ENDBRANCH  31  32
ENDBRANCH  30  31
ENDBRANCH  29  30
ENDBRANCH   1  29
TORSDOF 7
ENDMDL
MODEL 4
REMARK VINA RESULT:      -9.1      2.717      7.765
REMARK  7 active torsions:
REMARK  status: ('A' for Active; 'I' for Inactive)
REMARK    1  A    between atoms: C_1  and  C_2 
REMARK    2  A    between atoms: C_1  and  O_9 
REMARK    3  A    between atoms: C_2  and  N_3 
REMARK    4  A    between atoms: O_9  and  C_10 
REMARK    5  A    between atoms: C_15  and  C_31 
REMARK    6  A    between atoms: C_17  and  N_18 
REMARK    7  A    between atoms: N_18  and  C_19 
ROOT
HETATM    1  C   UNL     1      40.173 -14.517   0.525  1.00  0.00     0.069 A 
HETATM    2  C   UNL     1      40.832 -15.199  -0.491  1.00  0.00     0.039 A 
HETATM    3  C   UNL     1      41.591 -16.336  -0.189  1.00  0.00     0.035 A 
HETATM    4  C   UNL     1      41.717 -16.817   1.107  1.00  0.00     0.073 A 
HETATM    5  N   UNL     1      42.455 -17.910   1.307  1.00  0.00    -0.228 NA
HETATM    6  C   UNL     1      42.573 -18.357   2.567  1.00  0.00     0.162 A 
HETATM    7  N   UNL     1      42.004 -17.771   3.630  1.00  0.00    -0.210 NA
HETATM    8  C   UNL     1      41.256 -16.674   3.422  1.00  0.00     0.143 A 
HETATM    9  C   UNL     1      41.066 -16.135   2.139  1.00  0.00     0.041 A 
HETATM   10  C   UNL     1      40.300 -14.980   1.835  1.00  0.00     0.054 A 
ENDROOT
BRANCH   8  11
HETATM   11  N   UNL     1      40.624 -16.058   4.537  1.00  0.00    -0.340 N 
HETATM   12  H   UNL     1      40.453 -16.760   5.249  1.00  0.00     0.167 HD
BRANCH  11  13
HETATM   13  C   UNL     1      40.931 -14.793   5.094  1.00  0.00     0.034 A 
HETATM   14  C   UNL     1      42.275 -14.428   5.276  1.00  0.00     0.032 A 
HETATM   15  C   UNL     1      42.645 -13.211   5.865  1.00  0.00     0.034 A 
HETATM   16  C   UNL     1      41.612 -12.377   6.297  1.00  0.00     0.062 A 
HETATM   17  N   UNL     1      41.619 -11.148   6.904  1.00  0.00    -0.278 N 
HETATM   18  C   UNL     1      40.271 -12.712   6.167  1.00  0.00     0.013 A 
HETATM   19  H   UNL     1      42.424 -10.588   7.157  1.00  0.00     0.189 HD
HETATM   20  N   UNL     1      40.395 -10.666   7.186  1.00  0.00    -0.186 NA
HETATM   21  C   UNL     1      39.577 -11.622   6.737  1.00  0.00     0.152 A 
HETATM   22  C   UNL     1      39.923 -13.936   5.571  1.00  0.00     0.044 A 
ENDBRANCH  11  13
ENDBRANCH   8  11
BRANCH   6  23
HETATM   23  C   UNL     1      43.361 -19.584   2.801  1.00  0.00     0.012 A 
HETATM   24  C   UNL     1      44.152 -19.744   3.956  1.00  0.00     0.015 A 
HETATM   25  C   UNL     1      44.905 -20.903   4.171  1.00  0.00     0.001 A 
HETATM   26  C   UNL     1      44.887 -21.931   3.235  1.00  0.00     0.000 A 
HETATM   27  C   UNL     1      44.115 -21.803   2.085  1.00  0.00     0.001 A 
HETATM   28  C   UNL     1      43.362 -20.644   1.872  1.00  0.00     0.015 A 
ENDBRANCH   6  23
BRANCH   1  29
HETATM   29  O   UNL     1      39.389 -13.408   0.376  1.00  0.00    -0.349 OA
BRANCH  29  30
HETATM   30  C   UNL     1      39.473 -12.723  -0.880  1.00  0.00     0.206 C 
BRANCH  30  31
HETATM   31  C   UNL     1      38.219 -13.063  -1.703  1.00  0.00     0.299 C 
BRANCH  31  32
HETATM   32  N   UNL     1      38.409 -12.952  -3.161  1.00  0.00     0.094 N 
HETATM   33  C   UNL     1      39.505 -13.796  -3.686  1.00  0.00     0.298 C 
HETATM   34  C   UNL     1      39.183 -15.300  -3.711  1.00  0.00     0.198 C 
HETATM   35  O   UNL     1      37.988 -15.563  -4.456  1.00  0.00    -0.388 OA
HETATM   36  C   UNL     1      36.881 -14.828  -3.919  1.00  0.00     0.198 C 
HETATM   37  C   UNL     1      37.169 -13.316  -3.888  1.00  0.00     0.298 C 
ENDBRANCH  31  32
ENDBRANCH  30  31
ENDBRANCH  29  30
ENDBRANCH   1  29
TORSDOF 7
ENDMDL
MODEL 5
REMARK VINA RESULT:      -9.0      2.103      2.604
REMARK  7 active torsions:
REMARK  status: ('A' for Active; 'I' for Inactive)
REMARK    1  A    between atoms: C_1  and  C_2 
REMARK    2  A    between atoms: C_1  and  O_9 
REMARK    3  A    between atoms: C_2  and  N_3 
REMARK    4  A    between atoms: O_9  and  C_10 
REMARK    5  A    between atoms: C_15  and  C_31 
REMARK    6  A    between atoms: C_17  and  N_18 
REMARK    7  A    between atoms: N_18  and  C_19 
ROOT
HETATM    1  C   UNL     1      39.627 -13.650   4.768  1.00  0.00     0.069 A 
HETATM    2  C   UNL     1      40.313 -14.196   5.845  1.00  0.00     0.039 A 
HETATM    3  C   UNL     1      41.103 -15.338   5.663  1.00  0.00     0.035 A 
HETATM    4  C   UNL     1      41.228 -15.960   4.429  1.00  0.00     0.073 A 
HETATM    5  N   UNL     1      42.005 -17.041   4.340  1.00  0.00    -0.228 NA
HETATM    6  C   UNL     1      42.107 -17.634   3.141  1.00  0.00     0.162 A 
HETATM    7  N   UNL     1      41.476 -17.214   2.036  1.00  0.00    -0.210 NA
HETATM    8  C   UNL     1      40.700 -16.120   2.128  1.00  0.00     0.143 A 
HETATM    9  C   UNL     1      40.536 -15.425   3.338  1.00  0.00     0.041 A 
HETATM   10  C   UNL     1      39.731 -14.270   3.523  1.00  0.00     0.054 A 
ENDROOT
BRANCH   8  11
HETATM   11  N   UNL     1      40.046 -15.647   0.958  1.00  0.00    -0.340 N 
HETATM   12  H   UNL     1      39.153 -15.245   1.219  1.00  0.00     0.167 HD
BRANCH  11  13
HETATM   13  C   UNL     1      40.644 -14.965  -0.130  1.00  0.00     0.034 A 
HETATM   14  C   UNL     1      40.791 -15.626  -1.360  1.00  0.00     0.032 A 
HETATM   15  C   UNL     1      41.417 -15.024  -2.462  1.00  0.00     0.034 A 
HETATM   16  C   UNL     1      41.921 -13.735  -2.276  1.00  0.00     0.062 A 
HETATM   17  N   UNL     1      42.578 -12.878  -3.120  1.00  0.00    -0.278 N 
HETATM   18  C   UNL     1      41.827 -13.057  -1.069  1.00  0.00     0.013 A 
HETATM   19  H   UNL     1      42.825 -13.034  -4.090  1.00  0.00     0.189 HD
HETATM   20  N   UNL     1      42.926 -11.708  -2.555  1.00  0.00    -0.186 NA
HETATM   21  C   UNL     1      42.468 -11.821  -1.305  1.00  0.00     0.152 A 
HETATM   22  C   UNL     1      41.193 -13.680   0.021  1.00  0.00     0.044 A 
ENDBRANCH  11  13
ENDBRANCH   8  11
BRANCH   6  23
HETATM   23  C   UNL     1      42.989 -18.813   3.021  1.00  0.00     0.012 A 
HETATM   24  C   UNL     1      42.902 -19.689   1.920  1.00  0.00     0.015 A 
HETATM   25  C   UNL     1      43.732 -20.811   1.812  1.00  0.00     0.001 A 
HETATM   26  C   UNL     1      44.668 -21.085   2.803  1.00  0.00     0.000 A 
HETATM   27  C   UNL     1      44.778 -20.239   3.901  1.00  0.00     0.001 A 
HETATM   28  C   UNL     1      43.949 -19.117   4.007  1.00  0.00     0.015 A 
ENDBRANCH   6  23
BRANCH   1  29
HETATM   29  O   UNL     1      38.837 -12.536   4.795  1.00  0.00    -0.349 OA
BRANCH  29  30
HETATM   30  C   UNL     1      39.257 -11.427   3.991  1.00  0.00     0.206 C 
BRANCH  30  31
HETATM   31  C   UNL     1      39.718 -10.297   4.928  1.00  0.00     0.299 C 
BRANCH  31  32
HETATM   32  N   UNL     1      41.183 -10.155   5.022  1.00  0.00     0.094 N 
HETATM   33  C   UNL     1      41.636  -8.758   5.205  1.00  0.00     0.298 C 
HETATM   34  C   UNL     1      41.360  -8.187   6.607  1.00  0.00     0.198 C 
HETATM   35  O   UNL     1      41.942  -9.009   7.626  1.00  0.00    -0.388 OA
HETATM   36  C   UNL     1      41.456 -10.354   7.535  1.00  0.00     0.198 C 
HETATM   37  C   UNL     1      41.725 -10.958   6.144  1.00  0.00     0.298 C 
ENDBRANCH  31  32
ENDBRANCH  30  31
ENDBRANCH  29  30
ENDBRANCH   1  29
TORSDOF 7
ENDMDL
MODEL 6
REMARK VINA RESULT:      -8.8      2.391      5.777
REMARK  7 active torsions:
REMARK  status: ('A' for Active; 'I' for Inactive)
REMARK    1  A    between atoms: C_1  and  C_2 
REMARK    2  A    between atoms: C_1  and  O_9 
REMARK    3  A    between atoms: C_2  and  N_3 
REMARK    4  A    between atoms: O_9  and  C_10 
REMARK    5  A    between atoms: C_15  and  C_31 
REMARK    6  A    between atoms: C_17  and  N_18 
REMARK    7  A    between atoms: N_18  and  C_19 
ROOT
HETATM    1  C   UNL     1      40.102 -14.396  -0.070  1.00  0.00     0.069 A 
HETATM    2  C   UNL     1      40.856 -15.085  -1.011  1.00  0.00     0.039 A 
HETATM    3  C   UNL     1      41.614 -16.195  -0.620  1.00  0.00     0.035 A 
HETATM    4  C   UNL     1      41.646 -16.642   0.694  1.00  0.00     0.073 A 
HETATM    5  N   UNL     1      42.391 -17.711   0.982  1.00  0.00    -0.228 NA
HETATM    6  C   UNL     1      42.417 -18.123   2.259  1.00  0.00     0.162 A 
HETATM    7  N   UNL     1      41.750 -17.526   3.257  1.00  0.00    -0.210 NA
HETATM    8  C   UNL     1      40.996 -16.454   2.961  1.00  0.00     0.143 A 
HETATM    9  C   UNL     1      40.898 -15.951   1.652  1.00  0.00     0.041 A 
HETATM   10  C   UNL     1      40.133 -14.823   1.258  1.00  0.00     0.054 A 
ENDROOT
BRANCH   8  11
HETATM   11  N   UNL     1      40.262 -15.827   4.005  1.00  0.00    -0.340 N 
HETATM   12  H   UNL     1      39.847 -16.543   4.592  1.00  0.00     0.167 HD
BRANCH  11  13
HETATM   13  C   UNL     1      40.648 -14.684   4.744  1.00  0.00     0.034 A 
HETATM   14  C   UNL     1      42.010 -14.356   4.845  1.00  0.00     0.032 A 
HETATM   15  C   UNL     1      42.461 -13.264   5.601  1.00  0.00     0.034 A 
HETATM   16  C   UNL     1      41.494 -12.523   6.284  1.00  0.00     0.062 A 
HETATM   17  N   UNL     1      41.586 -11.425   7.098  1.00  0.00    -0.278 N 
HETATM   18  C   UNL     1      40.141 -12.831   6.239  1.00  0.00     0.013 A 
HETATM   19  H   UNL     1      42.424 -10.919   7.360  1.00  0.00     0.189 HD
HETATM   20  N   UNL     1      40.408 -11.004   7.591  1.00  0.00    -0.186 NA
HETATM   21  C   UNL     1      39.530 -11.864   7.066  1.00  0.00     0.152 A 
HETATM   22  C   UNL     1      39.711 -13.928   5.472  1.00  0.00     0.044 A 
ENDBRANCH  11  13
ENDBRANCH   8  11
BRANCH   6  23
HETATM   23  C   UNL     1      43.211 -19.324   2.587  1.00  0.00     0.012 A 
HETATM   24  C   UNL     1      43.231 -20.449   1.739  1.00  0.00     0.015 A 
HETATM   25  C   UNL     1      43.977 -21.590   2.055  1.00  0.00     0.001 A 
HETATM   26  C   UNL     1      44.721 -21.634   3.229  1.00  0.00     0.000 A 
HETATM   27  C   UNL     1      44.722 -20.539   4.086  1.00  0.00     0.001 A 
HETATM   28  C   UNL     1      43.978 -19.399   3.768  1.00  0.00     0.015 A 
ENDBRANCH   6  23
BRANCH   1  29
HETATM   29  O   UNL     1      39.307 -13.312  -0.311  1.00  0.00    -0.349 OA
BRANCH  29  30
HETATM   30  C   UNL     1      38.603 -12.766   0.811  1.00  0.00     0.206 C 
BRANCH  30  31
HETATM   31  C   UNL     1      39.037 -11.301   0.989  1.00  0.00     0.299 C 
BRANCH  31  32
HETATM   32  N   UNL     1      40.480 -11.128   1.240  1.00  0.00     0.094 N 
HETATM   33  C   UNL     1      40.991  -9.786   0.883  1.00  0.00     0.298 C 
HETATM   34  C   UNL     1      40.557  -8.671   1.850  1.00  0.00     0.198 C 
HETATM   35  O   UNL     1      40.935  -8.975   3.198  1.00  0.00    -0.388 OA
HETATM   36  C   UNL     1      40.381 -10.232   3.610  1.00  0.00     0.198 C 
HETATM   37  C   UNL     1      40.805 -11.372   2.666  1.00  0.00     0.298 C 
ENDBRANCH  31  32
ENDBRANCH  30  31
ENDBRANCH  29  30
ENDBRANCH   1  29
TORSDOF 7
ENDMDL
MODEL 7
REMARK VINA RESULT:      -8.7      1.765      2.140
REMARK  7 active torsions:
REMARK  status: ('A' for Active; 'I' for Inactive)
REMARK    1  A    between atoms: C_1  and  C_2 
REMARK    2  A    between atoms: C_1  and  O_9 
REMARK    3  A    between atoms: C_2  and  N_3 
REMARK    4  A    between atoms: O_9  and  C_10 
REMARK    5  A    between atoms: C_15  and  C_31 
REMARK    6  A    between atoms: C_17  and  N_18 
REMARK    7  A    between atoms: N_18  and  C_19 
ROOT
HETATM    1  C   UNL     1      39.746 -12.846   4.743  1.00  0.00     0.069 A 
HETATM    2  C   UNL     1      39.639 -13.836   5.711  1.00  0.00     0.039 A 
HETATM    3  C   UNL     1      40.291 -15.062   5.531  1.00  0.00     0.035 A 
HETATM    4  C   UNL     1      41.054 -15.333   4.403  1.00  0.00     0.073 A 
HETATM    5  N   UNL     1      41.648 -16.525   4.313  1.00  0.00    -0.228 NA
HETATM    6  C   UNL     1      42.374 -16.773   3.211  1.00  0.00     0.162 A 
HETATM    7  N   UNL     1      42.532 -15.906   2.202  1.00  0.00    -0.210 NA
HETATM    8  C   UNL     1      41.938 -14.704   2.301  1.00  0.00     0.143 A 
HETATM    9  C   UNL     1      41.164 -14.348   3.418  1.00  0.00     0.041 A 
HETATM   10  C   UNL     1      40.498 -13.107   3.598  1.00  0.00     0.054 A 
ENDROOT
BRANCH   8  11
HETATM   11  N   UNL     1      42.120 -13.765   1.250  1.00  0.00    -0.340 N 
HETATM   12  H   UNL     1      43.100 -13.510   1.201  1.00  0.00     0.167 HD
BRANCH  11  13
HETATM   13  C   UNL     1      41.508 -13.791  -0.026  1.00  0.00     0.034 A 
HETATM   14  C   UNL     1      40.869 -12.637  -0.509  1.00  0.00     0.032 A 
HETATM   15  C   UNL     1      40.204 -12.613  -1.743  1.00  0.00     0.034 A 
HETATM   16  C   UNL     1      40.174 -13.804  -2.470  1.00  0.00     0.062 A 
HETATM   17  N   UNL     1      39.621 -14.125  -3.682  1.00  0.00    -0.278 N 
HETATM   18  C   UNL     1      40.764 -14.976  -2.017  1.00  0.00     0.013 A 
HETATM   19  H   UNL     1      39.107 -13.516  -4.308  1.00  0.00     0.189 HD
HETATM   20  N   UNL     1      39.794 -15.409  -4.045  1.00  0.00    -0.186 NA
HETATM   21  C   UNL     1      40.489 -15.924  -3.027  1.00  0.00     0.152 A 
HETATM   22  C   UNL     1      41.428 -14.977  -0.778  1.00  0.00     0.044 A 
ENDBRANCH  11  13
ENDBRANCH   8  11
BRANCH   6  23
HETATM   23  C   UNL     1      43.063 -18.076   3.111  1.00  0.00     0.012 A 
HETATM   24  C   UNL     1      42.853 -18.939   2.017  1.00  0.00     0.015 A 
HETATM   25  C   UNL     1      43.499 -20.176   1.927  1.00  0.00     0.001 A 
HETATM   26  C   UNL     1      44.371 -20.582   2.932  1.00  0.00     0.000 A 
HETATM   27  C   UNL     1      44.599 -19.753   4.025  1.00  0.00     0.001 A 
HETATM   28  C   UNL     1      43.954 -18.515   4.111  1.00  0.00     0.015 A 
ENDBRANCH   6  23
BRANCH   1  29
HETATM   29  O   UNL     1      39.180 -11.604   4.793  1.00  0.00    -0.349 OA
BRANCH  29  30
HETATM   30  C   UNL     1      40.072 -10.494   4.951  1.00  0.00     0.206 C 
BRANCH  30  31
HETATM   31  C   UNL     1      39.837  -9.879   6.342  1.00  0.00     0.299 C 
BRANCH  31  32
HETATM   32  N   UNL     1      40.457 -10.635   7.446  1.00  0.00     0.094 N 
HETATM   33  C   UNL     1      41.441  -9.853   8.226  1.00  0.00     0.298 C 
HETATM   34  C   UNL     1      40.814  -8.783   9.137  1.00  0.00     0.198 C 
HETATM   35  O   UNL     1      39.856  -9.361  10.032  1.00  0.00    -0.388 OA
HETATM   36  C   UNL     1      38.834 -10.054   9.305  1.00  0.00     0.198 C 
HETATM   37  C   UNL     1      39.430 -11.139   8.389  1.00  0.00     0.298 C 
ENDBRANCH  31  32
ENDBRANCH  30  31
ENDBRANCH  29  30
ENDBRANCH   1  29
TORSDOF 7
ENDMDL
MODEL 8
REMARK VINA RESULT:      -8.7      3.065      8.339
REMARK  7 active torsions:
REMARK  status: ('A' for Active; 'I' for Inactive)
REMARK    1  A    between atoms: C_1  and  C_2 
REMARK    2  A    between atoms: C_1  and  O_9 
REMARK    3  A    between atoms: C_2  and  N_3 
REMARK    4  A    between atoms: O_9  and  C_10 
REMARK    5  A    between atoms: C_15  and  C_31 
REMARK    6  A    between atoms: C_17  and  N_18 
REMARK    7  A    between atoms: N_18  and  C_19 
ROOT
HETATM    1  C   UNL     1      38.786 -13.771   1.694  1.00  0.00     0.069 A 
HETATM    2  C   UNL     1      38.999 -12.443   2.039  1.00  0.00     0.039 A 
HETATM    3  C   UNL     1      39.884 -12.124   3.076  1.00  0.00     0.035 A 
HETATM    4  C   UNL     1      40.569 -13.099   3.788  1.00  0.00     0.073 A 
HETATM    5  N   UNL     1      41.398 -12.710   4.758  1.00  0.00    -0.228 NA
HETATM    6  C   UNL     1      42.045 -13.666   5.442  1.00  0.00     0.162 A 
HETATM    7  N   UNL     1      41.905 -14.980   5.215  1.00  0.00    -0.210 NA
HETATM    8  C   UNL     1      41.074 -15.367   4.233  1.00  0.00     0.143 A 
HETATM    9  C   UNL     1      40.357 -14.441   3.456  1.00  0.00     0.041 A 
HETATM   10  C   UNL     1      39.457 -14.765   2.408  1.00  0.00     0.054 A 
ENDROOT
BRANCH   8  11
HETATM   11  N   UNL     1      40.936 -16.756   3.964  1.00  0.00    -0.340 N 
HETATM   12  H   UNL     1      40.133 -16.898   3.360  1.00  0.00     0.167 HD
BRANCH  11  13
HETATM   13  C   UNL     1      41.979 -17.674   3.693  1.00  0.00     0.034 A 
HETATM   14  C   UNL     1      42.240 -18.049   2.365  1.00  0.00     0.032 A 
HETATM   15  C   UNL     1      43.226 -18.990   2.034  1.00  0.00     0.034 A 
HETATM   16  C   UNL     1      43.928 -19.570   3.093  1.00  0.00     0.062 A 
HETATM   17  N   UNL     1      44.930 -20.504   3.125  1.00  0.00    -0.278 N 
HETATM   18  C   UNL     1      43.681 -19.254   4.421  1.00  0.00     0.013 A 
HETATM   19  H   UNL     1      45.371 -20.965   2.338  1.00  0.00     0.189 HD
HETATM   20  N   UNL     1      45.343 -20.826   4.364  1.00  0.00    -0.186 NA
HETATM   21  C   UNL     1      44.579 -20.063   5.151  1.00  0.00     0.152 A 
HETATM   22  C   UNL     1      42.689 -18.306   4.729  1.00  0.00     0.044 A 
ENDBRANCH  11  13
ENDBRANCH   8  11
BRANCH   6  23
HETATM   23  C   UNL     1      42.990 -13.249   6.497  1.00  0.00     0.012 A 
HETATM   24  C   UNL     1      42.732 -12.135   7.320  1.00  0.00     0.015 A 
HETATM   25  C   UNL     1      43.632 -11.736   8.314  1.00  0.00     0.001 A 
HETATM   26  C   UNL     1      44.816 -12.440   8.507  1.00  0.00     0.000 A 
HETATM   27  C   UNL     1      45.100 -13.544   7.710  1.00  0.00     0.001 A 
HETATM   28  C   UNL     1      44.197 -13.943   6.720  1.00  0.00     0.015 A 
ENDBRANCH   6  23
BRANCH   1  29
HETATM   29  O   UNL     1      37.968 -14.226   0.699  1.00  0.00    -0.349 OA
BRANCH  29  30
HETATM   30  C   UNL     1      37.769 -13.354  -0.421  1.00  0.00     0.206 C 
BRANCH  30  31
HETATM   31  C   UNL     1      38.650 -13.849  -1.581  1.00  0.00     0.299 C 
BRANCH  31  32
HETATM   32  N   UNL     1      40.088 -13.904  -1.263  1.00  0.00     0.094 N 
HETATM   33  C   UNL     1      40.674 -15.257  -1.384  1.00  0.00     0.298 C 
HETATM   34  C   UNL     1      40.844 -15.741  -2.835  1.00  0.00     0.198 C 
HETATM   35  O   UNL     1      41.627 -14.819  -3.601  1.00  0.00    -0.388 OA
HETATM   36  C   UNL     1      41.038 -13.511  -3.580  1.00  0.00     0.198 C 
HETATM   37  C   UNL     1      40.863 -12.995  -2.141  1.00  0.00     0.298 C 
ENDBRANCH  31  32
ENDBRANCH  30  31
ENDBRANCH  29  30
ENDBRANCH   1  29
TORSDOF 7
ENDMDL
MODEL 9
REMARK VINA RESULT:      -8.5      1.964      5.809
REMARK  7 active torsions:
REMARK  status: ('A' for Active; 'I' for Inactive)
REMARK    1  A    between atoms: C_1  and  C_2 
REMARK    2  A    between atoms: C_1  and  O_9 
REMARK    3  A    between atoms: C_2  and  N_3 
REMARK    4  A    between atoms: O_9  and  C_10 
REMARK    5  A    between atoms: C_15  and  C_31 
REMARK    6  A    between atoms: C_17  and  N_18 
REMARK    7  A    between atoms: N_18  and  C_19 
ROOT
HETATM    1  C   UNL     1      39.495 -12.631   5.426  1.00  0.00     0.069 A 
HETATM    2  C   UNL     1      39.184 -11.609   4.538  1.00  0.00     0.039 A 
HETATM    3  C   UNL     1      39.243 -11.841   3.159  1.00  0.00     0.035 A 
HETATM    4  C   UNL     1      39.609 -13.072   2.632  1.00  0.00     0.073 A 
HETATM    5  N   UNL     1      39.634 -13.211   1.305  1.00  0.00    -0.228 NA
HETATM    6  C   UNL     1      39.998 -14.406   0.813  1.00  0.00     0.162 A 
HETATM    7  N   UNL     1      40.341 -15.458   1.569  1.00  0.00    -0.210 NA
HETATM    8  C   UNL     1      40.307 -15.316   2.905  1.00  0.00     0.143 A 
HETATM    9  C   UNL     1      39.931 -14.107   3.515  1.00  0.00     0.041 A 
HETATM   10  C   UNL     1      39.876 -13.872   4.913  1.00  0.00     0.054 A 
ENDROOT
BRANCH   8  11
HETATM   11  N   UNL     1      40.642 -16.433   3.719  1.00  0.00    -0.340 N 
HETATM   12  H   UNL     1      39.788 -16.895   4.012  1.00  0.00     0.167 HD
BRANCH  11  13
HETATM   13  C   UNL     1      41.702 -17.347   3.508  1.00  0.00     0.034 A 
HETATM   14  C   UNL     1      41.975 -17.798   2.206  1.00  0.00     0.032 A 
HETATM   15  C   UNL     1      42.979 -18.739   1.937  1.00  0.00     0.034 A 
HETATM   16  C   UNL     1      43.687 -19.240   3.032  1.00  0.00     0.062 A 
HETATM   17  N   UNL     1      44.705 -20.153   3.125  1.00  0.00    -0.278 N 
HETATM   18  C   UNL     1      43.429 -18.848   4.338  1.00  0.00     0.013 A 
HETATM   19  H   UNL     1      45.158 -20.653   2.369  1.00  0.00     0.189 HD
HETATM   20  N   UNL     1      45.119 -20.390   4.382  1.00  0.00    -0.186 NA
HETATM   21  C   UNL     1      44.338 -19.594   5.119  1.00  0.00     0.152 A 
HETATM   22  C   UNL     1      42.419 -17.900   4.583  1.00  0.00     0.044 A 
ENDBRANCH  11  13
ENDBRANCH   8  11
BRANCH   6  23
HETATM   23  C   UNL     1      40.001 -14.584  -0.653  1.00  0.00     0.012 A 
HETATM   24  C   UNL     1      39.027 -13.977  -1.471  1.00  0.00     0.015 A 
HETATM   25  C   UNL     1      39.025 -14.153  -2.858  1.00  0.00     0.001 A 
HETATM   26  C   UNL     1      39.997 -14.943  -3.463  1.00  0.00     0.000 A 
HETATM   27  C   UNL     1      40.972 -15.556  -2.682  1.00  0.00     0.001 A 
HETATM   28  C   UNL     1      40.973 -15.376  -1.296  1.00  0.00     0.015 A 
ENDBRANCH   6  23
BRANCH   1  29
HETATM   29  O   UNL     1      39.464 -12.553   6.789  1.00  0.00    -0.349 OA
BRANCH  29  30
HETATM   30  C   UNL     1      39.581 -11.245   7.363  1.00  0.00     0.206 C 
BRANCH  30  31
HETATM   31  C   UNL     1      39.400 -11.366   8.886  1.00  0.00     0.299 C 
BRANCH  31  32
HETATM   32  N   UNL     1      39.825 -10.172   9.638  1.00  0.00     0.094 N 
HETATM   33  C   UNL     1      39.651 -10.296  11.102  1.00  0.00     0.298 C 
HETATM   34  C   UNL     1      40.661 -11.240  11.777  1.00  0.00     0.198 C 
HETATM   35  O   UNL     1      42.008 -10.846  11.495  1.00  0.00    -0.388 OA
HETATM   36  C   UNL     1      42.240 -10.801  10.081  1.00  0.00     0.198 C 
HETATM   37  C   UNL     1      41.250  -9.856   9.377  1.00  0.00     0.298 C 
ENDBRANCH  31  32
ENDBRANCH  30  31
ENDBRANCH  29  30
ENDBRANCH   1  29
TORSDOF 7
ENDMDL
MODEL 10
REMARK VINA RESULT:      -8.5      3.604      5.928
REMARK  7 active torsions:
REMARK  status: ('A' for Active; 'I' for Inactive)
REMARK    1  A    between atoms: C_1  and  C_2 
REMARK    2  A    between atoms: C_1  and  O_9 
REMARK    3  A    between atoms: C_2  and  N_3 
REMARK    4  A    between atoms: O_9  and  C_10 
REMARK    5  A    between atoms: C_15  and  C_31 
REMARK    6  A    between atoms: C_17  and  N_18 
REMARK    7  A    between atoms: N_18  and  C_19 
ROOT
HETATM    1  C   UNL     1      39.299 -13.612   2.705  1.00  0.00     0.069 A 
HETATM    2  C   UNL     1      39.734 -13.780   4.014  1.00  0.00     0.039 A 
HETATM    3  C   UNL     1      40.608 -14.826   4.330  1.00  0.00     0.035 A 
HETATM    4  C   UNL     1      41.065 -15.721   3.372  1.00  0.00     0.073 A 
HETATM    5  N   UNL     1      41.901 -16.687   3.756  1.00  0.00    -0.228 NA
HETATM    6  C   UNL     1      42.326 -17.549   2.819  1.00  0.00     0.162 A 
HETATM    7  N   UNL     1      41.958 -17.502   1.530  1.00  0.00    -0.210 NA
HETATM    8  C   UNL     1      41.121 -16.523   1.147  1.00  0.00     0.143 A 
HETATM    9  C   UNL     1      40.628 -15.568   2.053  1.00  0.00     0.041 A 
HETATM   10  C   UNL     1      39.738 -14.511   1.732  1.00  0.00     0.054 A 
ENDROOT
BRANCH   8  11
HETATM   11  N   UNL     1      40.745 -16.444  -0.222  1.00  0.00    -0.340 N 
HETATM   12  H   UNL     1      39.776 -16.730  -0.315  1.00  0.00     0.167 HD
BRANCH  11  13
HETATM   13  C   UNL     1      41.093 -15.425  -1.140  1.00  0.00     0.034 A 
HETATM   14  C   UNL     1      40.920 -15.647  -2.516  1.00  0.00     0.032 A 
HETATM   15  C   UNL     1      41.290 -14.697  -3.479  1.00  0.00     0.034 A 
HETATM   16  C   UNL     1      41.873 -13.517  -3.012  1.00  0.00     0.062 A 
HETATM   17  N   UNL     1      42.345 -12.408  -3.664  1.00  0.00    -0.278 N 
HETATM   18  C   UNL     1      42.094 -13.269  -1.665  1.00  0.00     0.013 A 
HETATM   19  H   UNL     1      42.348 -12.232  -4.662  1.00  0.00     0.189 HD
HETATM   20  N   UNL     1      42.860 -11.468  -2.851  1.00  0.00    -0.186 NA
HETATM   21  C   UNL     1      42.707 -11.998  -1.634  1.00  0.00     0.152 A 
HETATM   22  C   UNL     1      41.712 -14.235  -0.717  1.00  0.00     0.044 A 
ENDBRANCH  11  13
ENDBRANCH   8  11
BRANCH   6  23
HETATM   23  C   UNL     1      43.277 -18.604   3.222  1.00  0.00     0.012 A 
HETATM   24  C   UNL     1      43.825 -18.645   4.520  1.00  0.00     0.015 A 
HETATM   25  C   UNL     1      44.733 -19.640   4.898  1.00  0.00     0.001 A 
HETATM   26  C   UNL     1      45.116 -20.619   3.988  1.00  0.00     0.000 A 
HETATM   27  C   UNL     1      44.591 -20.606   2.699  1.00  0.00     0.001 A 
HETATM   28  C   UNL     1      43.683 -19.611   2.324  1.00  0.00     0.015 A 
ENDBRANCH   6  23
BRANCH   1  29
HETATM   29  O   UNL     1      38.463 -12.631   2.252  1.00  0.00    -0.349 OA
BRANCH  29  30
HETATM   30  C   UNL     1      37.672 -12.940   1.097  1.00  0.00     0.206 C 
BRANCH  30  31
HETATM   31  C   UNL     1      37.876 -11.823   0.059  1.00  0.00     0.299 C 
BRANCH  31  32
HETATM   32  N   UNL     1      37.367 -12.151  -1.285  1.00  0.00     0.094 N 
HETATM   33  C   UNL     1      36.426 -11.147  -1.829  1.00  0.00     0.298 C 
HETATM   34  C   UNL     1      37.094  -9.830  -2.262  1.00  0.00     0.198 C 
HETATM   35  O   UNL     1      38.135 -10.066  -3.217  1.00  0.00    -0.388 OA
HETATM   36  C   UNL     1      39.116 -10.969  -2.689  1.00  0.00     0.198 C 
HETATM   37  C   UNL     1      38.479 -12.301  -2.254  1.00  0.00     0.298 C 
ENDBRANCH  31  32
ENDBRANCH  30  31
ENDBRANCH  29  30
ENDBRANCH   1  29
TORSDOF 7
ENDMDL
