MODEL 1
REMARK VINA RESULT:      -9.0      0.000      0.000
REMARK  7 active torsions:
REMARK  status: ('A' for Active; 'I' for Inactive)
REMARK    1  A    between atoms: C_2  and  N_3 
REMARK    2  A    between atoms: C_2  and  C_10 
REMARK    3  A    between atoms: C_10  and  N_11 
REMARK       I    between atoms: N_11  and  C_12 
REMARK       I    between atoms: C_12  and  N_13 
REMARK    4  A    between atoms: N_13  and  C_14 
REMARK    5  A    between atoms: C_14  and  C_15 
REMARK    6  A    between atoms: C_18  and  N_19 
REMARK       I    between atoms: N_19  and  C_20 
REMARK    7  A    between atoms: C_20  and  C_21 
ROOT
HETATM    1  N   UNL     1      39.550 -11.770   9.269  1.00  0.00    -0.341 N 
HETATM    2  C   UNL     1      39.594 -11.720   7.899  1.00  0.00     0.316 C 
HETATM    3  N   UNL     1      39.293 -12.917   7.322  1.00  0.00    -0.339 N 
HETATM    4  O   UNL     1      39.925 -10.712   7.292  1.00  0.00    -0.248 OA
HETATM    5  H   UNL     1      38.997 -12.514   9.674  1.00  0.00     0.164 HD
HETATM    6  H   UNL     1      38.875 -13.656   7.864  1.00  0.00     0.164 HD
ENDROOT
BRANCH   3   7
HETATM    7  C   UNL     1      39.326 -13.095   5.884  1.00  0.00     0.162 C 
BRANCH   7   8
HETATM    8  C   UNL     1      40.091 -14.309   5.415  1.00  0.00    -0.040 A 
HETATM    9  C   UNL     1      40.348 -15.423   6.224  1.00  0.00     0.011 A 
HETATM   10  C   UNL     1      41.019 -16.545   5.718  1.00  0.00     0.030 A 
HETATM   11  C   UNL     1      41.434 -16.583   4.387  1.00  0.00     0.035 A 
HETATM   12  C   UNL     1      41.181 -15.477   3.573  1.00  0.00     0.030 A 
HETATM   13  C   UNL     1      40.517 -14.354   4.079  1.00  0.00     0.011 A 
BRANCH  11  14
HETATM   14  N   UNL     1      42.076 -17.684   3.793  1.00  0.00    -0.321 N 
HETATM   15  C   UNL     1      43.337 -18.191   4.051  1.00  0.00     0.279 C 
HETATM   16  O   UNL     1      44.151 -17.711   4.834  1.00  0.00    -0.265 OA
HETATM   17  H   UNL     1      41.552 -18.203   3.094  1.00  0.00     0.169 HD
BRANCH  15  18
HETATM   18  C   UNL     1      43.618 -19.392   3.283  1.00  0.00     0.142 A 
HETATM   19  O   UNL     1      44.547 -20.288   3.752  1.00  0.00    -0.317 OA
HETATM   20  C   UNL     1      44.625 -21.296   2.843  1.00  0.00     0.143 A 
HETATM   21  C   UNL     1      43.762 -21.071   1.798  1.00  0.00     0.027 A 
HETATM   22  C   UNL     1      43.112 -19.845   2.079  1.00  0.00     0.045 A 
ENDBRANCH  15  18
ENDBRANCH  11  14
ENDBRANCH   7   8
ENDBRANCH   3   7
BRANCH   1  23
HETATM   23  C   UNL     1      39.790 -10.569  10.053  1.00  0.00     0.162 C 
BRANCH  23  24
HETATM   24  C   UNL     1      40.753 -10.735  11.289  1.00  0.00     0.136 C 
HETATM   25  C   UNL     1      40.172 -11.627  12.393  1.00  0.00     0.048 C 
HETATM   26  C   UNL     1      41.053  -9.331  11.856  1.00  0.00     0.048 C 
BRANCH  24  27
HETATM   27  N   UNL     1      42.125 -11.356  10.785  1.00  0.00    -0.061 N 
HETATM   28  H   UNL     1      41.875 -12.277  10.399  1.00  0.00     0.280 HD
HETATM   29  C   UNL     1      42.795 -10.594   9.646  1.00  0.00     0.236 C 
HETATM   30  C   UNL     1      43.959 -11.406   9.093  1.00  0.00     0.028 C 
HETATM   31  C   UNL     1      44.977 -11.739  10.174  1.00  0.00     0.003 C 
HETATM   32  C   UNL     1      44.305 -12.430  11.350  1.00  0.00     0.028 C 
HETATM   33  C   UNL     1      43.138 -11.617  11.896  1.00  0.00     0.236 C 
ENDBRANCH  24  27
ENDBRANCH  23  24
ENDBRANCH   1  23
TORSDOF 7
ENDMDL
MODEL 2
REMARK VINA RESULT:      -8.7      1.302      1.994
REMARK  7 active torsions:
REMARK  status: ('A' for Active; 'I' for Inactive)
REMARK    1  A    between atoms: C_2  and  N_3 
REMARK    2  A    between atoms: C_2  and  C_10 
REMARK    3  A    between atoms: C_10  and  N_11 
REMARK       I    between atoms: N_11  and  C_12 
REMARK       I    between atoms: C_12  and  N_13 
REMARK    4  A    between atoms: N_13  and  C_14 
REMARK    5  A    between atoms: C_14  and  C_15 
REMARK    6  A    between atoms: C_18  and  N_19 
REMARK       I    between atoms: N_19  and  C_20 
REMARK    7  A    between atoms: C_20  and  C_21 
ROOT
HETATM    1  N   UNL     1      39.839 -11.726   8.674  1.00  0.00    -0.341 N 
HETATM    2  C   UNL     1      39.525 -11.918   7.353  1.00  0.00     0.316 C 
HETATM    3  N   UNL     1      39.727 -13.203   6.947  1.00  0.00    -0.339 N 
HETATM    4  O   UNL     1      39.161 -11.003   6.628  1.00  0.00    -0.248 OA
HETATM    5  H   UNL     1      39.839 -12.551   9.260  1.00  0.00     0.164 HD
HETATM    6  H   UNL     1      39.870 -13.936   7.624  1.00  0.00     0.164 HD
ENDROOT
BRANCH   3   7
HETATM    7  C   UNL     1      39.499 -13.610   5.575  1.00  0.00     0.162 C 
BRANCH   7   8
HETATM    8  C   UNL     1      40.273 -14.833   5.143  1.00  0.00    -0.040 A 
HETATM    9  C   UNL     1      40.651 -15.859   6.017  1.00  0.00     0.011 A 
HETATM   10  C   UNL     1      41.324 -16.997   5.550  1.00  0.00     0.030 A 
HETATM   11  C   UNL     1      41.618 -17.140   4.194  1.00  0.00     0.035 A 
HETATM   12  C   UNL     1      41.243 -16.122   3.314  1.00  0.00     0.030 A 
HETATM   13  C   UNL     1      40.578 -14.983   3.782  1.00  0.00     0.011 A 
BRANCH  11  14
HETATM   14  N   UNL     1      42.252 -18.266   3.639  1.00  0.00    -0.321 N 
HETATM   15  C   UNL     1      43.532 -18.736   3.870  1.00  0.00     0.279 C 
HETATM   16  O   UNL     1      44.372 -18.196   4.583  1.00  0.00    -0.265 OA
HETATM   17  H   UNL     1      41.707 -18.835   2.999  1.00  0.00     0.169 HD
BRANCH  15  18
HETATM   18  C   UNL     1      43.801 -19.978   3.165  1.00  0.00     0.142 A 
HETATM   19  O   UNL     1      44.501 -20.974   3.799  1.00  0.00    -0.317 OA
HETATM   20  C   UNL     1      44.623 -22.002   2.918  1.00  0.00     0.143 A 
HETATM   21  C   UNL     1      44.011 -21.691   1.727  1.00  0.00     0.027 A 
HETATM   22  C   UNL     1      43.480 -20.388   1.884  1.00  0.00     0.045 A 
ENDBRANCH  15  18
ENDBRANCH  11  14
ENDBRANCH   7   8
ENDBRANCH   3   7
BRANCH   1  23
HETATM   23  C   UNL     1      39.633 -10.427   9.293  1.00  0.00     0.162 C 
BRANCH  23  24
HETATM   24  C   UNL     1      40.939  -9.612   9.629  1.00  0.00     0.136 C 
HETATM   25  C   UNL     1      40.698  -8.101   9.737  1.00  0.00     0.048 C 
HETATM   26  C   UNL     1      41.981  -9.897   8.527  1.00  0.00     0.048 C 
BRANCH  24  27
HETATM   27  N   UNL     1      41.531 -10.144  11.004  1.00  0.00    -0.061 N 
HETATM   28  H   UNL     1      41.987 -11.036  10.770  1.00  0.00     0.280 HD
HETATM   29  C   UNL     1      42.619  -9.267  11.616  1.00  0.00     0.236 C 
HETATM   30  C   UNL     1      43.271  -9.992  12.787  1.00  0.00     0.028 C 
HETATM   31  C   UNL     1      42.251 -10.382  13.846  1.00  0.00     0.003 C 
HETATM   32  C   UNL     1      41.120 -11.190  13.231  1.00  0.00     0.028 C 
HETATM   33  C   UNL     1      40.475 -10.464  12.057  1.00  0.00     0.236 C 
ENDBRANCH  24  27
ENDBRANCH  23  24
ENDBRANCH   1  23
TORSDOF 7
ENDMDL
MODEL 3
REMARK VINA RESULT:      -8.5      4.105      9.955
REMARK  7 active torsions:
REMARK  status: ('A' for Active; 'I' for Inactive)
REMARK    1  A    between atoms: C_2  and  N_3 
REMARK    2  A    between atoms: C_2  and  C_10 
REMARK    3  A    between atoms: C_10  and  N_11 
REMARK       I    between atoms: N_11  and  C_12 
REMARK       I    between atoms: C_12  and  N_13 
REMARK    4  A    between atoms: N_13  and  C_14 
REMARK    5  A    between atoms: C_14  and  C_15 
REMARK    6  A    between atoms: C_18  and  N_19 
REMARK       I    between atoms: N_19  and  C_20 
REMARK    7  A    between atoms: C_20  and  C_21 
ROOT
HETATM    1  N   UNL     1      42.131 -16.105  -0.091  1.00  0.00    -0.341 N 
HETATM    2  C   UNL     1      41.951 -16.866   1.036  1.00  0.00     0.316 C 
HETATM    3  N   UNL     1      43.034 -16.844   1.862  1.00  0.00    -0.339 N 
HETATM    4  O   UNL     1      40.940 -17.528   1.223  1.00  0.00    -0.248 OA
HETATM    5  H   UNL     1      42.833 -15.378  -0.033  1.00  0.00     0.164 HD
HETATM    6  H   UNL     1      43.761 -16.160   1.733  1.00  0.00     0.164 HD
ENDROOT
BRANCH   3   7
HETATM    7  C   UNL     1      43.069 -17.618   3.087  1.00  0.00     0.162 C 
BRANCH   7   8
HETATM    8  C   UNL     1      43.347 -16.813   4.335  1.00  0.00    -0.040 A 
HETATM    9  C   UNL     1      43.881 -17.362   5.507  1.00  0.00     0.011 A 
HETATM   10  C   UNL     1      44.166 -16.556   6.618  1.00  0.00     0.030 A 
HETATM   11  C   UNL     1      43.940 -15.181   6.574  1.00  0.00     0.035 A 
HETATM   12  C   UNL     1      43.408 -14.625   5.408  1.00  0.00     0.030 A 
HETATM   13  C   UNL     1      43.116 -15.430   4.302  1.00  0.00     0.011 A 
BRANCH  11  14
HETATM   14  N   UNL     1      44.236 -14.299   7.629  1.00  0.00    -0.321 N 
HETATM   15  C   UNL     1      45.234 -13.344   7.701  1.00  0.00     0.279 C 
HETATM   16  O   UNL     1      46.089 -13.141   6.844  1.00  0.00    -0.265 OA
HETATM   17  H   UNL     1      43.635 -14.337   8.446  1.00  0.00     0.169 HD
BRANCH  15  18
HETATM   18  C   UNL     1      45.174 -12.573   8.930  1.00  0.00     0.142 A 
HETATM   19  O   UNL     1      44.483 -13.074  10.006  1.00  0.00    -0.317 OA
HETATM   20  C   UNL     1      44.573 -12.155  11.003  1.00  0.00     0.143 A 
HETATM   21  C   UNL     1      45.313 -11.071  10.595  1.00  0.00     0.027 A 
HETATM   22  C   UNL     1      45.702 -11.338   9.261  1.00  0.00     0.045 A 
ENDBRANCH  15  18
ENDBRANCH  11  14
ENDBRANCH   7   8
ENDBRANCH   3   7
BRANCH   1  23
HETATM   23  C   UNL     1      41.057 -15.968  -1.060  1.00  0.00     0.162 C 
BRANCH  23  24
HETATM   24  C   UNL     1      40.751 -14.501  -1.544  1.00  0.00     0.136 C 
HETATM   25  C   UNL     1      40.760 -14.352  -3.071  1.00  0.00     0.048 C 
HETATM   26  C   UNL     1      41.804 -13.559  -0.922  1.00  0.00     0.048 C 
BRANCH  24  27
HETATM   27  N   UNL     1      39.327 -14.069  -0.988  1.00  0.00    -0.061 N 
HETATM   28  H   UNL     1      38.653 -14.669  -1.483  1.00  0.00     0.280 HD
HETATM   29  C   UNL     1      39.110 -14.337   0.498  1.00  0.00     0.236 C 
HETATM   30  C   UNL     1      37.648 -14.110   0.859  1.00  0.00     0.028 C 
HETATM   31  C   UNL     1      37.193 -12.702   0.506  1.00  0.00     0.003 C 
HETATM   32  C   UNL     1      37.476 -12.396  -0.956  1.00  0.00     0.028 C 
HETATM   33  C   UNL     1      38.939 -12.629  -1.313  1.00  0.00     0.236 C 
ENDBRANCH  24  27
ENDBRANCH  23  24
ENDBRANCH   1  23
TORSDOF 7
ENDMDL
MODEL 4
REMARK VINA RESULT:      -7.9      4.452      8.007
REMARK  7 active torsions:
REMARK  status: ('A' for Active; 'I' for Inactive)
REMARK    1  A    between atoms: C_2  and  N_3 
REMARK    2  A    between atoms: C_2  and  C_10 
REMARK    3  A    between atoms: C_10  and  N_11 
REMARK       I    between atoms: N_11  and  C_12 
REMARK       I    between atoms: C_12  and  N_13 
REMARK    4  A    between atoms: N_13  and  C_14 
REMARK    5  A    between atoms: C_14  and  C_15 
REMARK    6  A    between atoms: C_18  and  N_19 
REMARK       I    between atoms: N_19  and  C_20 
REMARK    7  A    between atoms: C_20  and  C_21 
ROOT
HETATM    1  N   UNL     1      42.880 -16.483   6.748  1.00  0.00    -0.341 N 
HETATM    2  C   UNL     1      41.885 -15.789   6.110  1.00  0.00     0.316 C 
HETATM    3  N   UNL     1      42.180 -14.467   5.960  1.00  0.00    -0.339 N 
HETATM    4  O   UNL     1      40.833 -16.315   5.774  1.00  0.00    -0.248 OA
HETATM    5  H   UNL     1      43.803 -16.070   6.722  1.00  0.00     0.164 HD
HETATM    6  H   UNL     1      43.118 -14.134   6.109  1.00  0.00     0.164 HD
ENDROOT
BRANCH   3   7
HETATM    7  C   UNL     1      41.243 -13.545   5.351  1.00  0.00     0.162 C 
BRANCH   7   8
HETATM    8  C   UNL     1      40.946 -13.816   3.895  1.00  0.00    -0.040 A 
HETATM    9  C   UNL     1      41.938 -13.996   2.924  1.00  0.00     0.011 A 
HETATM   10  C   UNL     1      41.603 -14.296   1.596  1.00  0.00     0.030 A 
HETATM   11  C   UNL     1      40.269 -14.440   1.215  1.00  0.00     0.035 A 
HETATM   12  C   UNL     1      39.273 -14.264   2.179  1.00  0.00     0.030 A 
HETATM   13  C   UNL     1      39.607 -13.957   3.503  1.00  0.00     0.011 A 
BRANCH  11  14
HETATM   14  N   UNL     1      39.852 -14.780  -0.084  1.00  0.00    -0.321 N 
HETATM   15  C   UNL     1      39.955 -14.036  -1.246  1.00  0.00     0.279 C 
HETATM   16  O   UNL     1      40.395 -12.893  -1.323  1.00  0.00    -0.265 OA
HETATM   17  H   UNL     1      39.438 -15.699  -0.211  1.00  0.00     0.169 HD
BRANCH  15  18
HETATM   18  C   UNL     1      39.476 -14.761  -2.410  1.00  0.00     0.142 A 
HETATM   19  O   UNL     1      38.178 -14.590  -2.823  1.00  0.00    -0.317 OA
HETATM   20  C   UNL     1      37.994 -15.387  -3.908  1.00  0.00     0.143 A 
HETATM   21  C   UNL     1      39.150 -16.067  -4.209  1.00  0.00     0.027 A 
HETATM   22  C   UNL     1      40.106 -15.665  -3.246  1.00  0.00     0.045 A 
ENDBRANCH  15  18
ENDBRANCH  11  14
ENDBRANCH   7   8
ENDBRANCH   3   7
BRANCH   1  23
HETATM   23  C   UNL     1      42.761 -17.919   6.945  1.00  0.00     0.162 C 
BRANCH  23  24
HETATM   24  C   UNL     1      43.851 -18.804   6.232  1.00  0.00     0.136 C 
HETATM   25  C   UNL     1      43.911 -20.240   6.770  1.00  0.00     0.048 C 
HETATM   26  C   UNL     1      45.222 -18.120   6.416  1.00  0.00     0.048 C 
BRANCH  24  27
HETATM   27  N   UNL     1      43.535 -18.844   4.675  1.00  0.00    -0.061 N 
HETATM   28  H   UNL     1      42.530 -19.060   4.613  1.00  0.00     0.280 HD
HETATM   29  C   UNL     1      43.723 -17.517   3.948  1.00  0.00     0.236 C 
HETATM   30  C   UNL     1      43.166 -17.617   2.534  1.00  0.00     0.028 C 
HETATM   31  C   UNL     1      43.820 -18.745   1.750  1.00  0.00     0.003 C 
HETATM   32  C   UNL     1      43.706 -20.060   2.504  1.00  0.00     0.028 C 
HETATM   33  C   UNL     1      44.260 -19.954   3.919  1.00  0.00     0.236 C 
ENDBRANCH  24  27
ENDBRANCH  23  24
ENDBRANCH   1  23
TORSDOF 7
ENDMDL
MODEL 5
REMARK VINA RESULT:      -7.7      4.466      7.612
REMARK  7 active torsions:
REMARK  status: ('A' for Active; 'I' for Inactive)
REMARK    1  A    between atoms: C_2  and  N_3 
REMARK    2  A    between atoms: C_2  and  C_10 
REMARK    3  A    between atoms: C_10  and  N_11 
REMARK       I    between atoms: N_11  and  C_12 
REMARK       I    between atoms: C_12  and  N_13 
REMARK    4  A    between atoms: N_13  and  C_14 
REMARK    5  A    between atoms: C_14  and  C_15 
REMARK    6  A    between atoms: C_18  and  N_19 
REMARK       I    between atoms: N_19  and  C_20 
REMARK    7  A    between atoms: C_20  and  C_21 
ROOT
HETATM    1  N   UNL     1      43.163 -14.843   6.717  1.00  0.00    -0.341 N 
HETATM    2  C   UNL     1      43.016 -13.948   5.687  1.00  0.00     0.316 C 
HETATM    3  N   UNL     1      41.949 -13.119   5.862  1.00  0.00    -0.339 N 
HETATM    4  O   UNL     1      43.745 -13.957   4.705  1.00  0.00    -0.248 OA
HETATM    5  H   UNL     1      42.734 -14.588   7.597  1.00  0.00     0.164 HD
HETATM    6  H   UNL     1      41.493 -13.055   6.757  1.00  0.00     0.164 HD
ENDROOT
BRANCH   3   7
HETATM    7  C   UNL     1      41.588 -12.129   4.868  1.00  0.00     0.162 C 
BRANCH   7   8
HETATM    8  C   UNL     1      41.033 -12.696   3.583  1.00  0.00    -0.040 A 
HETATM    9  C   UNL     1      40.139 -13.772   3.536  1.00  0.00     0.011 A 
HETATM   10  C   UNL     1      39.616 -14.224   2.316  1.00  0.00     0.030 A 
HETATM   11  C   UNL     1      39.963 -13.598   1.119  1.00  0.00     0.035 A 
HETATM   12  C   UNL     1      40.854 -12.523   1.158  1.00  0.00     0.030 A 
HETATM   13  C   UNL     1      41.382 -12.077   2.374  1.00  0.00     0.011 A 
BRANCH  11  14
HETATM   14  N   UNL     1      39.452 -13.964  -0.139  1.00  0.00    -0.321 N 
HETATM   15  C   UNL     1      40.145 -14.336  -1.277  1.00  0.00     0.279 C 
HETATM   16  O   UNL     1      41.367 -14.358  -1.392  1.00  0.00    -0.265 OA
HETATM   17  H   UNL     1      38.442 -13.984  -0.240  1.00  0.00     0.169 HD
BRANCH  15  18
HETATM   18  C   UNL     1      39.260 -14.716  -2.364  1.00  0.00     0.142 A 
HETATM   19  O   UNL     1      39.689 -15.632  -3.293  1.00  0.00    -0.317 OA
HETATM   20  C   UNL     1      38.684 -15.789  -4.195  1.00  0.00     0.143 A 
HETATM   21  C   UNL     1      37.611 -14.997  -3.864  1.00  0.00     0.027 A 
HETATM   22  C   UNL     1      37.979 -14.305  -2.685  1.00  0.00     0.045 A 
ENDBRANCH  15  18
ENDBRANCH  11  14
ENDBRANCH   7   8
ENDBRANCH   3   7
BRANCH   1  23
HETATM   23  C   UNL     1      44.282 -15.770   6.726  1.00  0.00     0.162 C 
BRANCH  23  24
HETATM   24  C   UNL     1      43.939 -17.265   6.365  1.00  0.00     0.136 C 
HETATM   25  C   UNL     1      42.819 -17.855   7.231  1.00  0.00     0.048 C 
HETATM   26  C   UNL     1      45.223 -18.106   6.529  1.00  0.00     0.048 C 
BRANCH  24  27
HETATM   27  N   UNL     1      43.508 -17.334   4.838  1.00  0.00    -0.061 N 
HETATM   28  H   UNL     1      43.851 -16.457   4.424  1.00  0.00     0.280 HD
HETATM   29  C   UNL     1      44.160 -18.456   4.037  1.00  0.00     0.236 C 
HETATM   30  C   UNL     1      43.862 -18.276   2.554  1.00  0.00     0.028 C 
HETATM   31  C   UNL     1      42.366 -18.235   2.281  1.00  0.00     0.003 C 
HETATM   32  C   UNL     1      41.693 -17.171   3.134  1.00  0.00     0.028 C 
HETATM   33  C   UNL     1      41.998 -17.353   4.615  1.00  0.00     0.236 C 
ENDBRANCH  24  27
ENDBRANCH  23  24
ENDBRANCH   1  23
TORSDOF 7
ENDMDL
MODEL 6
REMARK VINA RESULT:      -7.6      7.831     11.688
REMARK  7 active torsions:
REMARK  status: ('A' for Active; 'I' for Inactive)
REMARK    1  A    between atoms: C_2  and  N_3 
REMARK    2  A    between atoms: C_2  and  C_10 
REMARK    3  A    between atoms: C_10  and  N_11 
REMARK       I    between atoms: N_11  and  C_12 
REMARK       I    between atoms: C_12  and  N_13 
REMARK    4  A    between atoms: N_13  and  C_14 
REMARK    5  A    between atoms: C_14  and  C_15 
REMARK    6  A    between atoms: C_18  and  N_19 
REMARK       I    between atoms: N_19  and  C_20 
REMARK    7  A    between atoms: C_20  and  C_21 
ROOT
HETATM    1  N   UNL     1      41.712 -17.080   0.755  1.00  0.00    -0.341 N 
HETATM    2  C   UNL     1      40.764 -16.111   0.965  1.00  0.00     0.316 C 
HETATM    3  N   UNL     1      40.578 -15.315  -0.124  1.00  0.00    -0.339 N 
HETATM    4  O   UNL     1      40.205 -15.967   2.044  1.00  0.00    -0.248 OA
HETATM    5  H   UNL     1      41.900 -17.322  -0.209  1.00  0.00     0.164 HD
HETATM    6  H   UNL     1      40.945 -15.584  -1.022  1.00  0.00     0.164 HD
ENDROOT
BRANCH   3   7
HETATM    7  C   UNL     1      39.652 -14.200  -0.099  1.00  0.00     0.162 C 
BRANCH   7   8
HETATM    8  C   UNL     1      38.943 -13.938  -1.407  1.00  0.00    -0.040 A 
HETATM    9  C   UNL     1      39.173 -14.677  -2.573  1.00  0.00     0.011 A 
HETATM   10  C   UNL     1      38.447 -14.423  -3.746  1.00  0.00     0.030 A 
HETATM   11  C   UNL     1      37.465 -13.434  -3.771  1.00  0.00     0.035 A 
HETATM   12  C   UNL     1      37.228 -12.692  -2.611  1.00  0.00     0.030 A 
HETATM   13  C   UNL     1      37.957 -12.941  -1.443  1.00  0.00     0.011 A 
BRANCH  11  14
HETATM   14  N   UNL     1      36.666 -13.144  -4.892  1.00  0.00    -0.321 N 
HETATM   15  C   UNL     1      35.520 -13.786  -5.324  1.00  0.00     0.279 C 
HETATM   16  O   UNL     1      35.024 -14.783  -4.809  1.00  0.00    -0.265 OA
HETATM   17  H   UNL     1      36.939 -12.348  -5.460  1.00  0.00     0.169 HD
BRANCH  15  18
HETATM   18  C   UNL     1      34.932 -13.144  -6.488  1.00  0.00     0.142 A 
HETATM   19  O   UNL     1      33.686 -12.576  -6.385  1.00  0.00    -0.317 OA
HETATM   20  C   UNL     1      33.375 -12.069  -7.607  1.00  0.00     0.143 A 
HETATM   21  C   UNL     1      34.398 -12.294  -8.497  1.00  0.00     0.027 A 
HETATM   22  C   UNL     1      35.402 -12.985  -7.778  1.00  0.00     0.045 A 
ENDBRANCH  15  18
ENDBRANCH  11  14
ENDBRANCH   7   8
ENDBRANCH   3   7
BRANCH   1  23
HETATM   23  C   UNL     1      42.003 -18.056   1.792  1.00  0.00     0.162 C 
BRANCH  23  24
HETATM   24  C   UNL     1      43.417 -17.932   2.476  1.00  0.00     0.136 C 
HETATM   25  C   UNL     1      43.367 -17.258   3.853  1.00  0.00     0.048 C 
HETATM   26  C   UNL     1      44.337 -17.128   1.533  1.00  0.00     0.048 C 
BRANCH  24  27
HETATM   27  N   UNL     1      44.036 -19.387   2.630  1.00  0.00    -0.061 N 
HETATM   28  H   UNL     1      44.974 -19.324   2.212  1.00  0.00     0.280 HD
HETATM   29  C   UNL     1      44.250 -19.844   4.069  1.00  0.00     0.236 C 
HETATM   30  C   UNL     1      45.060 -21.134   4.089  1.00  0.00     0.028 C 
HETATM   31  C   UNL     1      44.387 -22.234   3.282  1.00  0.00     0.003 C 
HETATM   32  C   UNL     1      44.097 -21.762   1.866  1.00  0.00     0.028 C 
HETATM   33  C   UNL     1      43.291 -20.469   1.852  1.00  0.00     0.236 C 
ENDBRANCH  24  27
ENDBRANCH  23  24
ENDBRANCH   1  23
TORSDOF 7
ENDMDL
MODEL 7
REMARK VINA RESULT:      -7.6      2.611     10.328
REMARK  7 active torsions:
REMARK  status: ('A' for Active; 'I' for Inactive)
REMARK    1  A    between atoms: C_2  and  N_3 
REMARK    2  A    between atoms: C_2  and  C_10 
REMARK    3  A    between atoms: C_10  and  N_11 
REMARK       I    between atoms: N_11  and  C_12 
REMARK       I    between atoms: C_12  and  N_13 
REMARK    4  A    between atoms: N_13  and  C_14 
REMARK    5  A    between atoms: C_14  and  C_15 
REMARK    6  A    between atoms: C_18  and  N_19 
REMARK       I    between atoms: N_19  and  C_20 
REMARK    7  A    between atoms: C_20  and  C_21 
ROOT
HETATM    1  N   UNL     1      42.556 -14.404   4.547  1.00  0.00    -0.341 N 
HETATM    2  C   UNL     1      41.375 -13.767   4.827  1.00  0.00     0.316 C 
HETATM    3  N   UNL     1      41.560 -12.561   5.436  1.00  0.00    -0.339 N 
HETATM    4  O   UNL     1      40.287 -14.276   4.597  1.00  0.00    -0.248 OA
HETATM    5  H   UNL     1      43.379 -13.818   4.487  1.00  0.00     0.164 HD
HETATM    6  H   UNL     1      42.470 -12.131   5.449  1.00  0.00     0.164 HD
ENDROOT
BRANCH   3   7
HETATM    7  C   UNL     1      40.440 -11.745   5.858  1.00  0.00     0.162 C 
BRANCH   7   8
HETATM    8  C   UNL     1      40.517 -11.258   7.286  1.00  0.00    -0.040 A 
HETATM    9  C   UNL     1      39.441 -11.311   8.180  1.00  0.00     0.011 A 
HETATM   10  C   UNL     1      39.585 -10.891   9.510  1.00  0.00     0.030 A 
HETATM   11  C   UNL     1      40.813 -10.427   9.979  1.00  0.00     0.035 A 
HETATM   12  C   UNL     1      41.893 -10.372   9.093  1.00  0.00     0.030 A 
HETATM   13  C   UNL     1      41.747 -10.784   7.764  1.00  0.00     0.011 A 
BRANCH  11  14
HETATM   14  N   UNL     1      41.051 -10.027  11.306  1.00  0.00    -0.321 N 
HETATM   15  C   UNL     1      40.872 -10.751  12.471  1.00  0.00     0.279 C 
HETATM   16  O   UNL     1      40.409 -11.885  12.541  1.00  0.00    -0.265 OA
HETATM   17  H   UNL     1      41.425  -9.093  11.447  1.00  0.00     0.169 HD
BRANCH  15  18
HETATM   18  C   UNL     1      41.302 -10.018  13.649  1.00  0.00     0.142 A 
HETATM   19  O   UNL     1      40.655  -8.856  13.992  1.00  0.00    -0.317 OA
HETATM   20  C   UNL     1      41.261  -8.374  15.108  1.00  0.00     0.143 A 
HETATM   21  C   UNL     1      42.286  -9.203  15.497  1.00  0.00     0.027 A 
HETATM   22  C   UNL     1      42.314 -10.263  14.559  1.00  0.00     0.045 A 
ENDBRANCH  15  18
ENDBRANCH  11  14
ENDBRANCH   7   8
ENDBRANCH   3   7
BRANCH   1  23
HETATM   23  C   UNL     1      42.552 -15.678   3.848  1.00  0.00     0.162 C 
BRANCH  23  24
HETATM   24  C   UNL     1      42.753 -16.956   4.748  1.00  0.00     0.136 C 
HETATM   25  C   UNL     1      41.438 -17.523   5.297  1.00  0.00     0.048 C 
HETATM   26  C   UNL     1      43.688 -16.579   5.917  1.00  0.00     0.048 C 
BRANCH  24  27
HETATM   27  N   UNL     1      43.482 -18.075   3.887  1.00  0.00    -0.061 N 
HETATM   28  H   UNL     1      44.362 -17.641   3.577  1.00  0.00     0.280 HD
HETATM   29  C   UNL     1      43.884 -19.323   4.665  1.00  0.00     0.236 C 
HETATM   30  C   UNL     1      44.777 -20.207   3.803  1.00  0.00     0.028 C 
HETATM   31  C   UNL     1      44.095 -20.595   2.500  1.00  0.00     0.003 C 
HETATM   32  C   UNL     1      43.620 -19.360   1.753  1.00  0.00     0.028 C 
HETATM   33  C   UNL     1      42.731 -18.477   2.621  1.00  0.00     0.236 C 
ENDBRANCH  24  27
ENDBRANCH  23  24
ENDBRANCH   1  23
TORSDOF 7
ENDMDL
MODEL 8
REMARK VINA RESULT:      -7.6      4.588      8.040
REMARK  7 active torsions:
REMARK  status: ('A' for Active; 'I' for Inactive)
REMARK    1  A    between atoms: C_2  and  N_3 
REMARK    2  A    between atoms: C_2  and  C_10 
REMARK    3  A    between atoms: C_10  and  N_11 
REMARK       I    between atoms: N_11  and  C_12 
REMARK       I    between atoms: C_12  and  N_13 
REMARK    4  A    between atoms: N_13  and  C_14 
REMARK    5  A    between atoms: C_14  and  C_15 
REMARK    6  A    between atoms: C_18  and  N_19 
REMARK       I    between atoms: N_19  and  C_20 
REMARK    7  A    between atoms: C_20  and  C_21 
ROOT
HETATM    1  N   UNL     1      41.438 -10.805   1.395  1.00  0.00    -0.341 N 
HETATM    2  C   UNL     1      41.050 -11.693   2.365  1.00  0.00     0.316 C 
HETATM    3  N   UNL     1      41.868 -11.670   3.454  1.00  0.00    -0.339 N 
HETATM    4  O   UNL     1      40.103 -12.452   2.215  1.00  0.00    -0.248 OA
HETATM    5  H   UNL     1      42.017 -10.033   1.699  1.00  0.00     0.164 HD
HETATM    6  H   UNL     1      42.525 -10.918   3.584  1.00  0.00     0.164 HD
ENDROOT
BRANCH   3   7
HETATM    7  C   UNL     1      41.662 -12.563   4.576  1.00  0.00     0.162 C 
BRANCH   7   8
HETATM    8  C   UNL     1      41.991 -14.011   4.299  1.00  0.00    -0.040 A 
HETATM    9  C   UNL     1      41.162 -15.077   4.667  1.00  0.00     0.011 A 
HETATM   10  C   UNL     1      41.495 -16.399   4.338  1.00  0.00     0.030 A 
HETATM   11  C   UNL     1      42.655 -16.681   3.618  1.00  0.00     0.035 A 
HETATM   12  C   UNL     1      43.488 -15.622   3.246  1.00  0.00     0.030 A 
HETATM   13  C   UNL     1      43.160 -14.304   3.581  1.00  0.00     0.011 A 
BRANCH  11  14
HETATM   14  N   UNL     1      43.039 -17.971   3.214  1.00  0.00    -0.321 N 
HETATM   15  C   UNL     1      43.938 -18.833   3.815  1.00  0.00     0.279 C 
HETATM   16  O   UNL     1      44.613 -18.579   4.809  1.00  0.00    -0.265 OA
HETATM   17  H   UNL     1      42.591 -18.348   2.384  1.00  0.00     0.169 HD
BRANCH  15  18
HETATM   18  C   UNL     1      44.012 -20.116   3.139  1.00  0.00     0.142 A 
HETATM   19  O   UNL     1      44.627 -21.173   3.764  1.00  0.00    -0.317 OA
HETATM   20  C   UNL     1      44.570 -22.231   2.913  1.00  0.00     0.143 A 
HETATM   21  C   UNL     1      43.927 -21.881   1.751  1.00  0.00     0.027 A 
HETATM   22  C   UNL     1      43.566 -20.520   1.893  1.00  0.00     0.045 A 
ENDBRANCH  15  18
ENDBRANCH  11  14
ENDBRANCH   7   8
ENDBRANCH   3   7
BRANCH   1  23
HETATM   23  C   UNL     1      40.650 -10.655   0.183  1.00  0.00     0.162 C 
BRANCH  23  24
HETATM   24  C   UNL     1      41.390 -10.993  -1.166  1.00  0.00     0.136 C 
HETATM   25  C   UNL     1      42.918 -10.921  -1.052  1.00  0.00     0.048 C 
HETATM   26  C   UNL     1      40.900 -10.003  -2.245  1.00  0.00     0.048 C 
BRANCH  24  27
HETATM   27  N   UNL     1      40.971 -12.455  -1.624  1.00  0.00    -0.061 N 
HETATM   28  H   UNL     1      39.977 -12.539  -1.370  1.00  0.00     0.280 HD
HETATM   29  C   UNL     1      41.039 -12.701  -3.128  1.00  0.00     0.236 C 
HETATM   30  C   UNL     1      40.392 -14.038  -3.465  1.00  0.00     0.028 C 
HETATM   31  C   UNL     1      41.048 -15.186  -2.713  1.00  0.00     0.003 C 
HETATM   32  C   UNL     1      41.056 -14.915  -1.218  1.00  0.00     0.028 C 
HETATM   33  C   UNL     1      41.699 -13.574  -0.886  1.00  0.00     0.236 C 
ENDBRANCH  24  27
ENDBRANCH  23  24
ENDBRANCH   1  23
TORSDOF 7
ENDMDL
MODEL 9
REMARK VINA RESULT:      -7.1      4.673      8.345
REMARK  7 active torsions:
REMARK  status: ('A' for Active; 'I' for Inactive)
REMARK    1  A    between atoms: C_2  and  N_3 
REMARK    2  A    between atoms: C_2  and  C_10 
REMARK    3  A    between atoms: C_10  and  N_11 
REMARK       I    between atoms: N_11  and  C_12 
REMARK       I    between atoms: C_12  and  N_13 
REMARK    4  A    between atoms: N_13  and  C_14 
REMARK    5  A    between atoms: C_14  and  C_15 
REMARK    6  A    between atoms: C_18  and  N_19 
REMARK       I    between atoms: N_19  and  C_20 
REMARK    7  A    between atoms: C_20  and  C_21 
ROOT
HETATM    1  N   UNL     1      42.543 -17.163   6.903  1.00  0.00    -0.341 N 
HETATM    2  C   UNL     1      41.489 -16.672   6.177  1.00  0.00     0.316 C 
HETATM    3  N   UNL     1      41.353 -15.322   6.297  1.00  0.00    -0.339 N 
HETATM    4  O   UNL     1      40.735 -17.399   5.545  1.00  0.00    -0.248 OA
HETATM    5  H   UNL     1      43.271 -16.502   7.141  1.00  0.00     0.164 HD
HETATM    6  H   UNL     1      42.093 -14.767   6.695  1.00  0.00     0.164 HD
ENDROOT
BRANCH   3   7
HETATM    7  C   UNL     1      40.274 -14.607   5.645  1.00  0.00     0.162 C 
BRANCH   7   8
HETATM    8  C   UNL     1      40.489 -14.343   4.174  1.00  0.00    -0.040 A 
HETATM    9  C   UNL     1      39.776 -14.992   3.159  1.00  0.00     0.011 A 
HETATM   10  C   UNL     1      39.983 -14.668   1.810  1.00  0.00     0.030 A 
HETATM   11  C   UNL     1      40.894 -13.677   1.449  1.00  0.00     0.035 A 
HETATM   12  C   UNL     1      41.609 -13.023   2.457  1.00  0.00     0.030 A 
HETATM   13  C   UNL     1      41.408 -13.351   3.802  1.00  0.00     0.011 A 
BRANCH  11  14
HETATM   14  N   UNL     1      41.129 -13.265   0.126  1.00  0.00    -0.321 N 
HETATM   15  C   UNL     1      40.263 -12.634  -0.749  1.00  0.00     0.279 C 
HETATM   16  O   UNL     1      39.087 -12.369  -0.520  1.00  0.00    -0.265 OA
HETATM   17  H   UNL     1      42.060 -13.424  -0.250  1.00  0.00     0.169 HD
BRANCH  15  18
HETATM   18  C   UNL     1      40.899 -12.300  -2.012  1.00  0.00     0.142 A 
HETATM   19  O   UNL     1      42.269 -12.326  -2.103  1.00  0.00    -0.317 OA
HETATM   20  C   UNL     1      42.592 -11.961  -3.372  1.00  0.00     0.143 A 
HETATM   21  C   UNL     1      41.458 -11.703  -4.104  1.00  0.00     0.027 A 
HETATM   22  C   UNL     1      40.366 -11.921  -3.231  1.00  0.00     0.045 A 
ENDBRANCH  15  18
ENDBRANCH  11  14
ENDBRANCH   7   8
ENDBRANCH   3   7
BRANCH   1  23
HETATM   23  C   UNL     1      42.872 -18.578   6.851  1.00  0.00     0.162 C 
BRANCH  23  24
HETATM   24  C   UNL     1      44.007 -18.983   5.836  1.00  0.00     0.136 C 
HETATM   25  C   UNL     1      44.374 -20.471   5.901  1.00  0.00     0.048 C 
HETATM   26  C   UNL     1      45.253 -18.124   6.141  1.00  0.00     0.048 C 
BRANCH  24  27
HETATM   27  N   UNL     1      43.524 -18.630   4.364  1.00  0.00    -0.061 N 
HETATM   28  H   UNL     1      42.496 -18.613   4.418  1.00  0.00     0.280 HD
HETATM   29  C   UNL     1      43.938 -17.248   3.868  1.00  0.00     0.236 C 
HETATM   30  C   UNL     1      43.223 -16.932   2.560  1.00  0.00     0.028 C 
HETATM   31  C   UNL     1      43.506 -17.981   1.495  1.00  0.00     0.003 C 
HETATM   32  C   UNL     1      43.170 -19.372   2.009  1.00  0.00     0.028 C 
HETATM   33  C   UNL     1      43.883 -19.682   3.319  1.00  0.00     0.236 C 
ENDBRANCH  24  27
ENDBRANCH  23  24
ENDBRANCH   1  23
TORSDOF 7
ENDMDL
MODEL 10
REMARK VINA RESULT:      -7.1      7.892     11.121
REMARK  7 active torsions:
REMARK  status: ('A' for Active; 'I' for Inactive)
REMARK    1  A    between atoms: C_2  and  N_3 
REMARK    2  A    between atoms: C_2  and  C_10 
REMARK    3  A    between atoms: C_10  and  N_11 
REMARK       I    between atoms: N_11  and  C_12 
REMARK       I    between atoms: C_12  and  N_13 
REMARK    4  A    between atoms: N_13  and  C_14 
REMARK    5  A    between atoms: C_14  and  C_15 
REMARK    6  A    between atoms: C_18  and  N_19 
REMARK       I    between atoms: N_19  and  C_20 
REMARK    7  A    between atoms: C_20  and  C_21 
ROOT
HETATM    1  N   UNL     1      41.589 -16.965   0.761  1.00  0.00    -0.341 N 
HETATM    2  C   UNL     1      40.576 -16.057   0.937  1.00  0.00     0.316 C 
HETATM    3  N   UNL     1      40.509 -15.145  -0.073  1.00  0.00    -0.339 N 
HETATM    4  O   UNL     1      39.864 -16.057   1.931  1.00  0.00    -0.248 OA
HETATM    5  H   UNL     1      41.923 -17.087  -0.186  1.00  0.00     0.164 HD
HETATM    6  H   UNL     1      41.011 -15.296  -0.932  1.00  0.00     0.164 HD
ENDROOT
BRANCH   3   7
HETATM    7  C   UNL     1      39.537 -14.070  -0.060  1.00  0.00     0.162 C 
BRANCH   7   8
HETATM    8  C   UNL     1      38.832 -13.840  -1.375  1.00  0.00    -0.040 A 
HETATM    9  C   UNL     1      38.971 -14.681  -2.486  1.00  0.00     0.011 A 
HETATM   10  C   UNL     1      38.251 -14.447  -3.666  1.00  0.00     0.030 A 
HETATM   11  C   UNL     1      37.363 -13.375  -3.754  1.00  0.00     0.035 A 
HETATM   12  C   UNL     1      37.217 -12.531  -2.650  1.00  0.00     0.030 A 
HETATM   13  C   UNL     1      37.942 -12.761  -1.475  1.00  0.00     0.011 A 
BRANCH  11  14
HETATM   14  N   UNL     1      36.574 -13.095  -4.884  1.00  0.00    -0.321 N 
HETATM   15  C   UNL     1      35.444 -13.754  -5.332  1.00  0.00     0.279 C 
HETATM   16  O   UNL     1      34.958 -14.761  -4.826  1.00  0.00    -0.265 OA
HETATM   17  H   UNL     1      36.841 -12.293  -5.447  1.00  0.00     0.169 HD
BRANCH  15  18
HETATM   18  C   UNL     1      34.861 -13.119  -6.502  1.00  0.00     0.142 A 
HETATM   19  O   UNL     1      33.614 -12.550  -6.407  1.00  0.00    -0.317 OA
HETATM   20  C   UNL     1      33.308 -12.050  -7.633  1.00  0.00     0.143 A 
HETATM   21  C   UNL     1      34.334 -12.280  -8.518  1.00  0.00     0.027 A 
HETATM   22  C   UNL     1      35.335 -12.968  -7.792  1.00  0.00     0.045 A 
ENDBRANCH  15  18
ENDBRANCH  11  14
ENDBRANCH   7   8
ENDBRANCH   3   7
BRANCH   1  23
HETATM   23  C   UNL     1      41.776 -18.046   1.715  1.00  0.00     0.162 C 
BRANCH  23  24
HETATM   24  C   UNL     1      43.240 -18.230   2.268  1.00  0.00     0.136 C 
HETATM   25  C   UNL     1      44.280 -17.388   1.519  1.00  0.00     0.048 C 
HETATM   26  C   UNL     1      43.608 -19.725   2.166  1.00  0.00     0.048 C 
BRANCH  24  27
HETATM   27  N   UNL     1      43.256 -17.831   3.805  1.00  0.00    -0.061 N 
HETATM   28  H   UNL     1      42.375 -18.201   4.186  1.00  0.00     0.280 HD
HETATM   29  C   UNL     1      44.369 -18.476   4.624  1.00  0.00     0.236 C 
HETATM   30  C   UNL     1      44.141 -18.215   6.107  1.00  0.00     0.028 C 
HETATM   31  C   UNL     1      44.059 -16.726   6.411  1.00  0.00     0.003 C 
HETATM   32  C   UNL     1      43.005 -16.058   5.543  1.00  0.00     0.028 C 
HETATM   33  C   UNL     1      43.235 -16.326   4.061  1.00  0.00     0.236 C 
ENDBRANCH  24  27
ENDBRANCH  23  24
ENDBRANCH   1  23
TORSDOF 7
ENDMDL
