MODEL 1
REMARK VINA RESULT:      -8.8      0.000      0.000
REMARK  2 active torsions:
REMARK  status: ('A' for Active; 'I' for Inactive)
REMARK    1  A    between atoms: N_3  and  C_4 
REMARK    2  A    between atoms: C_12  and  C_13 
REMARK       I    between atoms: C_13  and  N_14 
ROOT
HETATM    1  C   UNL     1      43.098 -15.874   4.561  1.00  0.00     0.262 C 
HETATM    2  N   UNL     1      43.796 -17.048   4.905  1.00  0.00    -0.311 N 
HETATM    3  C   UNL     1      43.970 -18.189   4.074  1.00  0.00     0.064 A 
HETATM    4  C   UNL     1      44.049 -19.501   4.582  1.00  0.00     0.061 A 
HETATM    5  C   UNL     1      44.216 -20.568   3.675  1.00  0.00     0.032 A 
HETATM    6  C   UNL     1      44.333 -20.353   2.303  1.00  0.00     0.002 A 
HETATM    7  C   UNL     1      44.295 -19.061   1.807  1.00  0.00     0.002 A 
HETATM    8  C   UNL     1      44.122 -17.991   2.685  1.00  0.00     0.032 A 
HETATM    9  N   UNL     1      43.942 -19.907   5.928  1.00  0.00    -0.325 N 
HETATM   10  C   UNL     1      43.848 -19.267   7.118  1.00  0.00     0.227 C 
HETATM   11  O   UNL     1      43.778 -19.977   8.129  1.00  0.00    -0.273 OA
HETATM   12  C   UNL     1      43.776 -17.771   7.260  1.00  0.00     0.092 C 
HETATM   13  C   UNL     1      42.325 -17.326   7.427  1.00  0.00     0.021 C 
HETATM   14  C   UNL     1      44.534 -17.054   6.162  1.00  0.00     0.146 C 
HETATM   15  O   UNL     1      43.337 -14.803   5.121  1.00  0.00    -0.267 OA
HETATM   16  H   UNL     1      43.972 -20.909   6.091  1.00  0.00     0.169 HD
ENDROOT
BRANCH   1  17
HETATM   17  C   UNL     1      41.987 -15.951   3.607  1.00  0.00     0.075 C 
HETATM   18  C   UNL     1      41.691 -15.018   2.613  1.00  0.00     0.050 C 
HETATM   19  C   UNL     1      42.492 -13.833   2.199  1.00  0.00     0.071 C 
HETATM   20  N   UNL     1      40.504 -15.432   2.016  1.00  0.00    -0.238 N 
HETATM   21  N   UNL     1      40.131 -16.654   2.479  1.00  0.00    -0.179 NA
HETATM   22  C   UNL     1      40.959 -16.903   3.488  1.00  0.00     0.158 C 
BRANCH  20  23
HETATM   23  C   UNL     1      39.674 -14.788   1.052  1.00  0.00     0.061 A 
HETATM   24  C   UNL     1      38.375 -14.414   1.420  1.00  0.00     0.051 A 
HETATM   25  C   UNL     1      37.574 -13.789   0.481  1.00  0.00     0.118 A 
HETATM   26  N   UNL     1      37.978 -13.498  -0.773  1.00  0.00    -0.273 NA
HETATM   27  C   UNL     1      39.244 -13.837  -1.095  1.00  0.00     0.118 A 
HETATM   28  C   UNL     1      40.121 -14.475  -0.231  1.00  0.00     0.051 A 
ENDBRANCH  20  23
ENDBRANCH   1  17
TORSDOF 2
ENDMDL
MODEL 2
REMARK VINA RESULT:      -8.7      3.349      5.042
REMARK  2 active torsions:
REMARK  status: ('A' for Active; 'I' for Inactive)
REMARK    1  A    between atoms: N_3  and  C_4 
REMARK    2  A    between atoms: C_12  and  C_13 
REMARK       I    between atoms: C_13  and  N_14 
ROOT
HETATM    1  C   UNL     1      41.610 -16.315   3.171  1.00  0.00     0.262 C 
HETATM    2  N   UNL     1      42.139 -17.530   3.647  1.00  0.00    -0.311 N 
HETATM    3  C   UNL     1      42.617 -17.773   4.965  1.00  0.00     0.064 A 
HETATM    4  C   UNL     1      43.677 -18.659   5.242  1.00  0.00     0.061 A 
HETATM    5  C   UNL     1      44.083 -18.827   6.582  1.00  0.00     0.032 A 
HETATM    6  C   UNL     1      43.447 -18.165   7.631  1.00  0.00     0.002 A 
HETATM    7  C   UNL     1      42.380 -17.325   7.362  1.00  0.00     0.002 A 
HETATM    8  C   UNL     1      41.966 -17.136   6.043  1.00  0.00     0.032 A 
HETATM    9  N   UNL     1      44.440 -19.401   4.318  1.00  0.00    -0.325 N 
HETATM   10  C   UNL     1      44.384 -19.614   2.982  1.00  0.00     0.227 C 
HETATM   11  O   UNL     1      45.245 -20.359   2.499  1.00  0.00    -0.273 OA
HETATM   12  C   UNL     1      43.379 -18.961   2.071  1.00  0.00     0.092 C 
HETATM   13  C   UNL     1      43.997 -17.744   1.388  1.00  0.00     0.021 C 
HETATM   14  C   UNL     1      42.063 -18.692   2.771  1.00  0.00     0.146 C 
HETATM   15  O   UNL     1      40.848 -16.286   2.204  1.00  0.00    -0.267 OA
HETATM   16  H   UNL     1      45.200 -19.948   4.710  1.00  0.00     0.169 HD
ENDROOT
BRANCH   1  17
HETATM   17  C   UNL     1      42.067 -15.052   3.760  1.00  0.00     0.075 C 
HETATM   18  C   UNL     1      41.289 -14.161   4.499  1.00  0.00     0.050 C 
HETATM   19  C   UNL     1      39.890 -14.342   4.978  1.00  0.00     0.071 C 
HETATM   20  N   UNL     1      42.092 -13.056   4.769  1.00  0.00    -0.238 N 
HETATM   21  N   UNL     1      43.372 -13.281   4.373  1.00  0.00    -0.179 NA
HETATM   22  C   UNL     1      43.322 -14.421   3.690  1.00  0.00     0.158 C 
BRANCH  20  23
HETATM   23  C   UNL     1      41.775 -11.797   5.359  1.00  0.00     0.061 A 
HETATM   24  C   UNL     1      41.344 -10.752   4.532  1.00  0.00     0.051 A 
HETATM   25  C   UNL     1      41.037  -9.533   5.110  1.00  0.00     0.118 A 
HETATM   26  N   UNL     1      41.109  -9.294   6.436  1.00  0.00    -0.273 NA
HETATM   27  C   UNL     1      41.494 -10.325   7.217  1.00  0.00     0.118 A 
HETATM   28  C   UNL     1      41.833 -11.580   6.735  1.00  0.00     0.051 A 
ENDBRANCH  20  23
ENDBRANCH   1  17
TORSDOF 2
ENDMDL
MODEL 3
REMARK VINA RESULT:      -8.6      2.367      2.692
REMARK  2 active torsions:
REMARK  status: ('A' for Active; 'I' for Inactive)
REMARK    1  A    between atoms: N_3  and  C_4 
REMARK    2  A    between atoms: C_12  and  C_13 
REMARK       I    between atoms: C_13  and  N_14 
ROOT
HETATM    1  C   UNL     1      43.574 -15.886   5.887  1.00  0.00     0.262 C 
HETATM    2  N   UNL     1      44.101 -17.042   5.278  1.00  0.00    -0.311 N 
HETATM    3  C   UNL     1      43.829 -17.485   3.954  1.00  0.00     0.064 A 
HETATM    4  C   UNL     1      43.788 -18.847   3.596  1.00  0.00     0.061 A 
HETATM    5  C   UNL     1      43.503 -19.185   2.257  1.00  0.00     0.032 A 
HETATM    6  C   UNL     1      43.293 -18.212   1.283  1.00  0.00     0.002 A 
HETATM    7  C   UNL     1      43.373 -16.872   1.625  1.00  0.00     0.002 A 
HETATM    8  C   UNL     1      43.645 -16.514   2.946  1.00  0.00     0.032 A 
HETATM    9  N   UNL     1      43.963 -19.961   4.441  1.00  0.00    -0.325 N 
HETATM   10  C   UNL     1      44.311 -20.135   5.739  1.00  0.00     0.227 C 
HETATM   11  O   UNL     1      44.375 -21.301   6.148  1.00  0.00    -0.273 OA
HETATM   12  C   UNL     1      44.565 -19.001   6.696  1.00  0.00     0.092 C 
HETATM   13  C   UNL     1      43.322 -18.736   7.542  1.00  0.00     0.021 C 
HETATM   14  C   UNL     1      45.129 -17.780   6.001  1.00  0.00     0.146 C 
HETATM   15  O   UNL     1      44.151 -15.342   6.830  1.00  0.00    -0.267 OA
HETATM   16  H   UNL     1      43.844 -20.870   4.005  1.00  0.00     0.169 HD
ENDROOT
BRANCH   1  17
HETATM   17  C   UNL     1      42.257 -15.391   5.472  1.00  0.00     0.075 C 
HETATM   18  C   UNL     1      42.007 -14.217   4.761  1.00  0.00     0.050 C 
HETATM   19  C   UNL     1      42.995 -13.289   4.145  1.00  0.00     0.071 C 
HETATM   20  N   UNL     1      40.624 -14.086   4.678  1.00  0.00    -0.238 N 
HETATM   21  N   UNL     1      40.004 -15.195   5.160  1.00  0.00    -0.179 NA
HETATM   22  C   UNL     1      40.975 -15.914   5.716  1.00  0.00     0.158 C 
BRANCH  20  23
HETATM   23  C   UNL     1      39.819 -13.015   4.192  1.00  0.00     0.061 A 
HETATM   24  C   UNL     1      39.458 -11.988   5.074  1.00  0.00     0.051 A 
HETATM   25  C   UNL     1      38.676 -10.950   4.598  1.00  0.00     0.118 A 
HETATM   26  N   UNL     1      38.255 -10.856   3.320  1.00  0.00    -0.273 NA
HETATM   27  C   UNL     1      38.642 -11.838   2.481  1.00  0.00     0.118 A 
HETATM   28  C   UNL     1      39.415 -12.926   2.861  1.00  0.00     0.051 A 
ENDBRANCH  20  23
ENDBRANCH   1  17
TORSDOF 2
ENDMDL
MODEL 4
REMARK VINA RESULT:      -8.4      1.751      2.447
REMARK  2 active torsions:
REMARK  status: ('A' for Active; 'I' for Inactive)
REMARK    1  A    between atoms: N_3  and  C_4 
REMARK    2  A    between atoms: C_12  and  C_13 
REMARK       I    between atoms: C_13  and  N_14 
ROOT
HETATM    1  C   UNL     1      42.059 -14.172   3.293  1.00  0.00     0.262 C 
HETATM    2  N   UNL     1      42.748 -15.270   3.843  1.00  0.00    -0.311 N 
HETATM    3  C   UNL     1      43.023 -16.499   3.182  1.00  0.00     0.064 A 
HETATM    4  C   UNL     1      43.083 -17.734   3.857  1.00  0.00     0.061 A 
HETATM    5  C   UNL     1      43.357 -18.899   3.111  1.00  0.00     0.032 A 
HETATM    6  C   UNL     1      43.596 -18.853   1.739  1.00  0.00     0.002 A 
HETATM    7  C   UNL     1      43.576 -17.634   1.082  1.00  0.00     0.002 A 
HETATM    8  C   UNL     1      43.299 -16.469   1.798  1.00  0.00     0.032 A 
HETATM    9  N   UNL     1      42.861 -17.974   5.228  1.00  0.00    -0.325 N 
HETATM   10  C   UNL     1      42.644 -17.195   6.314  1.00  0.00     0.227 C 
HETATM   11  O   UNL     1      42.495 -17.776   7.397  1.00  0.00    -0.273 OA
HETATM   12  C   UNL     1      42.525 -15.696   6.259  1.00  0.00     0.092 C 
HETATM   13  C   UNL     1      41.056 -15.282   6.239  1.00  0.00     0.021 C 
HETATM   14  C   UNL     1      43.366 -15.096   5.151  1.00  0.00     0.146 C 
HETATM   15  O   UNL     1      42.221 -13.032   3.731  1.00  0.00    -0.267 OA
HETATM   16  H   UNL     1      42.898 -18.946   5.519  1.00  0.00     0.169 HD
ENDROOT
BRANCH   1  17
HETATM   17  C   UNL     1      41.043 -14.404   2.260  1.00  0.00     0.075 C 
HETATM   18  C   UNL     1      41.035 -13.855   0.978  1.00  0.00     0.050 C 
HETATM   19  C   UNL     1      42.096 -13.045   0.319  1.00  0.00     0.071 C 
HETATM   20  N   UNL     1      39.843 -14.255   0.379  1.00  0.00    -0.238 N 
HETATM   21  N   UNL     1      39.187 -15.151   1.162  1.00  0.00    -0.179 NA
HETATM   22  C   UNL     1      39.855 -15.154   2.311  1.00  0.00     0.158 C 
BRANCH  20  23
HETATM   23  C   UNL     1      39.252 -13.874  -0.861  1.00  0.00     0.061 A 
HETATM   24  C   UNL     1      39.768 -14.409  -2.048  1.00  0.00     0.051 A 
HETATM   25  C   UNL     1      39.190 -14.037  -3.249  1.00  0.00     0.118 A 
HETATM   26  N   UNL     1      38.138 -13.198  -3.345  1.00  0.00    -0.273 NA
HETATM   27  C   UNL     1      37.636 -12.721  -2.187  1.00  0.00     0.118 A 
HETATM   28  C   UNL     1      38.149 -13.024  -0.935  1.00  0.00     0.051 A 
ENDBRANCH  20  23
ENDBRANCH   1  17
TORSDOF 2
ENDMDL
MODEL 5
REMARK VINA RESULT:      -7.9      2.887      7.549
REMARK  2 active torsions:
REMARK  status: ('A' for Active; 'I' for Inactive)
REMARK    1  A    between atoms: N_3  and  C_4 
REMARK    2  A    between atoms: C_12  and  C_13 
REMARK       I    between atoms: C_13  and  N_14 
ROOT
HETATM    1  C   UNL     1      41.457 -14.987   0.968  1.00  0.00     0.262 C 
HETATM    2  N   UNL     1      41.013 -13.743   1.458  1.00  0.00    -0.311 N 
HETATM    3  C   UNL     1      41.245 -13.230   2.764  1.00  0.00     0.064 A 
HETATM    4  C   UNL     1      40.325 -12.399   3.433  1.00  0.00     0.061 A 
HETATM    5  C   UNL     1      40.643 -11.945   4.730  1.00  0.00     0.032 A 
HETATM    6  C   UNL     1      41.849 -12.274   5.347  1.00  0.00     0.002 A 
HETATM    7  C   UNL     1      42.770 -13.058   4.674  1.00  0.00     0.002 A 
HETATM    8  C   UNL     1      42.473 -13.525   3.394  1.00  0.00     0.032 A 
HETATM    9  N   UNL     1      39.062 -11.973   2.975  1.00  0.00    -0.325 N 
HETATM   10  C   UNL     1      38.375 -12.088   1.813  1.00  0.00     0.227 C 
HETATM   11  O   UNL     1      37.257 -11.561   1.771  1.00  0.00    -0.273 OA
HETATM   12  C   UNL     1      38.876 -12.853   0.617  1.00  0.00     0.092 C 
HETATM   13  C   UNL     1      38.259 -14.248   0.587  1.00  0.00     0.021 C 
HETATM   14  C   UNL     1      40.386 -12.828   0.513  1.00  0.00     0.146 C 
HETATM   15  O   UNL     1      41.598 -15.184  -0.239  1.00  0.00    -0.267 OA
HETATM   16  H   UNL     1      38.519 -11.416   3.627  1.00  0.00     0.169 HD
ENDROOT
BRANCH   1  17
HETATM   17  C   UNL     1      41.639 -16.104   1.902  1.00  0.00     0.075 C 
HETATM   18  C   UNL     1      42.826 -16.802   2.125  1.00  0.00     0.050 C 
HETATM   19  C   UNL     1      44.184 -16.498   1.596  1.00  0.00     0.071 C 
HETATM   20  N   UNL     1      42.521 -17.839   3.003  1.00  0.00    -0.238 N 
HETATM   21  N   UNL     1      41.246 -17.726   3.460  1.00  0.00    -0.179 NA
HETATM   22  C   UNL     1      40.706 -16.757   2.726  1.00  0.00     0.158 C 
BRANCH  20  23
HETATM   23  C   UNL     1      43.310 -18.936   3.456  1.00  0.00     0.061 A 
HETATM   24  C   UNL     1      43.712 -19.907   2.530  1.00  0.00     0.051 A 
HETATM   25  C   UNL     1      44.478 -20.970   2.975  1.00  0.00     0.118 A 
HETATM   26  N   UNL     1      44.882 -21.118   4.253  1.00  0.00    -0.273 NA
HETATM   27  C   UNL     1      44.512 -20.154   5.121  1.00  0.00     0.118 A 
HETATM   28  C   UNL     1      43.737 -19.056   4.778  1.00  0.00     0.051 A 
ENDBRANCH  20  23
ENDBRANCH   1  17
TORSDOF 2
ENDMDL
MODEL 6
REMARK VINA RESULT:      -7.7      2.299      4.391
REMARK  2 active torsions:
REMARK  status: ('A' for Active; 'I' for Inactive)
REMARK    1  A    between atoms: N_3  and  C_4 
REMARK    2  A    between atoms: C_12  and  C_13 
REMARK       I    between atoms: C_13  and  N_14 
ROOT
HETATM    1  C   UNL     1      40.524 -16.452   2.425  1.00  0.00     0.262 C 
HETATM    2  N   UNL     1      41.130 -16.362   3.693  1.00  0.00    -0.311 N 
HETATM    3  C   UNL     1      41.465 -15.159   4.374  1.00  0.00     0.064 A 
HETATM    4  C   UNL     1      42.580 -15.050   5.229  1.00  0.00     0.061 A 
HETATM    5  C   UNL     1      42.833 -13.811   5.853  1.00  0.00     0.032 A 
HETATM    6  C   UNL     1      41.997 -12.712   5.669  1.00  0.00     0.002 A 
HETATM    7  C   UNL     1      40.880 -12.830   4.859  1.00  0.00     0.002 A 
HETATM    8  C   UNL     1      40.614 -14.043   4.224  1.00  0.00     0.032 A 
HETATM    9  N   UNL     1      43.534 -16.044   5.526  1.00  0.00    -0.325 N 
HETATM   10  C   UNL     1      43.671 -17.359   5.233  1.00  0.00     0.227 C 
HETATM   11  O   UNL     1      44.668 -17.932   5.690  1.00  0.00    -0.273 OA
HETATM   12  C   UNL     1      42.717 -18.125   4.357  1.00  0.00     0.092 C 
HETATM   13  C   UNL     1      43.267 -18.223   2.936  1.00  0.00     0.021 C 
HETATM   14  C   UNL     1      41.301 -17.595   4.451  1.00  0.00     0.146 C 
HETATM   15  O   UNL     1      39.890 -17.454   2.090  1.00  0.00    -0.267 OA
HETATM   16  H   UNL     1      44.299 -15.756   6.128  1.00  0.00     0.169 HD
ENDROOT
BRANCH   1  17
HETATM   17  C   UNL     1      40.751 -15.388   1.442  1.00  0.00     0.075 C 
HETATM   18  C   UNL     1      39.774 -14.562   0.885  1.00  0.00     0.050 C 
HETATM   19  C   UNL     1      38.334 -14.466   1.251  1.00  0.00     0.071 C 
HETATM   20  N   UNL     1      40.412 -13.775  -0.070  1.00  0.00    -0.238 N 
HETATM   21  N   UNL     1      41.758 -13.956  -0.024  1.00  0.00    -0.179 NA
HETATM   22  C   UNL     1      41.936 -14.983   0.802  1.00  0.00     0.158 C 
BRANCH  20  23
HETATM   23  C   UNL     1      39.882 -12.867  -1.032  1.00  0.00     0.061 A 
HETATM   24  C   UNL     1      39.366 -13.377  -2.230  1.00  0.00     0.051 A 
HETATM   25  C   UNL     1      38.852 -12.492  -3.161  1.00  0.00     0.118 A 
HETATM   26  N   UNL     1      38.798 -11.157  -2.974  1.00  0.00    -0.273 NA
HETATM   27  C   UNL     1      39.270 -10.690  -1.799  1.00  0.00     0.118 A 
HETATM   28  C   UNL     1      39.814 -11.493  -0.807  1.00  0.00     0.051 A 
ENDBRANCH  20  23
ENDBRANCH   1  17
TORSDOF 2
ENDMDL
MODEL 7
REMARK VINA RESULT:      -7.7      2.478      3.819
REMARK  2 active torsions:
REMARK  status: ('A' for Active; 'I' for Inactive)
REMARK    1  A    between atoms: N_3  and  C_4 
REMARK    2  A    between atoms: C_12  and  C_13 
REMARK       I    between atoms: C_13  and  N_14 
ROOT
HETATM    1  C   UNL     1      42.102 -13.304   1.603  1.00  0.00     0.262 C 
HETATM    2  N   UNL     1      42.707 -14.268   2.434  1.00  0.00    -0.311 N 
HETATM    3  C   UNL     1      42.595 -15.679   2.293  1.00  0.00     0.064 A 
HETATM    4  C   UNL     1      42.608 -16.560   3.393  1.00  0.00     0.061 A 
HETATM    5  C   UNL     1      42.485 -17.944   3.151  1.00  0.00     0.032 A 
HETATM    6  C   UNL     1      42.380 -18.457   1.859  1.00  0.00     0.002 A 
HETATM    7  C   UNL     1      42.407 -17.594   0.776  1.00  0.00     0.002 A 
HETATM    8  C   UNL     1      42.520 -16.221   0.992  1.00  0.00     0.032 A 
HETATM    9  N   UNL     1      42.695 -16.225   4.759  1.00  0.00    -0.325 N 
HETATM   10  C   UNL     1      42.890 -15.080   5.455  1.00  0.00     0.227 C 
HETATM   11  O   UNL     1      42.917 -15.174   6.688  1.00  0.00    -0.273 OA
HETATM   12  C   UNL     1      43.021 -13.724   4.815  1.00  0.00     0.092 C 
HETATM   13  C   UNL     1      41.685 -12.986   4.866  1.00  0.00     0.021 C 
HETATM   14  C   UNL     1      43.650 -13.798   3.440  1.00  0.00     0.146 C 
HETATM   15  O   UNL     1      42.560 -12.165   1.508  1.00  0.00    -0.267 OA
HETATM   16  H   UNL     1      42.636 -17.003   5.410  1.00  0.00     0.169 HD
ENDROOT
BRANCH   1  17
HETATM   17  C   UNL     1      40.838 -13.625   0.932  1.00  0.00     0.075 C 
HETATM   18  C   UNL     1      40.602 -13.580  -0.442  1.00  0.00     0.050 C 
HETATM   19  C   UNL     1      41.586 -13.346  -1.535  1.00  0.00     0.071 C 
HETATM   20  N   UNL     1      39.250 -13.856  -0.626  1.00  0.00    -0.238 N 
HETATM   21  N   UNL     1      38.669 -14.226   0.545  1.00  0.00    -0.179 NA
HETATM   22  C   UNL     1      39.591 -13.989   1.473  1.00  0.00     0.158 C 
BRANCH  20  23
HETATM   23  C   UNL     1      38.441 -13.803  -1.799  1.00  0.00     0.061 A 
HETATM   24  C   UNL     1      37.799 -12.600  -2.122  1.00  0.00     0.051 A 
HETATM   25  C   UNL     1      37.015 -12.553  -3.261  1.00  0.00     0.118 A 
HETATM   26  N   UNL     1      36.846 -13.598  -4.097  1.00  0.00    -0.273 NA
HETATM   27  C   UNL     1      37.500 -14.736  -3.784  1.00  0.00     0.118 A 
HETATM   28  C   UNL     1      38.300 -14.888  -2.661  1.00  0.00     0.051 A 
ENDBRANCH  20  23
ENDBRANCH   1  17
TORSDOF 2
ENDMDL
MODEL 8
REMARK VINA RESULT:      -7.6      2.768      7.240
REMARK  2 active torsions:
REMARK  status: ('A' for Active; 'I' for Inactive)
REMARK    1  A    between atoms: N_3  and  C_4 
REMARK    2  A    between atoms: C_12  and  C_13 
REMARK       I    between atoms: C_13  and  N_14 
ROOT
HETATM    1  C   UNL     1      40.701 -14.561   5.089  1.00  0.00     0.262 C 
HETATM    2  N   UNL     1      40.000 -13.556   4.393  1.00  0.00    -0.311 N 
HETATM    3  C   UNL     1      39.682 -13.568   3.006  1.00  0.00     0.064 A 
HETATM    4  C   UNL     1      39.610 -12.396   2.228  1.00  0.00     0.061 A 
HETATM    5  C   UNL     1      39.294 -12.513   0.859  1.00  0.00     0.032 A 
HETATM    6  C   UNL     1      39.024 -13.747   0.271  1.00  0.00     0.002 A 
HETATM    7  C   UNL     1      39.056 -14.895   1.044  1.00  0.00     0.002 A 
HETATM    8  C   UNL     1      39.375 -14.805   2.399  1.00  0.00     0.032 A 
HETATM    9  N   UNL     1      39.859 -11.073   2.645  1.00  0.00    -0.325 N 
HETATM   10  C   UNL     1      40.119 -10.475   3.832  1.00  0.00     0.227 C 
HETATM   11  O   UNL     1      40.279  -9.248   3.816  1.00  0.00    -0.273 OA
HETATM   12  C   UNL     1      40.269 -11.222   5.131  1.00  0.00     0.092 C 
HETATM   13  C   UNL     1      41.746 -11.446   5.442  1.00  0.00     0.021 C 
HETATM   14  C   UNL     1      39.417 -12.473   5.173  1.00  0.00     0.146 C 
HETATM   15  O   UNL     1      40.574 -14.701   6.306  1.00  0.00    -0.267 OA
HETATM   16  H   UNL     1      39.807 -10.363   1.921  1.00  0.00     0.169 HD
ENDROOT
BRANCH   1  17
HETATM   17  C   UNL     1      41.687 -15.378   4.373  1.00  0.00     0.075 C 
HETATM   18  C   UNL     1      41.772 -16.770   4.395  1.00  0.00     0.050 C 
HETATM   19  C   UNL     1      40.824 -17.738   5.013  1.00  0.00     0.071 C 
HETATM   20  N   UNL     1      42.909 -17.113   3.668  1.00  0.00    -0.238 N 
HETATM   21  N   UNL     1      43.443 -16.020   3.064  1.00  0.00    -0.179 NA
HETATM   22  C   UNL     1      42.772 -14.989   3.569  1.00  0.00     0.158 C 
BRANCH  20  23
HETATM   23  C   UNL     1      43.552 -18.372   3.487  1.00  0.00     0.061 A 
HETATM   24  C   UNL     1      44.270 -18.924   4.555  1.00  0.00     0.051 A 
HETATM   25  C   UNL     1      44.892 -20.147   4.374  1.00  0.00     0.118 A 
HETATM   26  N   UNL     1      44.831 -20.855   3.227  1.00  0.00    -0.273 NA
HETATM   27  C   UNL     1      44.106 -20.320   2.223  1.00  0.00     0.118 A 
HETATM   28  C   UNL     1      43.455 -19.098   2.300  1.00  0.00     0.051 A 
ENDBRANCH  20  23
ENDBRANCH   1  17
TORSDOF 2
ENDMDL
MODEL 9
REMARK VINA RESULT:      -7.6      2.746      7.746
REMARK  2 active torsions:
REMARK  status: ('A' for Active; 'I' for Inactive)
REMARK    1  A    between atoms: N_3  and  C_4 
REMARK    2  A    between atoms: C_12  and  C_13 
REMARK       I    between atoms: C_13  and  N_14 
ROOT
HETATM    1  C   UNL     1      40.206 -14.180   2.165  1.00  0.00     0.262 C 
HETATM    2  N   UNL     1      40.015 -13.410   1.001  1.00  0.00    -0.311 N 
HETATM    3  C   UNL     1      40.523 -13.713  -0.293  1.00  0.00     0.064 A 
HETATM    4  C   UNL     1      40.900 -12.720  -1.218  1.00  0.00     0.061 A 
HETATM    5  C   UNL     1      41.399 -13.121  -2.474  1.00  0.00     0.032 A 
HETATM    6  C   UNL     1      41.499 -14.466  -2.829  1.00  0.00     0.002 A 
HETATM    7  C   UNL     1      41.091 -15.441  -1.935  1.00  0.00     0.002 A 
HETATM    8  C   UNL     1      40.603 -15.067  -0.683  1.00  0.00     0.032 A 
HETATM    9  N   UNL     1      40.879 -11.322  -1.034  1.00  0.00    -0.325 N 
HETATM   10  C   UNL     1      40.436 -10.491  -0.061  1.00  0.00     0.227 C 
HETATM   11  O   UNL     1      40.582  -9.278  -0.254  1.00  0.00    -0.273 OA
HETATM   12  C   UNL     1      39.835 -10.964   1.236  1.00  0.00     0.092 C 
HETATM   13  C   UNL     1      40.888 -10.951   2.341  1.00  0.00     0.021 C 
HETATM   14  C   UNL     1      39.100 -12.279   1.079  1.00  0.00     0.146 C 
HETATM   15  O   UNL     1      39.423 -14.108   3.112  1.00  0.00    -0.267 OA
HETATM   16  H   UNL     1      41.242 -10.769  -1.804  1.00  0.00     0.169 HD
ENDROOT
BRANCH   1  17
HETATM   17  C   UNL     1      41.421 -14.991   2.299  1.00  0.00     0.075 C 
HETATM   18  C   UNL     1      41.479 -16.384   2.344  1.00  0.00     0.050 C 
HETATM   19  C   UNL     1      40.372 -17.356   2.126  1.00  0.00     0.071 C 
HETATM   20  N   UNL     1      42.808 -16.722   2.584  1.00  0.00    -0.238 N 
HETATM   21  N   UNL     1      43.603 -15.622   2.532  1.00  0.00    -0.179 NA
HETATM   22  C   UNL     1      42.760 -14.595   2.463  1.00  0.00     0.158 C 
BRANCH  20  23
HETATM   23  C   UNL     1      43.410 -17.983   2.864  1.00  0.00     0.061 A 
HETATM   24  C   UNL     1      43.817 -18.261   4.175  1.00  0.00     0.051 A 
HETATM   25  C   UNL     1      44.401 -19.487   4.442  1.00  0.00     0.118 A 
HETATM   26  N   UNL     1      44.585 -20.447   3.512  1.00  0.00    -0.273 NA
HETATM   27  C   UNL     1      44.156 -20.170   2.263  1.00  0.00     0.118 A 
HETATM   28  C   UNL     1      43.569 -18.970   1.892  1.00  0.00     0.051 A 
ENDBRANCH  20  23
ENDBRANCH   1  17
TORSDOF 2
ENDMDL
MODEL 10
REMARK VINA RESULT:      -7.5      3.236      7.875
REMARK  2 active torsions:
REMARK  status: ('A' for Active; 'I' for Inactive)
REMARK    1  A    between atoms: N_3  and  C_4 
REMARK    2  A    between atoms: C_12  and  C_13 
REMARK       I    between atoms: C_13  and  N_14 
ROOT
HETATM    1  C   UNL     1      40.287 -12.987   5.424  1.00  0.00     0.262 C 
HETATM    2  N   UNL     1      39.583 -12.420   4.343  1.00  0.00    -0.311 N 
HETATM    3  C   UNL     1      39.481 -12.968   3.035  1.00  0.00     0.064 A 
HETATM    4  C   UNL     1      39.385 -12.170   1.877  1.00  0.00     0.061 A 
HETATM    5  C   UNL     1      39.295 -12.809   0.623  1.00  0.00     0.032 A 
HETATM    6  C   UNL     1      39.267 -14.197   0.506  1.00  0.00     0.002 A 
HETATM    7  C   UNL     1      39.321 -14.981   1.646  1.00  0.00     0.002 A 
HETATM    8  C   UNL     1      39.420 -14.372   2.897  1.00  0.00     0.032 A 
HETATM    9  N   UNL     1      39.407 -10.763   1.801  1.00  0.00    -0.325 N 
HETATM   10  C   UNL     1      39.411  -9.754   2.704  1.00  0.00     0.227 C 
HETATM   11  O   UNL     1      39.423  -8.602   2.254  1.00  0.00    -0.273 OA
HETATM   12  C   UNL     1      39.454  -9.965   4.194  1.00  0.00     0.092 C 
HETATM   13  C   UNL     1      40.884  -9.817   4.707  1.00  0.00     0.021 C 
HETATM   14  C   UNL     1      38.762 -11.246   4.611  1.00  0.00     0.146 C 
HETATM   15  O   UNL     1      39.997 -12.712   6.589  1.00  0.00    -0.267 OA
HETATM   16  H   UNL     1      39.379 -10.371   0.865  1.00  0.00     0.169 HD
ENDROOT
BRANCH   1  17
HETATM   17  C   UNL     1      41.461 -13.825   5.157  1.00  0.00     0.075 C 
HETATM   18  C   UNL     1      41.603 -15.172   5.492  1.00  0.00     0.050 C 
HETATM   19  C   UNL     1      40.574 -16.092   6.051  1.00  0.00     0.071 C 
HETATM   20  N   UNL     1      42.903 -15.535   5.151  1.00  0.00    -0.238 N 
HETATM   21  N   UNL     1      43.523 -14.531   4.478  1.00  0.00    -0.179 NA
HETATM   22  C   UNL     1      42.698 -13.493   4.576  1.00  0.00     0.158 C 
BRANCH  20  23
HETATM   23  C   UNL     1      43.628 -16.736   5.400  1.00  0.00     0.061 A 
HETATM   24  C   UNL     1      43.584 -17.762   4.447  1.00  0.00     0.051 A 
HETATM   25  C   UNL     1      44.290 -18.926   4.693  1.00  0.00     0.118 A 
HETATM   26  N   UNL     1      45.042 -19.127   5.795  1.00  0.00    -0.273 NA
HETATM   27  C   UNL     1      45.097 -18.113   6.683  1.00  0.00     0.118 A 
HETATM   28  C   UNL     1      44.418 -16.912   6.535  1.00  0.00     0.051 A 
ENDBRANCH  20  23
ENDBRANCH   1  17
TORSDOF 2
ENDMDL
