MODEL 1
REMARK VINA RESULT:      -9.5      0.000      0.000
REMARK  8 active torsions:
REMARK  status: ('A' for Active; 'I' for Inactive)
REMARK    1  A    between atoms: C_5  and  C_6 
REMARK       I    between atoms: C_6  and  N_7 
REMARK    2  A    between atoms: N_7  and  N_8 
REMARK       I    between atoms: N_8  and  C_9 
REMARK    3  A    between atoms: C_9  and  C_10 
REMARK    4  A    between atoms: C_10  and  S_11 
REMARK    5  A    between atoms: S_11  and  C_12 
REMARK    6  A    between atoms: N_13  and  C_14 
REMARK    7  A    between atoms: C_21  and  C_22 
REMARK    8  A    between atoms: C_22  and  N_23 
ROOT
HETATM    1  C   UNL     1      43.100 -14.216   5.807  1.00  0.00     0.196 A 
HETATM    2  N   UNL     1      42.544 -14.826   4.698  1.00  0.00    -0.274 N 
HETATM    3  C   UNL     1      41.579 -13.914   4.263  1.00  0.00     0.166 A 
HETATM    4  N   UNL     1      41.650 -12.826   5.006  1.00  0.00    -0.131 NA
HETATM    5  N   UNL     1      42.591 -13.018   5.971  1.00  0.00    -0.122 NA
ENDROOT
BRANCH   1   6
HETATM    6  S   UNL     1      44.404 -14.842   6.759  1.00  0.00    -0.080 SA
BRANCH   6   7
HETATM    7  C   UNL     1      45.360 -13.321   7.018  1.00  0.00     0.187 C 
BRANCH   7   8
HETATM    8  C   UNL     1      45.303 -12.926   8.483  1.00  0.00     0.245 C 
HETATM    9  N   UNL     1      44.018 -12.807   8.970  1.00  0.00    -0.267 N 
HETATM   10  H   UNL     1      43.175 -12.936   8.408  1.00  0.00     0.190 HD
HETATM   11  O   UNL     1      46.308 -12.745   9.175  1.00  0.00    -0.271 OA
BRANCH   9  12
HETATM   12  N   UNL     1      43.797 -12.383  10.284  1.00  0.00    -0.263 N 
HETATM   13  C   UNL     1      42.992 -11.267  10.441  1.00  0.00     0.270 C 
HETATM   14  O   UNL     1      42.455 -10.735   9.469  1.00  0.00    -0.266 OA
HETATM   15  H   UNL     1      44.368 -12.802  11.009  1.00  0.00     0.190 HD
BRANCH  13  16
HETATM   16  C   UNL     1      42.810 -10.712  11.813  1.00  0.00     0.033 A 
HETATM   17  C   UNL     1      43.719  -9.834  12.417  1.00  0.00     0.017 A 
HETATM   18  C   UNL     1      43.480  -9.354  13.711  1.00  0.00     0.007 A 
HETATM   19  C   UNL     1      42.336  -9.742  14.417  1.00  0.00    -0.062 A 
HETATM   20  C   UNL     1      42.088  -9.254  15.814  1.00  0.00     0.048 C 
HETATM   21  C   UNL     1      41.439 -10.633  13.821  1.00  0.00     0.007 A 
HETATM   22  C   UNL     1      41.673 -11.112  12.530  1.00  0.00     0.017 A 
ENDBRANCH  13  16
ENDBRANCH   9  12
ENDBRANCH   7   8
ENDBRANCH   6   7
ENDBRANCH   1   6
BRANCH   2  23
HETATM   23  C   UNL     1      42.843 -16.092   4.138  1.00  0.00     0.043 A 
HETATM   24  C   UNL     1      43.644 -16.182   2.990  1.00  0.00     0.033 A 
HETATM   25  C   UNL     1      43.958 -17.436   2.460  1.00  0.00     0.044 A 
HETATM   26  C   UNL     1      43.467 -18.584   3.070  1.00  0.00     0.116 A 
HETATM   27  F   UNL     1      43.771 -19.784   2.563  1.00  0.00    -0.206 F 
HETATM   28  C   UNL     1      42.661 -18.504   4.202  1.00  0.00     0.044 A 
HETATM   29  C   UNL     1      42.344 -17.256   4.741  1.00  0.00     0.033 A 
ENDBRANCH   2  23
BRANCH   3  30
HETATM   30  C   UNL     1      40.527 -14.161   3.219  1.00  0.00     0.255 C 
HETATM   31  C   UNL     1      39.476 -13.044   3.172  1.00  0.00     0.049 C 
BRANCH  30  32
HETATM   32  N   UNL     1      41.067 -14.361   1.774  1.00  0.00    -0.060 N 
HETATM   33  H   UNL     1      42.082 -14.471   1.879  1.00  0.00     0.280 HD
HETATM   34  C   UNL     1      40.572 -15.609   1.061  1.00  0.00     0.236 C 
HETATM   35  C   UNL     1      41.363 -15.788  -0.230  1.00  0.00     0.028 C 
HETATM   36  C   UNL     1      41.253 -14.561  -1.129  1.00  0.00     0.003 C 
HETATM   37  C   UNL     1      41.647 -13.292  -0.383  1.00  0.00     0.028 C 
HETATM   38  C   UNL     1      40.861 -13.130   0.913  1.00  0.00     0.236 C 
ENDBRANCH  30  32
ENDBRANCH   3  30
TORSDOF 8
ENDMDL
MODEL 2
REMARK VINA RESULT:      -9.3      2.259      3.645
REMARK  8 active torsions:
REMARK  status: ('A' for Active; 'I' for Inactive)
REMARK    1  A    between atoms: C_5  and  C_6 
REMARK       I    between atoms: C_6  and  N_7 
REMARK    2  A    between atoms: N_7  and  N_8 
REMARK       I    between atoms: N_8  and  C_9 
REMARK    3  A    between atoms: C_9  and  C_10 
REMARK    4  A    between atoms: C_10  and  S_11 
REMARK    5  A    between atoms: S_11  and  C_12 
REMARK    6  A    between atoms: N_13  and  C_14 
REMARK    7  A    between atoms: C_21  and  C_22 
REMARK    8  A    between atoms: C_22  and  N_23 
ROOT
HETATM    1  C   UNL     1      41.125 -12.589   4.379  1.00  0.00     0.196 A 
HETATM    2  N   UNL     1      41.337 -13.942   4.190  1.00  0.00    -0.274 N 
HETATM    3  C   UNL     1      41.065 -14.137   2.835  1.00  0.00     0.166 A 
HETATM    4  N   UNL     1      40.817 -12.969   2.273  1.00  0.00    -0.131 NA
HETATM    5  N   UNL     1      40.846 -12.008   3.237  1.00  0.00    -0.122 NA
ENDROOT
BRANCH   1   6
HETATM    6  S   UNL     1      41.356 -11.726   5.862  1.00  0.00    -0.080 SA
BRANCH   6   7
HETATM    7  C   UNL     1      39.652 -11.712   6.486  1.00  0.00     0.187 C 
BRANCH   7   8
HETATM    8  C   UNL     1      39.615 -11.059   7.856  1.00  0.00     0.245 C 
HETATM    9  N   UNL     1      40.663 -11.433   8.671  1.00  0.00    -0.267 N 
HETATM   10  H   UNL     1      41.385 -12.107   8.409  1.00  0.00     0.190 HD
HETATM   11  O   UNL     1      38.743 -10.259   8.201  1.00  0.00    -0.271 OA
BRANCH   9  12
HETATM   12  N   UNL     1      40.734 -10.971   9.989  1.00  0.00    -0.263 N 
HETATM   13  C   UNL     1      42.000 -10.692  10.474  1.00  0.00     0.270 C 
HETATM   14  O   UNL     1      42.989 -10.788   9.747  1.00  0.00    -0.266 OA
HETATM   15  H   UNL     1      39.891 -11.035  10.549  1.00  0.00     0.190 HD
BRANCH  13  16
HETATM   16  C   UNL     1      42.140 -10.298  11.906  1.00  0.00     0.033 A 
HETATM   17  C   UNL     1      43.246  -9.604  12.411  1.00  0.00     0.017 A 
HETATM   18  C   UNL     1      43.305  -9.269  13.770  1.00  0.00     0.007 A 
HETATM   19  C   UNL     1      42.266  -9.619  14.639  1.00  0.00    -0.062 A 
HETATM   20  C   UNL     1      42.336  -9.288  16.101  1.00  0.00     0.048 C 
HETATM   21  C   UNL     1      41.171 -10.329  14.137  1.00  0.00     0.007 A 
HETATM   22  C   UNL     1      41.107 -10.663  12.782  1.00  0.00     0.017 A 
ENDBRANCH  13  16
ENDBRANCH   9  12
ENDBRANCH   7   8
ENDBRANCH   6   7
ENDBRANCH   1   6
BRANCH   2  23
HETATM   23  C   UNL     1      41.709 -14.923   5.142  1.00  0.00     0.043 A 
HETATM   24  C   UNL     1      40.727 -15.709   5.763  1.00  0.00     0.033 A 
HETATM   25  C   UNL     1      41.105 -16.695   6.678  1.00  0.00     0.044 A 
HETATM   26  C   UNL     1      42.449 -16.882   6.972  1.00  0.00     0.116 A 
HETATM   27  F   UNL     1      42.809 -17.829   7.848  1.00  0.00    -0.206 F 
HETATM   28  C   UNL     1      43.430 -16.100   6.371  1.00  0.00     0.044 A 
HETATM   29  C   UNL     1      43.063 -15.114   5.452  1.00  0.00     0.033 A 
ENDBRANCH   2  23
BRANCH   3  30
HETATM   30  C   UNL     1      40.932 -15.460   2.134  1.00  0.00     0.255 C 
HETATM   31  C   UNL     1      40.698 -15.302   0.626  1.00  0.00     0.049 C 
BRANCH  30  32
HETATM   32  N   UNL     1      42.130 -16.432   2.327  1.00  0.00    -0.060 N 
HETATM   33  H   UNL     1      42.785 -15.934   2.941  1.00  0.00     0.280 HD
HETATM   34  C   UNL     1      41.801 -17.742   3.023  1.00  0.00     0.236 C 
HETATM   35  C   UNL     1      43.100 -18.470   3.348  1.00  0.00     0.028 C 
HETATM   36  C   UNL     1      43.938 -18.709   2.096  1.00  0.00     0.003 C 
HETATM   37  C   UNL     1      44.180 -17.409   1.337  1.00  0.00     0.028 C 
HETATM   38  C   UNL     1      42.875 -16.683   1.030  1.00  0.00     0.236 C 
ENDBRANCH  30  32
ENDBRANCH   3  30
TORSDOF 8
ENDMDL
MODEL 3
REMARK VINA RESULT:      -9.1      2.556      4.739
REMARK  8 active torsions:
REMARK  status: ('A' for Active; 'I' for Inactive)
REMARK    1  A    between atoms: C_5  and  C_6 
REMARK       I    between atoms: C_6  and  N_7 
REMARK    2  A    between atoms: N_7  and  N_8 
REMARK       I    between atoms: N_8  and  C_9 
REMARK    3  A    between atoms: C_9  and  C_10 
REMARK    4  A    between atoms: C_10  and  S_11 
REMARK    5  A    between atoms: S_11  and  C_12 
REMARK    6  A    between atoms: N_13  and  C_14 
REMARK    7  A    between atoms: C_21  and  C_22 
REMARK    8  A    between atoms: C_22  and  N_23 
ROOT
HETATM    1  C   UNL     1      41.577 -16.147   5.773  1.00  0.00     0.196 A 
HETATM    2  N   UNL     1      42.286 -16.765   4.760  1.00  0.00    -0.274 N 
HETATM    3  C   UNL     1      43.250 -17.516   5.435  1.00  0.00     0.166 A 
HETATM    4  N   UNL     1      43.042 -17.414   6.735  1.00  0.00    -0.131 NA
HETATM    5  N   UNL     1      42.006 -16.556   6.943  1.00  0.00    -0.122 NA
ENDROOT
BRANCH   1   6
HETATM    6  S   UNL     1      40.204 -15.114   5.563  1.00  0.00    -0.080 SA
BRANCH   6   7
HETATM    7  C   UNL     1      41.042 -13.559   5.150  1.00  0.00     0.187 C 
BRANCH   7   8
HETATM    8  C   UNL     1      40.806 -12.543   6.254  1.00  0.00     0.245 C 
HETATM    9  N   UNL     1      41.950 -12.212   6.949  1.00  0.00    -0.267 N 
HETATM   10  H   UNL     1      42.869 -12.624   6.777  1.00  0.00     0.190 HD
HETATM   11  O   UNL     1      39.703 -12.048   6.494  1.00  0.00    -0.271 OA
BRANCH   9  12
HETATM   12  N   UNL     1      41.886 -11.340   8.041  1.00  0.00    -0.263 N 
HETATM   13  C   UNL     1      43.010 -11.285   8.849  1.00  0.00     0.270 C 
HETATM   14  O   UNL     1      44.022 -11.926   8.564  1.00  0.00    -0.266 OA
HETATM   15  H   UNL     1      40.980 -10.946   8.267  1.00  0.00     0.190 HD
BRANCH  13  16
HETATM   16  C   UNL     1      42.954 -10.452  10.085  1.00  0.00     0.033 A 
HETATM   17  C   UNL     1      43.819 -10.625  11.172  1.00  0.00     0.017 A 
HETATM   18  C   UNL     1      43.704  -9.802  12.299  1.00  0.00     0.007 A 
HETATM   19  C   UNL     1      42.730  -8.799  12.358  1.00  0.00    -0.062 A 
HETATM   20  C   UNL     1      42.583  -7.933  13.574  1.00  0.00     0.048 C 
HETATM   21  C   UNL     1      41.855  -8.640  11.279  1.00  0.00     0.007 A 
HETATM   22  C   UNL     1      41.968  -9.457  10.152  1.00  0.00     0.017 A 
ENDBRANCH  13  16
ENDBRANCH   9  12
ENDBRANCH   7   8
ENDBRANCH   6   7
ENDBRANCH   1   6
BRANCH   2  23
HETATM   23  C   UNL     1      42.114 -16.650   3.359  1.00  0.00     0.043 A 
HETATM   24  C   UNL     1      42.935 -15.788   2.617  1.00  0.00     0.033 A 
HETATM   25  C   UNL     1      42.778 -15.703   1.231  1.00  0.00     0.044 A 
HETATM   26  C   UNL     1      41.804 -16.466   0.601  1.00  0.00     0.116 A 
HETATM   27  F   UNL     1      41.656 -16.384  -0.727  1.00  0.00    -0.206 F 
HETATM   28  C   UNL     1      40.976 -17.314   1.329  1.00  0.00     0.044 A 
HETATM   29  C   UNL     1      41.126 -17.409   2.714  1.00  0.00     0.033 A 
ENDBRANCH   2  23
BRANCH   3  30
HETATM   30  C   UNL     1      44.426 -18.219   4.818  1.00  0.00     0.255 C 
HETATM   31  C   UNL     1      45.497 -18.587   5.853  1.00  0.00     0.049 C 
BRANCH  30  32
HETATM   32  N   UNL     1      44.079 -19.508   4.020  1.00  0.00    -0.060 N 
HETATM   33  H   UNL     1      43.118 -19.744   4.294  1.00  0.00     0.280 HD
HETATM   34  C   UNL     1      44.067 -19.353   2.508  1.00  0.00     0.236 C 
HETATM   35  C   UNL     1      43.485 -20.618   1.886  1.00  0.00     0.028 C 
HETATM   36  C   UNL     1      44.264 -21.860   2.305  1.00  0.00     0.003 C 
HETATM   37  C   UNL     1      44.369 -21.960   3.823  1.00  0.00     0.028 C 
HETATM   38  C   UNL     1      44.940 -20.685   4.435  1.00  0.00     0.236 C 
ENDBRANCH  30  32
ENDBRANCH   3  30
TORSDOF 8
ENDMDL
MODEL 4
REMARK VINA RESULT:      -9.0      5.164      7.391
REMARK  8 active torsions:
REMARK  status: ('A' for Active; 'I' for Inactive)
REMARK    1  A    between atoms: C_5  and  C_6 
REMARK       I    between atoms: C_6  and  N_7 
REMARK    2  A    between atoms: N_7  and  N_8 
REMARK       I    between atoms: N_8  and  C_9 
REMARK    3  A    between atoms: C_9  and  C_10 
REMARK    4  A    between atoms: C_10  and  S_11 
REMARK    5  A    between atoms: S_11  and  C_12 
REMARK    6  A    between atoms: N_13  and  C_14 
REMARK    7  A    between atoms: C_21  and  C_22 
REMARK    8  A    between atoms: C_22  and  N_23 
ROOT
HETATM    1  C   UNL     1      39.974 -12.550   2.885  1.00  0.00     0.196 A 
HETATM    2  N   UNL     1      40.112 -13.315   1.742  1.00  0.00    -0.274 N 
HETATM    3  C   UNL     1      39.669 -12.473   0.719  1.00  0.00     0.166 A 
HETATM    4  N   UNL     1      39.395 -11.287   1.228  1.00  0.00    -0.131 NA
HETATM    5  N   UNL     1      39.578 -11.338   2.576  1.00  0.00    -0.122 NA
ENDROOT
BRANCH   1   6
HETATM    6  S   UNL     1      40.417 -13.035   4.487  1.00  0.00    -0.080 SA
BRANCH   6   7
HETATM    7  C   UNL     1      42.164 -12.546   4.490  1.00  0.00     0.187 C 
BRANCH   7   8
HETATM    8  C   UNL     1      43.034 -13.759   4.210  1.00  0.00     0.245 C 
HETATM    9  N   UNL     1      42.474 -14.946   4.634  1.00  0.00    -0.267 N 
HETATM   10  H   UNL     1      41.578 -15.019   5.120  1.00  0.00     0.190 HD
HETATM   11  O   UNL     1      44.127 -13.692   3.644  1.00  0.00    -0.271 OA
BRANCH   9  12
HETATM   12  N   UNL     1      43.182 -16.146   4.510  1.00  0.00    -0.263 N 
HETATM   13  C   UNL     1      42.528 -17.290   4.935  1.00  0.00     0.270 C 
HETATM   14  O   UNL     1      41.363 -17.240   5.333  1.00  0.00    -0.266 OA
HETATM   15  H   UNL     1      44.169 -16.081   4.287  1.00  0.00     0.190 HD
BRANCH  13  16
HETATM   16  C   UNL     1      43.277 -18.580   4.923  1.00  0.00     0.033 A 
HETATM   17  C   UNL     1      43.911 -19.094   3.786  1.00  0.00     0.017 A 
HETATM   18  C   UNL     1      44.596 -20.314   3.853  1.00  0.00     0.007 A 
HETATM   19  C   UNL     1      44.657 -21.035   5.051  1.00  0.00    -0.062 A 
HETATM   20  C   UNL     1      45.365 -22.355   5.123  1.00  0.00     0.048 C 
HETATM   21  C   UNL     1      44.007 -20.530   6.181  1.00  0.00     0.007 A 
HETATM   22  C   UNL     1      43.326 -19.312   6.118  1.00  0.00     0.017 A 
ENDBRANCH  13  16
ENDBRANCH   9  12
ENDBRANCH   7   8
ENDBRANCH   6   7
ENDBRANCH   1   6
BRANCH   2  23
HETATM   23  C   UNL     1      40.562 -14.653   1.618  1.00  0.00     0.043 A 
HETATM   24  C   UNL     1      41.813 -14.924   1.044  1.00  0.00     0.033 A 
HETATM   25  C   UNL     1      42.262 -16.244   0.951  1.00  0.00     0.044 A 
HETATM   26  C   UNL     1      41.462 -17.277   1.422  1.00  0.00     0.116 A 
HETATM   27  F   UNL     1      41.895 -18.541   1.335  1.00  0.00    -0.206 F 
HETATM   28  C   UNL     1      40.214 -17.020   1.981  1.00  0.00     0.044 A 
HETATM   29  C   UNL     1      39.758 -15.704   2.081  1.00  0.00     0.033 A 
ENDBRANCH   2  23
BRANCH   3  30
HETATM   30  C   UNL     1      39.402 -12.866  -0.706  1.00  0.00     0.255 C 
HETATM   31  C   UNL     1      37.944 -12.625  -1.117  1.00  0.00     0.049 C 
BRANCH  30  32
HETATM   32  N   UNL     1      40.310 -12.173  -1.761  1.00  0.00    -0.060 N 
HETATM   33  H   UNL     1      40.074 -11.175  -1.707  1.00  0.00     0.280 HD
HETATM   34  C   UNL     1      41.805 -12.274  -1.502  1.00  0.00     0.236 C 
HETATM   35  C   UNL     1      42.538 -11.357  -2.474  1.00  0.00     0.028 C 
HETATM   36  C   UNL     1      42.208 -11.697  -3.924  1.00  0.00     0.003 C 
HETATM   37  C   UNL     1      40.702 -11.701  -4.161  1.00  0.00     0.028 C 
HETATM   38  C   UNL     1      39.977 -12.610  -3.175  1.00  0.00     0.236 C 
ENDBRANCH  30  32
ENDBRANCH   3  30
TORSDOF 8
ENDMDL
MODEL 5
REMARK VINA RESULT:      -8.9      2.417      4.833
REMARK  8 active torsions:
REMARK  status: ('A' for Active; 'I' for Inactive)
REMARK    1  A    between atoms: C_5  and  C_6 
REMARK       I    between atoms: C_6  and  N_7 
REMARK    2  A    between atoms: N_7  and  N_8 
REMARK       I    between atoms: N_8  and  C_9 
REMARK    3  A    between atoms: C_9  and  C_10 
REMARK    4  A    between atoms: C_10  and  S_11 
REMARK    5  A    between atoms: S_11  and  C_12 
REMARK    6  A    between atoms: N_13  and  C_14 
REMARK    7  A    between atoms: C_21  and  C_22 
REMARK    8  A    between atoms: C_22  and  N_23 
ROOT
HETATM    1  C   UNL     1      42.576 -13.805   4.846  1.00  0.00     0.196 A 
HETATM    2  N   UNL     1      42.215 -14.778   3.932  1.00  0.00    -0.274 N 
HETATM    3  C   UNL     1      42.936 -15.903   4.337  1.00  0.00     0.166 A 
HETATM    4  N   UNL     1      43.578 -15.622   5.455  1.00  0.00    -0.131 NA
HETATM    5  N   UNL     1      43.360 -14.315   5.766  1.00  0.00    -0.122 NA
ENDROOT
BRANCH   1   6
HETATM    6  S   UNL     1      41.963 -12.188   4.898  1.00  0.00    -0.080 SA
BRANCH   6   7
HETATM    7  C   UNL     1      40.254 -12.517   5.414  1.00  0.00     0.187 C 
BRANCH   7   8
HETATM    8  C   UNL     1      40.066 -12.091   6.859  1.00  0.00     0.245 C 
HETATM    9  N   UNL     1      41.158 -11.431   7.383  1.00  0.00    -0.267 N 
HETATM   10  H   UNL     1      42.029 -11.265   6.876  1.00  0.00     0.190 HD
HETATM   11  O   UNL     1      39.032 -12.298   7.497  1.00  0.00    -0.271 OA
BRANCH   9  12
HETATM   12  N   UNL     1      41.167 -11.034   8.724  1.00  0.00    -0.263 N 
HETATM   13  C   UNL     1      42.411 -10.923   9.323  1.00  0.00     0.270 C 
HETATM   14  O   UNL     1      43.441 -11.102   8.673  1.00  0.00    -0.266 OA
HETATM   15  H   UNL     1      40.277 -11.024   9.211  1.00  0.00     0.190 HD
BRANCH  13  16
HETATM   16  C   UNL     1      42.471 -10.606  10.779  1.00  0.00     0.033 A 
HETATM   17  C   UNL     1      43.526  -9.905  11.373  1.00  0.00     0.017 A 
HETATM   18  C   UNL     1      43.512  -9.645  12.750  1.00  0.00     0.007 A 
HETATM   19  C   UNL     1      42.448 -10.080  13.549  1.00  0.00    -0.062 A 
HETATM   20  C   UNL     1      42.440  -9.830  15.028  1.00  0.00     0.048 C 
HETATM   21  C   UNL     1      41.404 -10.797  12.957  1.00  0.00     0.007 A 
HETATM   22  C   UNL     1      41.414 -11.055  11.584  1.00  0.00     0.017 A 
ENDBRANCH  13  16
ENDBRANCH   9  12
ENDBRANCH   7   8
ENDBRANCH   6   7
ENDBRANCH   1   6
BRANCH   2  23
HETATM   23  C   UNL     1      41.348 -14.670   2.817  1.00  0.00     0.043 A 
HETATM   24  C   UNL     1      40.037 -15.163   2.895  1.00  0.00     0.033 A 
HETATM   25  C   UNL     1      39.179 -15.027   1.802  1.00  0.00     0.044 A 
HETATM   26  C   UNL     1      39.633 -14.411   0.642  1.00  0.00     0.116 A 
HETATM   27  F   UNL     1      38.808 -14.280  -0.404  1.00  0.00    -0.206 F 
HETATM   28  C   UNL     1      40.935 -13.930   0.550  1.00  0.00     0.044 A 
HETATM   29  C   UNL     1      41.801 -14.059   1.639  1.00  0.00     0.033 A 
ENDBRANCH   2  23
BRANCH   3  30
HETATM   30  C   UNL     1      43.087 -17.188   3.573  1.00  0.00     0.255 C 
HETATM   31  C   UNL     1      43.827 -16.995   2.244  1.00  0.00     0.049 C 
BRANCH  30  32
HETATM   32  N   UNL     1      43.798 -18.335   4.346  1.00  0.00    -0.060 N 
HETATM   33  H   UNL     1      44.680 -17.928   4.681  1.00  0.00     0.280 HD
HETATM   34  C   UNL     1      43.066 -18.842   5.578  1.00  0.00     0.236 C 
HETATM   35  C   UNL     1      43.987 -19.781   6.349  1.00  0.00     0.028 C 
HETATM   36  C   UNL     1      44.466 -20.938   5.479  1.00  0.00     0.003 C 
HETATM   37  C   UNL     1      45.106 -20.432   4.191  1.00  0.00     0.028 C 
HETATM   38  C   UNL     1      44.182 -19.484   3.435  1.00  0.00     0.236 C 
ENDBRANCH  30  32
ENDBRANCH   3  30
TORSDOF 8
ENDMDL
MODEL 6
REMARK VINA RESULT:      -8.9      4.861      8.884
REMARK  8 active torsions:
REMARK  status: ('A' for Active; 'I' for Inactive)
REMARK    1  A    between atoms: C_5  and  C_6 
REMARK       I    between atoms: C_6  and  N_7 
REMARK    2  A    between atoms: N_7  and  N_8 
REMARK       I    between atoms: N_8  and  C_9 
REMARK    3  A    between atoms: C_9  and  C_10 
REMARK    4  A    between atoms: C_10  and  S_11 
REMARK    5  A    between atoms: S_11  and  C_12 
REMARK    6  A    between atoms: N_13  and  C_14 
REMARK    7  A    between atoms: C_21  and  C_22 
REMARK    8  A    between atoms: C_22  and  N_23 
ROOT
HETATM    1  C   UNL     1      41.515 -16.336   5.820  1.00  0.00     0.196 A 
HETATM    2  N   UNL     1      42.245 -16.888   4.784  1.00  0.00    -0.274 N 
HETATM    3  C   UNL     1      43.201 -17.676   5.430  1.00  0.00     0.166 A 
HETATM    4  N   UNL     1      42.969 -17.653   6.729  1.00  0.00    -0.131 NA
HETATM    5  N   UNL     1      41.926 -16.813   6.971  1.00  0.00    -0.122 NA
ENDROOT
BRANCH   1   6
HETATM    6  S   UNL     1      40.141 -15.297   5.648  1.00  0.00    -0.080 SA
BRANCH   6   7
HETATM    7  C   UNL     1      40.926 -13.688   5.942  1.00  0.00     0.187 C 
BRANCH   7   8
HETATM    8  C   UNL     1      41.527 -13.169   4.647  1.00  0.00     0.245 C 
HETATM    9  N   UNL     1      40.612 -13.063   3.621  1.00  0.00    -0.267 N 
HETATM   10  H   UNL     1      39.629 -13.333   3.695  1.00  0.00     0.190 HD
HETATM   11  O   UNL     1      42.714 -12.856   4.530  1.00  0.00    -0.271 OA
BRANCH   9  12
HETATM   12  N   UNL     1      41.024 -12.664   2.345  1.00  0.00    -0.263 N 
HETATM   13  C   UNL     1      40.298 -13.171   1.280  1.00  0.00     0.270 C 
HETATM   14  O   UNL     1      39.307 -13.877   1.472  1.00  0.00    -0.266 OA
HETATM   15  H   UNL     1      41.913 -12.183   2.275  1.00  0.00     0.190 HD
BRANCH  13  16
HETATM   16  C   UNL     1      40.761 -12.862  -0.103  1.00  0.00     0.033 A 
HETATM   17  C   UNL     1      39.984 -13.090  -1.246  1.00  0.00     0.017 A 
HETATM   18  C   UNL     1      40.488 -12.773  -2.513  1.00  0.00     0.007 A 
HETATM   19  C   UNL     1      41.769 -12.227  -2.658  1.00  0.00    -0.062 A 
HETATM   20  C   UNL     1      42.326 -11.913  -4.015  1.00  0.00     0.048 C 
HETATM   21  C   UNL     1      42.551 -12.018  -1.518  1.00  0.00     0.007 A 
HETATM   22  C   UNL     1      42.050 -12.330  -0.252  1.00  0.00     0.017 A 
ENDBRANCH  13  16
ENDBRANCH   9  12
ENDBRANCH   7   8
ENDBRANCH   6   7
ENDBRANCH   1   6
BRANCH   2  23
HETATM   23  C   UNL     1      42.098 -16.689   3.389  1.00  0.00     0.043 A 
HETATM   24  C   UNL     1      43.015 -15.890   2.691  1.00  0.00     0.033 A 
HETATM   25  C   UNL     1      42.879 -15.723   1.311  1.00  0.00     0.044 A 
HETATM   26  C   UNL     1      41.830 -16.343   0.642  1.00  0.00     0.116 A 
HETATM   27  F   UNL     1      41.703 -16.183  -0.680  1.00  0.00    -0.206 F 
HETATM   28  C   UNL     1      40.908 -17.127   1.328  1.00  0.00     0.044 A 
HETATM   29  C   UNL     1      41.037 -17.303   2.707  1.00  0.00     0.033 A 
ENDBRANCH   2  23
BRANCH   3  30
HETATM   30  C   UNL     1      44.391 -18.335   4.793  1.00  0.00     0.255 C 
HETATM   31  C   UNL     1      45.489 -18.670   5.810  1.00  0.00     0.049 C 
BRANCH  30  32
HETATM   32  N   UNL     1      44.077 -19.632   3.995  1.00  0.00    -0.060 N 
HETATM   33  H   UNL     1      43.130 -19.904   4.284  1.00  0.00     0.280 HD
HETATM   34  C   UNL     1      44.033 -19.473   2.483  1.00  0.00     0.236 C 
HETATM   35  C   UNL     1      43.486 -20.755   1.866  1.00  0.00     0.028 C 
HETATM   36  C   UNL     1      44.317 -21.969   2.267  1.00  0.00     0.003 C 
HETATM   37  C   UNL     1      44.452 -22.071   3.782  1.00  0.00     0.028 C 
HETATM   38  C   UNL     1      44.987 -20.780   4.390  1.00  0.00     0.236 C 
ENDBRANCH  30  32
ENDBRANCH   3  30
TORSDOF 8
ENDMDL
MODEL 7
REMARK VINA RESULT:      -8.8      2.787      4.681
REMARK  8 active torsions:
REMARK  status: ('A' for Active; 'I' for Inactive)
REMARK    1  A    between atoms: C_5  and  C_6 
REMARK       I    between atoms: C_6  and  N_7 
REMARK    2  A    between atoms: N_7  and  N_8 
REMARK       I    between atoms: N_8  and  C_9 
REMARK    3  A    between atoms: C_9  and  C_10 
REMARK    4  A    between atoms: C_10  and  S_11 
REMARK    5  A    between atoms: S_11  and  C_12 
REMARK    6  A    between atoms: N_13  and  C_14 
REMARK    7  A    between atoms: C_21  and  C_22 
REMARK    8  A    between atoms: C_22  and  N_23 
ROOT
HETATM    1  C   UNL     1      40.301 -14.509   5.054  1.00  0.00     0.196 A 
HETATM    2  N   UNL     1      40.610 -14.817   3.742  1.00  0.00    -0.274 N 
HETATM    3  C   UNL     1      41.498 -15.890   3.850  1.00  0.00     0.166 A 
HETATM    4  N   UNL     1      41.606 -16.231   5.121  1.00  0.00    -0.131 NA
HETATM    5  N   UNL     1      40.868 -15.366   5.869  1.00  0.00    -0.122 NA
ENDROOT
BRANCH   1   6
HETATM    6  S   UNL     1      39.191 -13.285   5.571  1.00  0.00    -0.080 SA
BRANCH   6   7
HETATM    7  C   UNL     1      40.353 -11.930   5.903  1.00  0.00     0.187 C 
BRANCH   7   8
HETATM    8  C   UNL     1      40.129 -11.398   7.308  1.00  0.00     0.245 C 
HETATM    9  N   UNL     1      41.269 -11.404   8.085  1.00  0.00    -0.267 N 
HETATM   10  H   UNL     1      42.176 -11.758   7.775  1.00  0.00     0.190 HD
HETATM   11  O   UNL     1      39.040 -10.986   7.710  1.00  0.00    -0.271 OA
BRANCH   9  12
HETATM   12  N   UNL     1      41.213 -11.009   9.425  1.00  0.00    -0.263 N 
HETATM   13  C   UNL     1      42.416 -10.655  10.011  1.00  0.00     0.270 C 
HETATM   14  O   UNL     1      43.456 -10.632   9.352  1.00  0.00    -0.266 OA
HETATM   15  H   UNL     1      40.343 -11.171   9.920  1.00  0.00     0.190 HD
BRANCH  13  16
HETATM   16  C   UNL     1      42.427 -10.329  11.467  1.00  0.00     0.033 A 
HETATM   17  C   UNL     1      43.521  -9.750  12.120  1.00  0.00     0.017 A 
HETATM   18  C   UNL     1      43.456  -9.472  13.491  1.00  0.00     0.007 A 
HETATM   19  C   UNL     1      42.302  -9.766  14.226  1.00  0.00    -0.062 A 
HETATM   20  C   UNL     1      42.235  -9.498  15.701  1.00  0.00     0.048 C 
HETATM   21  C   UNL     1      41.217 -10.362  13.577  1.00  0.00     0.007 A 
HETATM   22  C   UNL     1      41.278 -10.638  12.209  1.00  0.00     0.017 A 
ENDBRANCH  13  16
ENDBRANCH   9  12
ENDBRANCH   7   8
ENDBRANCH   6   7
ENDBRANCH   1   6
BRANCH   2  23
HETATM   23  C   UNL     1      40.168 -14.185   2.554  1.00  0.00     0.043 A 
HETATM   24  C   UNL     1      40.811 -13.027   2.092  1.00  0.00     0.033 A 
HETATM   25  C   UNL     1      40.388 -12.426   0.904  1.00  0.00     0.044 A 
HETATM   26  C   UNL     1      39.328 -12.976   0.194  1.00  0.00     0.116 A 
HETATM   27  F   UNL     1      38.925 -12.400  -0.945  1.00  0.00    -0.206 F 
HETATM   28  C   UNL     1      38.675 -14.116   0.651  1.00  0.00     0.044 A 
HETATM   29  C   UNL     1      39.092 -14.727   1.836  1.00  0.00     0.033 A 
ENDBRANCH   2  23
BRANCH   3  30
HETATM   30  C   UNL     1      42.316 -16.485   2.740  1.00  0.00     0.255 C 
HETATM   31  C   UNL     1      43.561 -15.649   2.417  1.00  0.00     0.049 C 
BRANCH  30  32
HETATM   32  N   UNL     1      42.781 -17.950   2.976  1.00  0.00    -0.060 N 
HETATM   33  H   UNL     1      42.001 -18.405   3.466  1.00  0.00     0.280 HD
HETATM   34  C   UNL     1      43.029 -18.766   1.717  1.00  0.00     0.236 C 
HETATM   35  C   UNL     1      43.241 -20.224   2.107  1.00  0.00     0.028 C 
HETATM   36  C   UNL     1      44.390 -20.379   3.097  1.00  0.00     0.003 C 
HETATM   37  C   UNL     1      44.197 -19.480   4.313  1.00  0.00     0.028 C 
HETATM   38  C   UNL     1      43.972 -18.027   3.912  1.00  0.00     0.236 C 
ENDBRANCH  30  32
ENDBRANCH   3  30
TORSDOF 8
ENDMDL
MODEL 8
REMARK VINA RESULT:      -8.6      5.046      8.041
REMARK  8 active torsions:
REMARK  status: ('A' for Active; 'I' for Inactive)
REMARK    1  A    between atoms: C_5  and  C_6 
REMARK       I    between atoms: C_6  and  N_7 
REMARK    2  A    between atoms: N_7  and  N_8 
REMARK       I    between atoms: N_8  and  C_9 
REMARK    3  A    between atoms: C_9  and  C_10 
REMARK    4  A    between atoms: C_10  and  S_11 
REMARK    5  A    between atoms: S_11  and  C_12 
REMARK    6  A    between atoms: N_13  and  C_14 
REMARK    7  A    between atoms: C_21  and  C_22 
REMARK    8  A    between atoms: C_22  and  N_23 
ROOT
HETATM    1  C   UNL     1      39.562 -12.432   4.344  1.00  0.00     0.196 A 
HETATM    2  N   UNL     1      39.392 -12.756   3.011  1.00  0.00    -0.274 N 
HETATM    3  C   UNL     1      38.513 -11.778   2.538  1.00  0.00     0.166 A 
HETATM    4  N   UNL     1      38.281 -10.907   3.502  1.00  0.00    -0.131 NA
HETATM    5  N   UNL     1      38.928 -11.320   4.627  1.00  0.00    -0.122 NA
ENDROOT
BRANCH   1   6
HETATM    6  S   UNL     1      40.596 -13.257   5.461  1.00  0.00    -0.080 SA
BRANCH   6   7
HETATM    7  C   UNL     1      42.210 -12.636   4.911  1.00  0.00     0.187 C 
BRANCH   7   8
HETATM    8  C   UNL     1      42.964 -13.742   4.192  1.00  0.00     0.245 C 
HETATM    9  N   UNL     1      42.415 -14.993   4.381  1.00  0.00    -0.267 N 
HETATM   10  H   UNL     1      41.601 -15.183   4.969  1.00  0.00     0.190 HD
HETATM   11  O   UNL     1      43.959 -13.539   3.493  1.00  0.00    -0.271 OA
BRANCH   9  12
HETATM   12  N   UNL     1      43.033 -16.125   3.839  1.00  0.00    -0.263 N 
HETATM   13  C   UNL     1      42.427 -17.341   4.107  1.00  0.00     0.270 C 
HETATM   14  O   UNL     1      41.367 -17.394   4.731  1.00  0.00    -0.266 OA
HETATM   15  H   UNL     1      43.958 -16.003   3.444  1.00  0.00     0.190 HD
BRANCH  13  16
HETATM   16  C   UNL     1      43.104 -18.587   3.643  1.00  0.00     0.033 A 
HETATM   17  C   UNL     1      44.033 -19.294   4.415  1.00  0.00     0.017 A 
HETATM   18  C   UNL     1      44.627 -20.457   3.910  1.00  0.00     0.007 A 
HETATM   19  C   UNL     1      44.304 -20.929   2.632  1.00  0.00    -0.062 A 
HETATM   20  C   UNL     1      44.958 -22.158   2.074  1.00  0.00     0.048 C 
HETATM   21  C   UNL     1      43.390 -20.211   1.854  1.00  0.00     0.007 A 
HETATM   22  C   UNL     1      42.794 -19.052   2.356  1.00  0.00     0.017 A 
ENDBRANCH  13  16
ENDBRANCH   9  12
ENDBRANCH   7   8
ENDBRANCH   6   7
ENDBRANCH   1   6
BRANCH   2  23
HETATM   23  C   UNL     1      39.942 -13.839   2.283  1.00  0.00     0.043 A 
HETATM   24  C   UNL     1      39.424 -15.132   2.445  1.00  0.00     0.033 A 
HETATM   25  C   UNL     1      39.953 -16.190   1.702  1.00  0.00     0.044 A 
HETATM   26  C   UNL     1      40.996 -15.954   0.815  1.00  0.00     0.116 A 
HETATM   27  F   UNL     1      41.500 -16.969   0.102  1.00  0.00    -0.206 F 
HETATM   28  C   UNL     1      41.526 -14.678   0.656  1.00  0.00     0.044 A 
HETATM   29  C   UNL     1      41.001 -13.613   1.392  1.00  0.00     0.033 A 
ENDBRANCH   2  23
BRANCH   3  30
HETATM   30  C   UNL     1      37.820 -11.772   1.205  1.00  0.00     0.255 C 
HETATM   31  C   UNL     1      36.503 -10.988   1.234  1.00  0.00     0.049 C 
BRANCH  30  32
HETATM   32  N   UNL     1      38.670 -11.224   0.023  1.00  0.00    -0.060 N 
HETATM   33  H   UNL     1      39.596 -11.033   0.423  1.00  0.00     0.280 HD
HETATM   34  C   UNL     1      38.890 -12.194  -1.126  1.00  0.00     0.236 C 
HETATM   35  C   UNL     1      39.923 -11.605  -2.080  1.00  0.00     0.028 C 
HETATM   36  C   UNL     1      39.495 -10.234  -2.593  1.00  0.00     0.003 C 
HETATM   37  C   UNL     1      39.169  -9.290  -1.441  1.00  0.00     0.028 C 
HETATM   38  C   UNL     1      38.146  -9.895  -0.486  1.00  0.00     0.236 C 
ENDBRANCH  30  32
ENDBRANCH   3  30
TORSDOF 8
ENDMDL
MODEL 9
REMARK VINA RESULT:      -8.6      2.042      2.945
REMARK  8 active torsions:
REMARK  status: ('A' for Active; 'I' for Inactive)
REMARK    1  A    between atoms: C_5  and  C_6 
REMARK       I    between atoms: C_6  and  N_7 
REMARK    2  A    between atoms: N_7  and  N_8 
REMARK       I    between atoms: N_8  and  C_9 
REMARK    3  A    between atoms: C_9  and  C_10 
REMARK    4  A    between atoms: C_10  and  S_11 
REMARK    5  A    between atoms: S_11  and  C_12 
REMARK    6  A    between atoms: N_13  and  C_14 
REMARK    7  A    between atoms: C_21  and  C_22 
REMARK    8  A    between atoms: C_22  and  N_23 
ROOT
HETATM    1  C   UNL     1      40.332 -13.722   3.567  1.00  0.00     0.196 A 
HETATM    2  N   UNL     1      40.462 -14.428   2.386  1.00  0.00    -0.274 N 
HETATM    3  C   UNL     1      39.565 -13.800   1.519  1.00  0.00     0.166 A 
HETATM    4  N   UNL     1      39.040 -12.754   2.129  1.00  0.00    -0.131 NA
HETATM    5  N   UNL     1      39.511 -12.712   3.405  1.00  0.00    -0.122 NA
ENDROOT
BRANCH   1   6
HETATM    6  S   UNL     1      41.236 -13.999   5.017  1.00  0.00    -0.080 SA
BRANCH   6   7
HETATM    7  C   UNL     1      41.835 -12.316   5.338  1.00  0.00     0.187 C 
BRANCH   7   8
HETATM    8  C   UNL     1      41.342 -11.850   6.697  1.00  0.00     0.245 C 
HETATM    9  N   UNL     1      42.354 -11.672   7.617  1.00  0.00    -0.267 N 
HETATM   10  H   UNL     1      43.341 -11.861   7.432  1.00  0.00     0.190 HD
HETATM   11  O   UNL     1      40.155 -11.635   6.949  1.00  0.00    -0.271 OA
BRANCH   9  12
HETATM   12  N   UNL     1      42.056 -11.310   8.934  1.00  0.00    -0.263 N 
HETATM   13  C   UNL     1      43.117 -10.859   9.702  1.00  0.00     0.270 C 
HETATM   14  O   UNL     1      44.239 -10.728   9.211  1.00  0.00    -0.266 OA
HETATM   15  H   UNL     1      41.139 -11.561   9.288  1.00  0.00     0.190 HD
BRANCH  13  16
HETATM   16  C   UNL     1      42.873 -10.562  11.143  1.00  0.00     0.033 A 
HETATM   17  C   UNL     1      43.774  -9.856  11.949  1.00  0.00     0.017 A 
HETATM   18  C   UNL     1      43.475  -9.615  13.295  1.00  0.00     0.007 A 
HETATM   19  C   UNL     1      42.277 -10.074  13.855  1.00  0.00    -0.062 A 
HETATM   20  C   UNL     1      41.962  -9.844  15.304  1.00  0.00     0.048 C 
HETATM   21  C   UNL     1      41.386 -10.795  13.054  1.00  0.00     0.007 A 
HETATM   22  C   UNL     1      41.681 -11.035  11.710  1.00  0.00     0.017 A 
ENDBRANCH  13  16
ENDBRANCH   9  12
ENDBRANCH   7   8
ENDBRANCH   6   7
ENDBRANCH   1   6
BRANCH   2  23
HETATM   23  C   UNL     1      41.281 -15.550   2.108  1.00  0.00     0.043 A 
HETATM   24  C   UNL     1      40.718 -16.832   2.032  1.00  0.00     0.033 A 
HETATM   25  C   UNL     1      41.528 -17.929   1.729  1.00  0.00     0.044 A 
HETATM   26  C   UNL     1      42.887 -17.742   1.514  1.00  0.00     0.116 A 
HETATM   27  F   UNL     1      43.662 -18.794   1.221  1.00  0.00    -0.206 F 
HETATM   28  C   UNL     1      43.459 -16.476   1.600  1.00  0.00     0.044 A 
HETATM   29  C   UNL     1      42.657 -15.373   1.899  1.00  0.00     0.033 A 
ENDBRANCH   2  23
BRANCH   3  30
HETATM   30  C   UNL     1      39.143 -14.291   0.164  1.00  0.00     0.255 C 
HETATM   31  C   UNL     1      37.887 -13.578  -0.353  1.00  0.00     0.049 C 
BRANCH  30  32
HETATM   32  N   UNL     1      40.231 -14.190  -0.943  1.00  0.00    -0.060 N 
HETATM   33  H   UNL     1      40.851 -14.994  -0.785  1.00  0.00     0.280 HD
HETATM   34  C   UNL     1      39.723 -14.315  -2.370  1.00  0.00     0.236 C 
HETATM   35  C   UNL     1      40.916 -14.435  -3.311  1.00  0.00     0.028 C 
HETATM   36  C   UNL     1      41.865 -13.251  -3.168  1.00  0.00     0.003 C 
HETATM   37  C   UNL     1      42.293 -13.058  -1.717  1.00  0.00     0.028 C 
HETATM   38  C   UNL     1      41.093 -12.953  -0.783  1.00  0.00     0.236 C 
ENDBRANCH  30  32
ENDBRANCH   3  30
TORSDOF 8
ENDMDL
MODEL 10
REMARK VINA RESULT:      -8.5      6.265      9.042
REMARK  8 active torsions:
REMARK  status: ('A' for Active; 'I' for Inactive)
REMARK    1  A    between atoms: C_5  and  C_6 
REMARK       I    between atoms: C_6  and  N_7 
REMARK    2  A    between atoms: N_7  and  N_8 
REMARK       I    between atoms: N_8  and  C_9 
REMARK    3  A    between atoms: C_9  and  C_10 
REMARK    4  A    between atoms: C_10  and  S_11 
REMARK    5  A    between atoms: S_11  and  C_12 
REMARK    6  A    between atoms: N_13  and  C_14 
REMARK    7  A    between atoms: C_21  and  C_22 
REMARK    8  A    between atoms: C_22  and  N_23 
ROOT
HETATM    1  C   UNL     1      41.209 -12.374   2.284  1.00  0.00     0.196 A 
HETATM    2  N   UNL     1      40.498 -12.353   1.099  1.00  0.00    -0.274 N 
HETATM    3  C   UNL     1      41.445 -12.704   0.134  1.00  0.00     0.166 A 
HETATM    4  N   UNL     1      42.581 -13.001   0.736  1.00  0.00    -0.131 NA
HETATM    5  N   UNL     1      42.435 -12.787   2.072  1.00  0.00    -0.122 NA
ENDROOT
BRANCH   1   6
HETATM    6  S   UNL     1      40.558 -12.073   3.860  1.00  0.00    -0.080 SA
BRANCH   6   7
HETATM    7  C   UNL     1      39.597 -13.594   4.098  1.00  0.00     0.187 C 
BRANCH   7   8
HETATM    8  C   UNL     1      40.536 -14.748   4.406  1.00  0.00     0.245 C 
HETATM    9  N   UNL     1      40.369 -15.830   3.568  1.00  0.00    -0.267 N 
HETATM   10  H   UNL     1      39.667 -15.883   2.828  1.00  0.00     0.190 HD
HETATM   11  O   UNL     1      41.376 -14.713   5.307  1.00  0.00    -0.271 OA
BRANCH   9  12
HETATM   12  N   UNL     1      41.112 -16.998   3.766  1.00  0.00    -0.263 N 
HETATM   13  C   UNL     1      42.116 -17.251   2.846  1.00  0.00     0.270 C 
HETATM   14  O   UNL     1      42.367 -16.444   1.951  1.00  0.00    -0.266 OA
HETATM   15  H   UNL     1      40.763 -17.659   4.452  1.00  0.00     0.190 HD
BRANCH  13  16
HETATM   16  C   UNL     1      42.867 -18.535   2.951  1.00  0.00     0.033 A 
HETATM   17  C   UNL     1      43.602 -18.909   4.082  1.00  0.00     0.017 A 
HETATM   18  C   UNL     1      44.282 -20.133   4.106  1.00  0.00     0.007 A 
HETATM   19  C   UNL     1      44.238 -20.998   3.006  1.00  0.00    -0.062 A 
HETATM   20  C   UNL     1      44.987 -22.297   3.013  1.00  0.00     0.048 C 
HETATM   21  C   UNL     1      43.519 -20.614   1.869  1.00  0.00     0.007 A 
HETATM   22  C   UNL     1      42.838 -19.395   1.843  1.00  0.00     0.017 A 
ENDBRANCH  13  16
ENDBRANCH   9  12
ENDBRANCH   7   8
ENDBRANCH   6   7
ENDBRANCH   1   6
BRANCH   2  23
HETATM   23  C   UNL     1      39.137 -12.022   0.886  1.00  0.00     0.043 A 
HETATM   24  C   UNL     1      38.177 -13.037   0.764  1.00  0.00     0.033 A 
HETATM   25  C   UNL     1      36.833 -12.702   0.583  1.00  0.00     0.044 A 
HETATM   26  C   UNL     1      36.459 -11.366   0.516  1.00  0.00     0.116 A 
HETATM   27  F   UNL     1      35.171 -11.047   0.344  1.00  0.00    -0.206 F 
HETATM   28  C   UNL     1      37.406 -10.352   0.622  1.00  0.00     0.044 A 
HETATM   29  C   UNL     1      38.752 -10.676   0.807  1.00  0.00     0.033 A 
ENDBRANCH   2  23
BRANCH   3  30
HETATM   30  C   UNL     1      41.269 -12.629  -1.356  1.00  0.00     0.255 C 
HETATM   31  C   UNL     1      42.608 -12.585  -2.102  1.00  0.00     0.049 C 
BRANCH  30  32
HETATM   32  N   UNL     1      40.420 -13.774  -1.978  1.00  0.00    -0.060 N 
HETATM   33  H   UNL     1      40.084 -14.325  -1.179  1.00  0.00     0.280 HD
HETATM   34  C   UNL     1      39.184 -13.328  -2.742  1.00  0.00     0.236 C 
HETATM   35  C   UNL     1      38.342 -14.553  -3.079  1.00  0.00     0.028 C 
HETATM   36  C   UNL     1      39.139 -15.579  -3.877  1.00  0.00     0.003 C 
HETATM   37  C   UNL     1      40.434 -15.949  -3.163  1.00  0.00     0.028 C 
HETATM   38  C   UNL     1      41.262 -14.716  -2.817  1.00  0.00     0.236 C 
ENDBRANCH  30  32
ENDBRANCH   3  30
TORSDOF 8
ENDMDL
