MODEL 1
REMARK VINA RESULT:      -8.7      0.000      0.000
REMARK  4 active torsions:
REMARK  status: ('A' for Active; 'I' for Inactive)
REMARK    1  A    between atoms: C_2  and  C_3 
REMARK       I    between atoms: N_10  and  C_11 
REMARK    2  A    between atoms: C_11  and  C_12 
REMARK    3  A    between atoms: C_16  and  C_17 
REMARK    4  A    between atoms: C_18  and  O_19 
ROOT
HETATM    1  C   UNL     1      43.103 -13.591   5.799  1.00  0.00     0.068 A 
HETATM    2  N   UNL     1      42.478 -12.734   6.622  1.00  0.00    -0.178 NA
HETATM    3  N   UNL     1      41.406 -12.314   5.925  1.00  0.00    -0.281 N 
HETATM    4  H   UNL     1      40.767 -11.663   6.370  1.00  0.00     0.189 HD
HETATM    5  C   UNL     1      41.325 -12.887   4.697  1.00  0.00     0.039 A 
HETATM    6  C   UNL     1      42.428 -13.695   4.559  1.00  0.00     0.011 A 
HETATM    7  C   UNL     1      42.709 -14.504   3.347  1.00  0.00     0.169 C 
HETATM    8  N   UNL     1      41.475 -14.649   2.543  1.00  0.00    -0.342 N 
HETATM    9  C   UNL     1      41.393 -15.586   1.501  1.00  0.00     0.272 C 
HETATM   10  O   UNL     1      40.675 -15.387   0.522  1.00  0.00    -0.266 OA
HETATM   11  C   UNL     1      40.667 -13.415   2.380  1.00  0.00     0.132 C 
HETATM   12  C   UNL     1      40.229 -12.764   3.713  1.00  0.00     0.079 C 
ENDROOT
BRANCH   9  13
HETATM   13  C   UNL     1      42.201 -16.780   1.554  1.00  0.00     0.120 C 
HETATM   14  N   UNL     1      43.237 -16.975   0.684  1.00  0.00    -0.272 N 
HETATM   15  H   UNL     1      43.517 -16.357  -0.073  1.00  0.00     0.189 HD
HETATM   16  N   UNL     1      43.970 -18.072   0.939  1.00  0.00    -0.174 NA
HETATM   17  C   UNL     1      43.332 -18.671   1.961  1.00  0.00     0.092 C 
HETATM   18  C   UNL     1      42.157 -17.943   2.294  1.00  0.00     0.071 C 
BRANCH  17  19
HETATM   19  C   UNL     1      43.869 -19.884   2.594  1.00  0.00     0.028 A 
HETATM   20  C   UNL     1      44.337 -19.885   3.921  1.00  0.00     0.078 A 
HETATM   21  C   UNL     1      44.807 -21.052   4.525  1.00  0.00     0.037 A 
HETATM   22  C   UNL     1      44.808 -22.249   3.814  1.00  0.00     0.003 A 
HETATM   23  C   UNL     1      44.346 -22.276   2.500  1.00  0.00     0.001 A 
HETATM   24  C   UNL     1      43.883 -21.103   1.894  1.00  0.00     0.017 A 
BRANCH  20  25
HETATM   25  O   UNL     1      44.347 -18.758   4.703  1.00  0.00    -0.360 OA
HETATM   26  H   UNL     1      43.456 -18.708   5.120  1.00  0.00     0.217 HD
ENDBRANCH  20  25
ENDBRANCH  17  19
ENDBRANCH   9  13
BRANCH   1  27
HETATM   27  C   UNL     1      44.319 -14.357   6.249  1.00  0.00     0.032 C 
HETATM   28  C   UNL     1      43.938 -15.778   6.674  1.00  0.00     0.016 C 
HETATM   29  C   UNL     1      45.092 -13.651   7.364  1.00  0.00     0.016 C 
ENDBRANCH   1  27
TORSDOF 4
ENDMDL
MODEL 2
REMARK VINA RESULT:      -8.7      2.782      7.076
REMARK  4 active torsions:
REMARK  status: ('A' for Active; 'I' for Inactive)
REMARK    1  A    between atoms: C_2  and  C_3 
REMARK       I    between atoms: N_10  and  C_11 
REMARK    2  A    between atoms: C_11  and  C_12 
REMARK    3  A    between atoms: C_16  and  C_17 
REMARK    4  A    between atoms: C_18  and  O_19 
ROOT
HETATM    1  C   UNL     1      44.491 -20.582   4.109  1.00  0.00     0.068 A 
HETATM    2  N   UNL     1      44.368 -21.790   4.682  1.00  0.00    -0.178 NA
HETATM    3  N   UNL     1      44.182 -21.530   5.989  1.00  0.00    -0.281 N 
HETATM    4  H   UNL     1      44.043 -22.311   6.620  1.00  0.00     0.189 HD
HETATM    5  C   UNL     1      44.168 -20.199   6.259  1.00  0.00     0.039 A 
HETATM    6  C   UNL     1      44.403 -19.547   5.072  1.00  0.00     0.011 A 
HETATM    7  C   UNL     1      44.464 -18.071   4.942  1.00  0.00     0.169 C 
HETATM    8  N   UNL     1      43.830 -17.436   6.119  1.00  0.00    -0.342 N 
HETATM    9  C   UNL     1      43.507 -16.071   6.123  1.00  0.00     0.272 C 
HETATM   10  O   UNL     1      43.503 -15.420   7.168  1.00  0.00    -0.266 OA
HETATM   11  C   UNL     1      44.178 -18.031   7.433  1.00  0.00     0.132 C 
HETATM   12  C   UNL     1      43.866 -19.542   7.548  1.00  0.00     0.079 C 
ENDROOT
BRANCH   9  13
HETATM   13  C   UNL     1      43.223 -15.404   4.875  1.00  0.00     0.120 C 
HETATM   14  N   UNL     1      43.890 -14.267   4.510  1.00  0.00    -0.272 N 
HETATM   15  H   UNL     1      44.591 -13.774   5.056  1.00  0.00     0.189 HD
HETATM   16  N   UNL     1      43.604 -13.837   3.269  1.00  0.00    -0.174 NA
HETATM   17  C   UNL     1      42.641 -14.673   2.838  1.00  0.00     0.092 C 
HETATM   18  C   UNL     1      42.304 -15.596   3.865  1.00  0.00     0.071 C 
BRANCH  17  19
HETATM   19  C   UNL     1      42.103 -14.582   1.474  1.00  0.00     0.028 A 
HETATM   20  C   UNL     1      42.038 -13.359   0.780  1.00  0.00     0.078 A 
HETATM   21  C   UNL     1      41.563 -13.291  -0.530  1.00  0.00     0.037 A 
HETATM   22  C   UNL     1      41.152 -14.452  -1.180  1.00  0.00     0.003 A 
HETATM   23  C   UNL     1      41.211 -15.676  -0.518  1.00  0.00     0.001 A 
HETATM   24  C   UNL     1      41.680 -15.740   0.799  1.00  0.00     0.017 A 
BRANCH  20  25
HETATM   25  O   UNL     1      42.447 -12.172   1.333  1.00  0.00    -0.360 OA
HETATM   26  H   UNL     1      43.180 -11.843   0.763  1.00  0.00     0.217 HD
ENDBRANCH  20  25
ENDBRANCH  17  19
ENDBRANCH   9  13
BRANCH   1  27
HETATM   27  C   UNL     1      44.626 -20.437   2.617  1.00  0.00     0.032 C 
HETATM   28  C   UNL     1      43.580 -19.461   2.070  1.00  0.00     0.016 C 
HETATM   29  C   UNL     1      44.552 -21.773   1.877  1.00  0.00     0.016 C 
ENDBRANCH   1  27
TORSDOF 4
ENDMDL
MODEL 3
REMARK VINA RESULT:      -8.6      2.760      7.202
REMARK  4 active torsions:
REMARK  status: ('A' for Active; 'I' for Inactive)
REMARK    1  A    between atoms: C_2  and  C_3 
REMARK       I    between atoms: N_10  and  C_11 
REMARK    2  A    between atoms: C_11  and  C_12 
REMARK    3  A    between atoms: C_16  and  C_17 
REMARK    4  A    between atoms: C_18  and  O_19 
ROOT
HETATM    1  C   UNL     1      44.482 -20.596   4.053  1.00  0.00     0.068 A 
HETATM    2  N   UNL     1      44.665 -21.688   4.813  1.00  0.00    -0.178 NA
HETATM    3  N   UNL     1      44.457 -21.264   6.073  1.00  0.00    -0.281 N 
HETATM    4  H   UNL     1      44.526 -21.940   6.826  1.00  0.00     0.189 HD
HETATM    5  C   UNL     1      44.135 -19.946   6.135  1.00  0.00     0.039 A 
HETATM    6  C   UNL     1      44.175 -19.464   4.848  1.00  0.00     0.011 A 
HETATM    7  C   UNL     1      43.880 -18.056   4.487  1.00  0.00     0.169 C 
HETATM    8  N   UNL     1      43.146 -17.398   5.591  1.00  0.00    -0.342 N 
HETATM    9  C   UNL     1      42.507 -16.162   5.404  1.00  0.00     0.272 C 
HETATM   10  O   UNL     1      42.377 -15.366   6.334  1.00  0.00    -0.266 OA
HETATM   11  C   UNL     1      43.660 -17.670   6.955  1.00  0.00     0.132 C 
HETATM   12  C   UNL     1      43.720 -19.172   7.323  1.00  0.00     0.079 C 
ENDROOT
BRANCH   9  13
HETATM   13  C   UNL     1      42.039 -15.796   4.090  1.00  0.00     0.120 C 
HETATM   14  N   UNL     1      40.758 -16.061   3.693  1.00  0.00    -0.272 N 
HETATM   15  H   UNL     1      40.045 -16.547   4.230  1.00  0.00     0.189 HD
HETATM   16  N   UNL     1      40.437 -15.549   2.492  1.00  0.00    -0.174 NA
HETATM   17  C   UNL     1      41.584 -15.005   2.042  1.00  0.00     0.092 C 
HETATM   18  C   UNL     1      42.632 -15.243   2.973  1.00  0.00     0.071 C 
BRANCH  17  19
HETATM   19  C   UNL     1      41.635 -14.267   0.773  1.00  0.00     0.028 A 
HETATM   20  C   UNL     1      41.297 -14.870  -0.452  1.00  0.00     0.078 A 
HETATM   21  C   UNL     1      41.309 -14.147  -1.646  1.00  0.00     0.037 A 
HETATM   22  C   UNL     1      41.651 -12.797  -1.636  1.00  0.00     0.003 A 
HETATM   23  C   UNL     1      41.985 -12.175  -0.436  1.00  0.00     0.001 A 
HETATM   24  C   UNL     1      41.980 -12.903   0.759  1.00  0.00     0.017 A 
BRANCH  20  25
HETATM   25  O   UNL     1      40.922 -16.186  -0.551  1.00  0.00    -0.360 OA
HETATM   26  H   UNL     1      41.758 -16.708  -0.551  1.00  0.00     0.217 HD
ENDBRANCH  20  25
ENDBRANCH  17  19
ENDBRANCH   9  13
BRANCH   1  27
HETATM   27  C   UNL     1      44.538 -20.673   2.551  1.00  0.00     0.032 C 
HETATM   28  C   UNL     1      43.328 -19.972   1.926  1.00  0.00     0.016 C 
HETATM   29  C   UNL     1      44.655 -22.106   2.030  1.00  0.00     0.016 C 
ENDBRANCH   1  27
TORSDOF 4
ENDMDL
MODEL 4
REMARK VINA RESULT:      -8.4      2.873      8.043
REMARK  4 active torsions:
REMARK  status: ('A' for Active; 'I' for Inactive)
REMARK    1  A    between atoms: C_2  and  C_3 
REMARK       I    between atoms: N_10  and  C_11 
REMARK    2  A    between atoms: C_11  and  C_12 
REMARK    3  A    between atoms: C_16  and  C_17 
REMARK    4  A    between atoms: C_18  and  O_19 
ROOT
HETATM    1  C   UNL     1      43.897 -19.424   2.485  1.00  0.00     0.068 A 
HETATM    2  N   UNL     1      44.199 -20.701   2.201  1.00  0.00    -0.178 NA
HETATM    3  N   UNL     1      44.459 -21.263   3.395  1.00  0.00    -0.281 N 
HETATM    4  H   UNL     1      44.695 -22.249   3.422  1.00  0.00     0.189 HD
HETATM    5  C   UNL     1      44.318 -20.390   4.425  1.00  0.00     0.039 A 
HETATM    6  C   UNL     1      43.989 -19.174   3.876  1.00  0.00     0.011 A 
HETATM    7  C   UNL     1      43.745 -17.948   4.676  1.00  0.00     0.169 C 
HETATM    8  N   UNL     1      43.485 -18.312   6.086  1.00  0.00    -0.342 N 
HETATM    9  C   UNL     1      42.957 -17.380   6.992  1.00  0.00     0.272 C 
HETATM   10  O   UNL     1      43.223 -17.438   8.193  1.00  0.00    -0.266 OA
HETATM   11  C   UNL     1      44.383 -19.346   6.658  1.00  0.00     0.132 C 
HETATM   12  C   UNL     1      44.397 -20.678   5.872  1.00  0.00     0.079 C 
ENDROOT
BRANCH   9  13
HETATM   13  C   UNL     1      42.130 -16.304   6.503  1.00  0.00     0.120 C 
HETATM   14  N   UNL     1      40.804 -16.497   6.229  1.00  0.00    -0.272 N 
HETATM   15  H   UNL     1      40.291 -17.371   6.300  1.00  0.00     0.189 HD
HETATM   16  N   UNL     1      40.141 -15.374   5.903  1.00  0.00    -0.174 NA
HETATM   17  C   UNL     1      41.092 -14.421   5.871  1.00  0.00     0.092 C 
HETATM   18  C   UNL     1      42.365 -14.996   6.133  1.00  0.00     0.071 C 
BRANCH  17  19
HETATM   19  C   UNL     1      40.756 -13.012   5.621  1.00  0.00     0.028 A 
HETATM   20  C   UNL     1      39.864 -12.303   6.447  1.00  0.00     0.078 A 
HETATM   21  C   UNL     1      39.584 -10.955   6.225  1.00  0.00     0.037 A 
HETATM   22  C   UNL     1      40.202 -10.281   5.174  1.00  0.00     0.003 A 
HETATM   23  C   UNL     1      41.092 -10.959   4.345  1.00  0.00     0.001 A 
HETATM   24  C   UNL     1      41.365 -12.314   4.564  1.00  0.00     0.017 A 
BRANCH  20  25
HETATM   25  O   UNL     1      39.232 -12.879   7.520  1.00  0.00    -0.360 OA
HETATM   26  H   UNL     1      38.275 -12.912   7.288  1.00  0.00     0.217 HD
ENDBRANCH  20  25
ENDBRANCH  17  19
ENDBRANCH   9  13
BRANCH   1  27
HETATM   27  C   UNL     1      43.452 -18.470   1.408  1.00  0.00     0.032 C 
HETATM   28  C   UNL     1      44.360 -17.237   1.369  1.00  0.00     0.016 C 
HETATM   29  C   UNL     1      41.987 -18.055   1.545  1.00  0.00     0.016 C 
ENDBRANCH   1  27
TORSDOF 4
ENDMDL
MODEL 5
REMARK VINA RESULT:      -8.2      2.108      4.029
REMARK  4 active torsions:
REMARK  status: ('A' for Active; 'I' for Inactive)
REMARK    1  A    between atoms: C_2  and  C_3 
REMARK       I    between atoms: N_10  and  C_11 
REMARK    2  A    between atoms: C_11  and  C_12 
REMARK    3  A    between atoms: C_16  and  C_17 
REMARK    4  A    between atoms: C_18  and  O_19 
ROOT
HETATM    1  C   UNL     1      39.062 -13.278   2.365  1.00  0.00     0.068 A 
HETATM    2  N   UNL     1      38.622 -12.015   2.245  1.00  0.00    -0.178 NA
HETATM    3  N   UNL     1      39.248 -11.342   3.227  1.00  0.00    -0.281 N 
HETATM    4  H   UNL     1      39.077 -10.346   3.313  1.00  0.00     0.189 HD
HETATM    5  C   UNL     1      40.080 -12.132   3.954  1.00  0.00     0.039 A 
HETATM    6  C   UNL     1      39.962 -13.405   3.452  1.00  0.00     0.011 A 
HETATM    7  C   UNL     1      40.715 -14.570   3.977  1.00  0.00     0.169 C 
HETATM    8  N   UNL     1      41.871 -14.104   4.774  1.00  0.00    -0.342 N 
HETATM    9  C   UNL     1      42.897 -14.983   5.151  1.00  0.00     0.272 C 
HETATM   10  O   UNL     1      43.533 -14.811   6.190  1.00  0.00    -0.266 OA
HETATM   11  C   UNL     1      41.597 -12.980   5.703  1.00  0.00     0.132 C 
HETATM   12  C   UNL     1      41.017 -11.719   5.019  1.00  0.00     0.079 C 
ENDROOT
BRANCH   9  13
HETATM   13  C   UNL     1      43.178 -16.139   4.335  1.00  0.00     0.120 C 
HETATM   14  N   UNL     1      43.607 -16.008   3.043  1.00  0.00    -0.272 N 
HETATM   15  H   UNL     1      43.736 -15.138   2.532  1.00  0.00     0.189 HD
HETATM   16  N   UNL     1      43.945 -17.168   2.456  1.00  0.00    -0.174 NA
HETATM   17  C   UNL     1      43.636 -18.108   3.368  1.00  0.00     0.092 C 
HETATM   18  C   UNL     1      43.050 -17.501   4.512  1.00  0.00     0.071 C 
BRANCH  17  19
HETATM   19  C   UNL     1      43.931 -19.529   3.134  1.00  0.00     0.028 A 
HETATM   20  C   UNL     1      44.585 -20.321   4.096  1.00  0.00     0.078 A 
HETATM   21  C   UNL     1      44.822 -21.679   3.880  1.00  0.00     0.037 A 
HETATM   22  C   UNL     1      44.398 -22.277   2.696  1.00  0.00     0.003 A 
HETATM   23  C   UNL     1      43.745 -21.516   1.729  1.00  0.00     0.001 A 
HETATM   24  C   UNL     1      43.515 -20.154   1.945  1.00  0.00     0.017 A 
BRANCH  20  25
HETATM   25  O   UNL     1      45.011 -19.821   5.300  1.00  0.00    -0.360 OA
HETATM   26  H   UNL     1      45.892 -20.230   5.469  1.00  0.00     0.217 HD
ENDBRANCH  20  25
ENDBRANCH  17  19
ENDBRANCH   9  13
BRANCH   1  27
HETATM   27  C   UNL     1      38.657 -14.341   1.379  1.00  0.00     0.032 C 
HETATM   28  C   UNL     1      39.759 -14.562   0.338  1.00  0.00     0.016 C 
HETATM   29  C   UNL     1      37.322 -14.046   0.695  1.00  0.00     0.016 C 
ENDBRANCH   1  27
TORSDOF 4
ENDMDL
MODEL 6
REMARK VINA RESULT:      -8.1      2.543      7.605
REMARK  4 active torsions:
REMARK  status: ('A' for Active; 'I' for Inactive)
REMARK    1  A    between atoms: C_2  and  C_3 
REMARK       I    between atoms: N_10  and  C_11 
REMARK    2  A    between atoms: C_11  and  C_12 
REMARK    3  A    between atoms: C_16  and  C_17 
REMARK    4  A    between atoms: C_18  and  O_19 
ROOT
HETATM    1  C   UNL     1      43.951 -19.426   2.667  1.00  0.00     0.068 A 
HETATM    2  N   UNL     1      44.197 -20.741   2.543  1.00  0.00    -0.178 NA
HETATM    3  N   UNL     1      44.392 -21.170   3.803  1.00  0.00    -0.281 N 
HETATM    4  H   UNL     1      44.577 -22.156   3.952  1.00  0.00     0.189 HD
HETATM    5  C   UNL     1      44.263 -20.177   4.720  1.00  0.00     0.039 A 
HETATM    6  C   UNL     1      44.013 -19.019   4.022  1.00  0.00     0.011 A 
HETATM    7  C   UNL     1      43.807 -17.699   4.666  1.00  0.00     0.169 C 
HETATM    8  N   UNL     1      43.485 -17.883   6.098  1.00  0.00    -0.342 N 
HETATM    9  C   UNL     1      42.977 -16.827   6.871  1.00  0.00     0.272 C 
HETATM   10  O   UNL     1      43.202 -16.757   8.079  1.00  0.00    -0.266 OA
HETATM   11  C   UNL     1      44.311 -18.883   6.818  1.00  0.00     0.132 C 
HETATM   12  C   UNL     1      44.283 -20.298   6.193  1.00  0.00     0.079 C 
ENDROOT
BRANCH   9  13
HETATM   13  C   UNL     1      42.220 -15.778   6.231  1.00  0.00     0.120 C 
HETATM   14  N   UNL     1      42.484 -14.460   6.479  1.00  0.00    -0.272 N 
HETATM   15  H   UNL     1      43.175 -14.091   7.128  1.00  0.00     0.189 HD
HETATM   16  N   UNL     1      41.782 -13.605   5.716  1.00  0.00    -0.174 NA
HETATM   17  C   UNL     1      40.955 -14.394   5.004  1.00  0.00     0.092 C 
HETATM   18  C   UNL     1      41.130 -15.752   5.386  1.00  0.00     0.071 C 
BRANCH  17  19
HETATM   19  C   UNL     1      40.061 -13.838   3.979  1.00  0.00     0.028 A 
HETATM   20  C   UNL     1      39.537 -12.535   4.077  1.00  0.00     0.078 A 
HETATM   21  C   UNL     1      38.722 -12.003   3.078  1.00  0.00     0.037 A 
HETATM   22  C   UNL     1      38.421 -12.762   1.949  1.00  0.00     0.003 A 
HETATM   23  C   UNL     1      38.931 -14.052   1.826  1.00  0.00     0.001 A 
HETATM   24  C   UNL     1      39.741 -14.587   2.833  1.00  0.00     0.017 A 
BRANCH  20  25
HETATM   25  O   UNL     1      39.804 -11.709   5.139  1.00  0.00    -0.360 OA
HETATM   26  H   UNL     1      38.944 -11.574   5.602  1.00  0.00     0.217 HD
ENDBRANCH  20  25
ENDBRANCH  17  19
ENDBRANCH   9  13
BRANCH   1  27
HETATM   27  C   UNL     1      43.590 -18.585   1.472  1.00  0.00     0.032 C 
HETATM   28  C   UNL     1      44.462 -17.328   1.410  1.00  0.00     0.016 C 
HETATM   29  C   UNL     1      42.107 -18.213   1.429  1.00  0.00     0.016 C 
ENDBRANCH   1  27
TORSDOF 4
ENDMDL
MODEL 7
REMARK VINA RESULT:      -8.0      2.085      2.764
REMARK  4 active torsions:
REMARK  status: ('A' for Active; 'I' for Inactive)
REMARK    1  A    between atoms: C_2  and  C_3 
REMARK       I    between atoms: N_10  and  C_11 
REMARK    2  A    between atoms: C_11  and  C_12 
REMARK    3  A    between atoms: C_16  and  C_17 
REMARK    4  A    between atoms: C_18  and  O_19 
ROOT
HETATM    1  C   UNL     1      40.275 -12.911   3.986  1.00  0.00     0.068 A 
HETATM    2  N   UNL     1      39.193 -12.128   4.116  1.00  0.00    -0.178 NA
HETATM    3  N   UNL     1      38.603 -12.160   2.907  1.00  0.00    -0.281 N 
HETATM    4  H   UNL     1      37.739 -11.643   2.779  1.00  0.00     0.189 HD
HETATM    5  C   UNL     1      39.266 -12.948   2.023  1.00  0.00     0.039 A 
HETATM    6  C   UNL     1      40.379 -13.427   2.671  1.00  0.00     0.011 A 
HETATM    7  C   UNL     1      41.371 -14.333   2.042  1.00  0.00     0.169 C 
HETATM    8  N   UNL     1      40.785 -14.963   0.838  1.00  0.00    -0.342 N 
HETATM    9  C   UNL     1      41.401 -16.060   0.218  1.00  0.00     0.272 C 
HETATM   10  O   UNL     1      41.288 -16.254  -0.992  1.00  0.00    -0.266 OA
HETATM   11  C   UNL     1      40.015 -14.056  -0.049  1.00  0.00     0.132 C 
HETATM   12  C   UNL     1      38.850 -13.320   0.654  1.00  0.00     0.079 C 
ENDROOT
BRANCH   9  13
HETATM   13  C   UNL     1      42.223 -16.950   1.002  1.00  0.00     0.120 C 
HETATM   14  N   UNL     1      43.534 -17.172   0.683  1.00  0.00    -0.272 N 
HETATM   15  H   UNL     1      44.038 -16.787  -0.112  1.00  0.00     0.189 HD
HETATM   16  N   UNL     1      44.198 -17.924   1.577  1.00  0.00    -0.174 NA
HETATM   17  C   UNL     1      43.260 -18.288   2.471  1.00  0.00     0.092 C 
HETATM   18  C   UNL     1      41.991 -17.785   2.076  1.00  0.00     0.071 C 
BRANCH  17  19
HETATM   19  C   UNL     1      43.605 -19.068   3.667  1.00  0.00     0.028 A 
HETATM   20  C   UNL     1      44.420 -20.214   3.599  1.00  0.00     0.078 A 
HETATM   21  C   UNL     1      44.775 -20.923   4.746  1.00  0.00     0.037 A 
HETATM   22  C   UNL     1      44.329 -20.493   5.994  1.00  0.00     0.003 A 
HETATM   23  C   UNL     1      43.525 -19.360   6.090  1.00  0.00     0.001 A 
HETATM   24  C   UNL     1      43.164 -18.654   4.937  1.00  0.00     0.017 A 
BRANCH  20  25
HETATM   25  O   UNL     1      44.926 -20.692   2.417  1.00  0.00    -0.360 OA
HETATM   26  H   UNL     1      44.179 -20.673   1.773  1.00  0.00     0.217 HD
ENDBRANCH  20  25
ENDBRANCH  17  19
ENDBRANCH   9  13
BRANCH   1  27
HETATM   27  C   UNL     1      41.167 -13.210   5.162  1.00  0.00     0.032 C 
HETATM   28  C   UNL     1      40.785 -14.547   5.805  1.00  0.00     0.016 C 
HETATM   29  C   UNL     1      41.174 -12.094   6.206  1.00  0.00     0.016 C 
ENDBRANCH   1  27
TORSDOF 4
ENDMDL
MODEL 8
REMARK VINA RESULT:      -8.0      3.018      6.732
REMARK  4 active torsions:
REMARK  status: ('A' for Active; 'I' for Inactive)
REMARK    1  A    between atoms: C_2  and  C_3 
REMARK       I    between atoms: N_10  and  C_11 
REMARK    2  A    between atoms: C_11  and  C_12 
REMARK    3  A    between atoms: C_16  and  C_17 
REMARK    4  A    between atoms: C_18  and  O_19 
ROOT
HETATM    1  C   UNL     1      44.163 -19.702   4.357  1.00  0.00     0.068 A 
HETATM    2  N   UNL     1      44.317 -20.572   5.368  1.00  0.00    -0.178 NA
HETATM    3  N   UNL     1      43.992 -19.873   6.471  1.00  0.00    -0.281 N 
HETATM    4  H   UNL     1      44.019 -20.348   7.367  1.00  0.00     0.189 HD
HETATM    5  C   UNL     1      43.624 -18.596   6.190  1.00  0.00     0.039 A 
HETATM    6  C   UNL     1      43.755 -18.431   4.833  1.00  0.00     0.011 A 
HETATM    7  C   UNL     1      43.446 -17.165   4.124  1.00  0.00     0.169 C 
HETATM    8  N   UNL     1      42.602 -16.303   4.980  1.00  0.00    -0.342 N 
HETATM    9  C   UNL     1      41.942 -15.181   4.457  1.00  0.00     0.272 C 
HETATM   10  O   UNL     1      41.710 -14.195   5.156  1.00  0.00    -0.266 OA
HETATM   11  C   UNL     1      43.010 -16.218   6.404  1.00  0.00     0.132 C 
HETATM   12  C   UNL     1      43.087 -17.585   7.125  1.00  0.00     0.079 C 
ENDROOT
BRANCH   9  13
HETATM   13  C   UNL     1      41.574 -15.160   3.062  1.00  0.00     0.120 C 
HETATM   14  N   UNL     1      40.334 -15.566   2.649  1.00  0.00    -0.272 N 
HETATM   15  H   UNL     1      39.592 -15.937   3.235  1.00  0.00     0.189 HD
HETATM   16  N   UNL     1      40.100 -15.370   1.340  1.00  0.00    -0.174 NA
HETATM   17  C   UNL     1      41.267 -14.904   0.857  1.00  0.00     0.092 C 
HETATM   18  C   UNL     1      42.241 -14.867   1.891  1.00  0.00     0.071 C 
BRANCH  17  19
HETATM   19  C   UNL     1      41.403 -14.489  -0.547  1.00  0.00     0.028 A 
HETATM   20  C   UNL     1      41.994 -13.264  -0.906  1.00  0.00     0.078 A 
HETATM   21  C   UNL     1      42.156 -12.899  -2.243  1.00  0.00     0.037 A 
HETATM   22  C   UNL     1      41.737 -13.762  -3.253  1.00  0.00     0.003 A 
HETATM   23  C   UNL     1      41.153 -14.983  -2.924  1.00  0.00     0.001 A 
HETATM   24  C   UNL     1      40.985 -15.343  -1.583  1.00  0.00     0.017 A 
BRANCH  20  25
HETATM   25  O   UNL     1      42.460 -12.367   0.022  1.00  0.00    -0.360 OA
HETATM   26  H   UNL     1      42.832 -11.612  -0.491  1.00  0.00     0.217 HD
ENDBRANCH  20  25
ENDBRANCH  17  19
ENDBRANCH   9  13
BRANCH   1  27
HETATM   27  C   UNL     1      44.346 -20.130   2.925  1.00  0.00     0.032 C 
HETATM   28  C   UNL     1      43.186 -19.631   2.058  1.00  0.00     0.016 C 
HETATM   29  C   UNL     1      44.521 -21.641   2.771  1.00  0.00     0.016 C 
ENDBRANCH   1  27
TORSDOF 4
ENDMDL
MODEL 9
REMARK VINA RESULT:      -7.9      2.373      2.995
REMARK  4 active torsions:
REMARK  status: ('A' for Active; 'I' for Inactive)
REMARK    1  A    between atoms: C_2  and  C_3 
REMARK       I    between atoms: N_10  and  C_11 
REMARK    2  A    between atoms: C_11  and  C_12 
REMARK    3  A    between atoms: C_16  and  C_17 
REMARK    4  A    between atoms: C_18  and  O_19 
ROOT
HETATM    1  C   UNL     1      39.340 -11.914   4.923  1.00  0.00     0.068 A 
HETATM    2  N   UNL     1      38.361 -11.002   5.038  1.00  0.00    -0.178 NA
HETATM    3  N   UNL     1      37.882 -10.859   3.789  1.00  0.00    -0.281 N 
HETATM    4  H   UNL     1      37.108 -10.221   3.640  1.00  0.00     0.189 HD
HETATM    5  C   UNL     1      38.514 -11.660   2.892  1.00  0.00     0.039 A 
HETATM    6  C   UNL     1      39.493 -12.336   3.580  1.00  0.00     0.011 A 
HETATM    7  C   UNL     1      40.410 -13.318   2.953  1.00  0.00     0.169 C 
HETATM    8  N   UNL     1      39.856 -13.767   1.656  1.00  0.00    -0.342 N 
HETATM    9  C   UNL     1      40.377 -14.887   0.991  1.00  0.00     0.272 C 
HETATM   10  O   UNL     1      40.348 -14.969  -0.237  1.00  0.00    -0.266 OA
HETATM   11  C   UNL     1      39.293 -12.697   0.795  1.00  0.00     0.132 C 
HETATM   12  C   UNL     1      38.176 -11.864   1.468  1.00  0.00     0.079 C 
ENDROOT
BRANCH   9  13
HETATM   13  C   UNL     1      41.003 -15.939   1.754  1.00  0.00     0.120 C 
HETATM   14  N   UNL     1      40.466 -16.375   2.934  1.00  0.00    -0.272 N 
HETATM   15  H   UNL     1      39.638 -16.008   3.396  1.00  0.00     0.189 HD
HETATM   16  N   UNL     1      41.092 -17.441   3.462  1.00  0.00    -0.174 NA
HETATM   17  C   UNL     1      42.139 -17.654   2.643  1.00  0.00     0.092 C 
HETATM   18  C   UNL     1      42.172 -16.660   1.627  1.00  0.00     0.071 C 
BRANCH  17  19
HETATM   19  C   UNL     1      43.042 -18.797   2.837  1.00  0.00     0.028 A 
HETATM   20  C   UNL     1      43.834 -18.931   3.992  1.00  0.00     0.078 A 
HETATM   21  C   UNL     1      44.657 -20.040   4.185  1.00  0.00     0.037 A 
HETATM   22  C   UNL     1      44.698 -21.049   3.225  1.00  0.00     0.003 A 
HETATM   23  C   UNL     1      43.921 -20.943   2.075  1.00  0.00     0.001 A 
HETATM   24  C   UNL     1      43.102 -19.826   1.880  1.00  0.00     0.017 A 
BRANCH  20  25
HETATM   25  O   UNL     1      43.835 -18.000   5.000  1.00  0.00    -0.360 OA
HETATM   26  H   UNL     1      43.106 -18.257   5.611  1.00  0.00     0.217 HD
ENDBRANCH  20  25
ENDBRANCH  17  19
ENDBRANCH   9  13
BRANCH   1  27
HETATM   27  C   UNL     1      40.076 -12.423   6.134  1.00  0.00     0.032 C 
HETATM   28  C   UNL     1      39.333 -12.047   7.419  1.00  0.00     0.016 C 
HETATM   29  C   UNL     1      41.528 -11.946   6.194  1.00  0.00     0.016 C 
ENDBRANCH   1  27
TORSDOF 4
ENDMDL
MODEL 10
REMARK VINA RESULT:      -7.8      2.572      6.781
REMARK  4 active torsions:
REMARK  status: ('A' for Active; 'I' for Inactive)
REMARK    1  A    between atoms: C_2  and  C_3 
REMARK       I    between atoms: N_10  and  C_11 
REMARK    2  A    between atoms: C_11  and  C_12 
REMARK    3  A    between atoms: C_16  and  C_17 
REMARK    4  A    between atoms: C_18  and  O_19 
ROOT
HETATM    1  C   UNL     1      43.824 -18.004   6.073  1.00  0.00     0.068 A 
HETATM    2  N   UNL     1      44.979 -18.663   6.258  1.00  0.00    -0.178 NA
HETATM    3  N   UNL     1      45.181 -19.326   5.105  1.00  0.00    -0.281 N 
HETATM    4  H   UNL     1      46.022 -19.886   5.011  1.00  0.00     0.189 HD
HETATM    5  C   UNL     1      44.200 -19.099   4.193  1.00  0.00     0.039 A 
HETATM    6  C   UNL     1      43.279 -18.274   4.793  1.00  0.00     0.011 A 
HETATM    7  C   UNL     1      42.049 -17.787   4.122  1.00  0.00     0.169 C 
HETATM    8  N   UNL     1      42.180 -17.946   2.657  1.00  0.00    -0.342 N 
HETATM    9  C   UNL     1      41.287 -17.319   1.775  1.00  0.00     0.272 C 
HETATM   10  O   UNL     1      41.017 -17.816   0.682  1.00  0.00    -0.266 OA
HETATM   11  C   UNL     1      42.754 -19.236   2.201  1.00  0.00     0.132 C 
HETATM   12  C   UNL     1      44.151 -19.552   2.787  1.00  0.00     0.079 C 
ENDROOT
BRANCH   9  13
HETATM   13  C   UNL     1      40.635 -16.095   2.175  1.00  0.00     0.120 C 
HETATM   14  N   UNL     1      39.346 -15.825   1.808  1.00  0.00    -0.272 N 
HETATM   15  H   UNL     1      38.749 -16.402   1.220  1.00  0.00     0.189 HD
HETATM   16  N   UNL     1      38.840 -14.710   2.360  1.00  0.00    -0.174 NA
HETATM   17  C   UNL     1      39.870 -14.176   3.042  1.00  0.00     0.092 C 
HETATM   18  C   UNL     1      41.038 -14.964   2.853  1.00  0.00     0.071 C 
BRANCH  17  19
HETATM   19  C   UNL     1      39.702 -12.967   3.861  1.00  0.00     0.028 A 
HETATM   20  C   UNL     1      39.575 -13.029   5.261  1.00  0.00     0.078 A 
HETATM   21  C   UNL     1      39.457 -11.873   6.032  1.00  0.00     0.037 A 
HETATM   22  C   UNL     1      39.476 -10.623   5.416  1.00  0.00     0.003 A 
HETATM   23  C   UNL     1      39.606 -10.534   4.032  1.00  0.00     0.001 A 
HETATM   24  C   UNL     1      39.715 -11.696   3.260  1.00  0.00     0.017 A 
BRANCH  20  25
HETATM   25  O   UNL     1      39.574 -14.214   5.952  1.00  0.00    -0.360 OA
HETATM   26  H   UNL     1      38.764 -14.203   6.513  1.00  0.00     0.217 HD
ENDBRANCH  20  25
ENDBRANCH  17  19
ENDBRANCH   9  13
BRANCH   1  27
HETATM   27  C   UNL     1      43.289 -17.061   7.117  1.00  0.00     0.032 C 
HETATM   28  C   UNL     1      43.896 -15.665   6.948  1.00  0.00     0.016 C 
HETATM   29  C   UNL     1      43.497 -17.568   8.544  1.00  0.00     0.016 C 
ENDBRANCH   1  27
TORSDOF 4
ENDMDL
