MODEL 1
REMARK VINA RESULT:     -10.1      0.000      0.000
REMARK  6 active torsions:
REMARK  status: ('A' for Active; 'I' for Inactive)
REMARK    1  A    between atoms: C_2  and  C_3 
REMARK    2  A    between atoms: C_3  and  C_4 
REMARK    3  A    between atoms: N_7  and  C_9 
REMARK    4  A    between atoms: C_9  and  C_10 
REMARK    5  A    between atoms: N_23  and  C_24 
REMARK    6  A    between atoms: C_24  and  C_25 
ROOT
HETATM    1  C   UNL     1      41.047 -14.512   5.436  1.00  0.00     0.119 C 
HETATM    2  N   UNL     1      39.707 -14.050   5.761  1.00  0.00    -0.324 N 
HETATM    3  C   UNL     1      39.701 -12.718   6.126  1.00  0.00     0.326 C 
HETATM    4  O   UNL     1      38.668 -12.093   6.281  1.00  0.00    -0.247 OA
HETATM    5  N   UNL     1      40.979 -12.296   6.268  1.00  0.00    -0.264 N 
HETATM    6  C   UNL     1      41.854 -13.286   5.930  1.00  0.00     0.257 C 
HETATM    7  O   UNL     1      43.073 -13.233   5.992  1.00  0.00    -0.270 OA
HETATM    8  H   UNL     1      38.870 -14.342   5.267  1.00  0.00     0.165 HD
ENDROOT
BRANCH   1   9
HETATM    9  C   UNL     1      41.164 -14.598   3.895  1.00  0.00     0.037 C 
HETATM   10  C   UNL     1      39.847 -14.587   3.130  1.00  0.00     0.008 C 
ENDBRANCH   1   9
BRANCH   1  11
HETATM   11  C   UNL     1      41.447 -15.807   6.213  1.00  0.00     0.026 C 
HETATM   12  C   UNL     1      42.957 -15.953   6.462  1.00  0.00     0.035 C 
HETATM   13  C   UNL     1      43.753 -16.433   5.253  1.00  0.00     0.235 C 
HETATM   14  N   UNL     1      43.177 -17.714   4.702  1.00  0.00    -0.067 N 
HETATM   15  H   UNL     1      43.304 -18.435   5.424  1.00  0.00     0.280 HD
HETATM   16  C   UNL     1      41.696 -17.627   4.403  1.00  0.00     0.235 C 
HETATM   17  C   UNL     1      40.929 -17.133   5.618  1.00  0.00     0.035 C 
BRANCH  14  18
HETATM   18  C   UNL     1      43.907 -18.216   3.463  1.00  0.00     0.273 C 
BRANCH  18  19
HETATM   19  C   UNL     1      44.129 -19.703   3.414  1.00  0.00    -0.027 A 
HETATM   20  C   UNL     1      44.583 -20.410   4.536  1.00  0.00     0.051 A 
HETATM   21  C   UNL     1      44.803 -21.786   4.452  1.00  0.00     0.119 A 
HETATM   22  F   UNL     1      45.242 -22.440   5.534  1.00  0.00    -0.206 F 
HETATM   23  C   UNL     1      44.586 -22.483   3.273  1.00  0.00     0.084 A 
HETATM   24  C   UNL     1      44.134 -21.784   2.164  1.00  0.00     0.119 A 
HETATM   25  F   UNL     1      43.925 -22.431   1.012  1.00  0.00    -0.206 F 
HETATM   26  C   UNL     1      43.904 -20.411   2.222  1.00  0.00     0.051 A 
ENDBRANCH  18  19
ENDBRANCH  14  18
ENDBRANCH   1  11
BRANCH   5  27
HETATM   27  C   UNL     1      41.355 -10.969   6.701  1.00  0.00     0.175 C 
BRANCH  27  28
HETATM   28  C   UNL     1      41.564 -10.914   8.197  1.00  0.00    -0.037 A 
HETATM   29  C   UNL     1      40.466 -10.753   9.058  1.00  0.00     0.048 A 
HETATM   30  C   UNL     1      40.705 -10.730  10.416  1.00  0.00     0.105 A 
HETATM   31  C   UNL     1      41.975 -10.843  10.931  1.00  0.00     0.105 A 
HETATM   32  O   UNL     1      39.762 -10.603  11.387  1.00  0.00    -0.323 OA
HETATM   33  O   UNL     1      41.987 -10.804  12.291  1.00  0.00    -0.323 OA
HETATM   34  C   UNL     1      43.078 -10.977  10.120  1.00  0.00     0.040 A 
HETATM   35  C   UNL     1      40.572 -10.748  12.573  1.00  0.00     0.352 A 
HETATM   36  C   UNL     1      42.868 -11.011   8.737  1.00  0.00     0.012 A 
ENDBRANCH  27  28
ENDBRANCH   5  27
TORSDOF 6
ENDMDL
MODEL 2
REMARK VINA RESULT:     -10.1      4.483      8.141
REMARK  6 active torsions:
REMARK  status: ('A' for Active; 'I' for Inactive)
REMARK    1  A    between atoms: C_2  and  C_3 
REMARK    2  A    between atoms: C_3  and  C_4 
REMARK    3  A    between atoms: N_7  and  C_9 
REMARK    4  A    between atoms: C_9  and  C_10 
REMARK    5  A    between atoms: N_23  and  C_24 
REMARK    6  A    between atoms: C_24  and  C_25 
ROOT
HETATM    1  C   UNL     1      40.564 -13.835   2.702  1.00  0.00     0.119 C 
HETATM    2  N   UNL     1      41.820 -13.760   1.974  1.00  0.00    -0.324 N 
HETATM    3  C   UNL     1      41.703 -12.992   0.832  1.00  0.00     0.326 C 
HETATM    4  O   UNL     1      42.669 -12.667   0.167  1.00  0.00    -0.247 OA
HETATM    5  N   UNL     1      40.395 -12.707   0.627  1.00  0.00    -0.264 N 
HETATM    6  C   UNL     1      39.630 -13.195   1.645  1.00  0.00     0.257 C 
HETATM    7  O   UNL     1      38.413 -13.140   1.732  1.00  0.00    -0.270 OA
HETATM    8  H   UNL     1      42.731 -13.695   2.417  1.00  0.00     0.165 HD
ENDROOT
BRANCH   1   9
HETATM    9  C   UNL     1      40.659 -12.888   3.923  1.00  0.00     0.037 C 
HETATM   10  C   UNL     1      42.068 -12.504   4.353  1.00  0.00     0.008 C 
ENDBRANCH   1   9
BRANCH   1  11
HETATM   11  C   UNL     1      40.137 -15.303   3.023  1.00  0.00     0.026 C 
HETATM   12  C   UNL     1      40.784 -15.885   4.291  1.00  0.00     0.035 C 
HETATM   13  C   UNL     1      42.226 -16.345   4.110  1.00  0.00     0.235 C 
HETATM   14  N   UNL     1      42.343 -17.313   2.959  1.00  0.00    -0.067 N 
HETATM   15  H   UNL     1      41.813 -18.155   3.220  1.00  0.00     0.280 HD
HETATM   16  C   UNL     1      41.755 -16.786   1.669  1.00  0.00     0.235 C 
HETATM   17  C   UNL     1      40.323 -16.322   1.879  1.00  0.00     0.035 C 
BRANCH  14  18
HETATM   18  C   UNL     1      43.774 -17.771   2.704  1.00  0.00     0.273 C 
BRANCH  18  19
HETATM   19  C   UNL     1      44.013 -19.243   2.895  1.00  0.00    -0.027 A 
HETATM   20  C   UNL     1      44.475 -19.755   4.116  1.00  0.00     0.051 A 
HETATM   21  C   UNL     1      44.712 -21.124   4.255  1.00  0.00     0.119 A 
HETATM   22  F   UNL     1      45.158 -21.589   5.428  1.00  0.00    -0.206 F 
HETATM   23  C   UNL     1      44.505 -22.004   3.204  1.00  0.00     0.084 A 
HETATM   24  C   UNL     1      44.046 -21.499   1.997  1.00  0.00     0.119 A 
HETATM   25  F   UNL     1      43.846 -22.325   0.965  1.00  0.00    -0.206 F 
HETATM   26  C   UNL     1      43.799 -20.137   1.833  1.00  0.00     0.051 A 
ENDBRANCH  18  19
ENDBRANCH  14  18
ENDBRANCH   1  11
BRANCH   5  27
HETATM   27  C   UNL     1      39.891 -11.971  -0.510  1.00  0.00     0.175 C 
BRANCH  27  28
HETATM   28  C   UNL     1      39.288 -12.895  -1.544  1.00  0.00    -0.037 A 
HETATM   29  C   UNL     1      40.088 -13.855  -2.185  1.00  0.00     0.048 A 
HETATM   30  C   UNL     1      39.487 -14.688  -3.105  1.00  0.00     0.105 A 
HETATM   31  C   UNL     1      38.151 -14.587  -3.413  1.00  0.00     0.105 A 
HETATM   32  O   UNL     1      40.105 -15.681  -3.799  1.00  0.00    -0.323 OA
HETATM   33  O   UNL     1      37.762 -15.505  -4.337  1.00  0.00    -0.323 OA
HETATM   34  C   UNL     1      37.340 -13.643  -2.825  1.00  0.00     0.040 A 
HETATM   35  C   UNL     1      38.984 -16.256  -4.504  1.00  0.00     0.352 A 
HETATM   36  C   UNL     1      37.919 -12.787  -1.881  1.00  0.00     0.012 A 
ENDBRANCH  27  28
ENDBRANCH   5  27
TORSDOF 6
ENDMDL
MODEL 3
REMARK VINA RESULT:      -9.5      4.686      8.987
REMARK  6 active torsions:
REMARK  status: ('A' for Active; 'I' for Inactive)
REMARK    1  A    between atoms: C_2  and  C_3 
REMARK    2  A    between atoms: C_3  and  C_4 
REMARK    3  A    between atoms: N_7  and  C_9 
REMARK    4  A    between atoms: C_9  and  C_10 
REMARK    5  A    between atoms: N_23  and  C_24 
REMARK    6  A    between atoms: C_24  and  C_25 
ROOT
HETATM    1  C   UNL     1      41.433 -16.106   4.581  1.00  0.00     0.119 C 
HETATM    2  N   UNL     1      40.666 -16.362   3.373  1.00  0.00    -0.324 N 
HETATM    3  C   UNL     1      41.416 -17.032   2.426  1.00  0.00     0.326 C 
HETATM    4  O   UNL     1      40.922 -17.484   1.410  1.00  0.00    -0.247 OA
HETATM    5  N   UNL     1      42.707 -17.069   2.832  1.00  0.00    -0.264 N 
HETATM    6  C   UNL     1      42.838 -16.511   4.070  1.00  0.00     0.257 C 
HETATM    7  O   UNL     1      43.878 -16.354   4.692  1.00  0.00    -0.270 OA
HETATM    8  H   UNL     1      39.683 -16.611   3.366  1.00  0.00     0.165 HD
ENDROOT
BRANCH   1   9
HETATM    9  C   UNL     1      40.983 -17.122   5.660  1.00  0.00     0.037 C 
HETATM   10  C   UNL     1      41.697 -17.022   7.001  1.00  0.00     0.008 C 
ENDBRANCH   1   9
BRANCH   1  11
HETATM   11  C   UNL     1      41.397 -14.606   5.016  1.00  0.00     0.026 C 
HETATM   12  C   UNL     1      39.982 -14.011   5.113  1.00  0.00     0.035 C 
HETATM   13  C   UNL     1      39.361 -13.637   3.772  1.00  0.00     0.235 C 
HETATM   14  N   UNL     1      40.272 -12.721   2.992  1.00  0.00    -0.067 N 
HETATM   15  H   UNL     1      40.340 -11.843   3.523  1.00  0.00     0.280 HD
HETATM   16  C   UNL     1      41.675 -13.265   2.831  1.00  0.00     0.235 C 
HETATM   17  C   UNL     1      42.265 -13.643   4.179  1.00  0.00     0.035 C 
BRANCH  14  18
HETATM   18  C   UNL     1      39.720 -12.351   1.622  1.00  0.00     0.273 C 
BRANCH  18  19
HETATM   19  C   UNL     1      40.496 -12.898   0.455  1.00  0.00    -0.027 A 
HETATM   20  C   UNL     1      40.344 -14.227   0.037  1.00  0.00     0.051 A 
HETATM   21  C   UNL     1      41.098 -14.712  -1.035  1.00  0.00     0.119 A 
HETATM   22  F   UNL     1      40.940 -15.986  -1.413  1.00  0.00    -0.206 F 
HETATM   23  C   UNL     1      42.007 -13.907  -1.703  1.00  0.00     0.084 A 
HETATM   24  C   UNL     1      42.156 -12.592  -1.290  1.00  0.00     0.119 A 
HETATM   25  F   UNL     1      43.033 -11.797  -1.913  1.00  0.00    -0.206 F 
HETATM   26  C   UNL     1      41.415 -12.082  -0.226  1.00  0.00     0.051 A 
ENDBRANCH  18  19
ENDBRANCH  14  18
ENDBRANCH   1  11
BRANCH   5  27
HETATM   27  C   UNL     1      43.788 -17.640   2.061  1.00  0.00     0.175 C 
BRANCH  27  28
HETATM   28  C   UNL     1      44.000 -19.097   2.403  1.00  0.00    -0.037 A 
HETATM   29  C   UNL     1      44.570 -19.459   3.635  1.00  0.00     0.048 A 
HETATM   30  C   UNL     1      44.724 -20.801   3.908  1.00  0.00     0.105 A 
HETATM   31  C   UNL     1      44.354 -21.772   3.008  1.00  0.00     0.105 A 
HETATM   32  O   UNL     1      45.235 -21.325   5.054  1.00  0.00    -0.323 OA
HETATM   33  O   UNL     1      44.584 -23.028   3.477  1.00  0.00    -0.323 OA
HETATM   34  C   UNL     1      43.815 -21.458   1.781  1.00  0.00     0.040 A 
HETATM   35  C   UNL     1      45.053 -22.736   4.812  1.00  0.00     0.352 A 
HETATM   36  C   UNL     1      43.640 -20.104   1.477  1.00  0.00     0.012 A 
ENDBRANCH  27  28
ENDBRANCH   5  27
TORSDOF 6
ENDMDL
MODEL 4
REMARK VINA RESULT:      -9.4      4.262      8.758
REMARK  6 active torsions:
REMARK  status: ('A' for Active; 'I' for Inactive)
REMARK    1  A    between atoms: C_2  and  C_3 
REMARK    2  A    between atoms: C_3  and  C_4 
REMARK    3  A    between atoms: N_7  and  C_9 
REMARK    4  A    between atoms: C_9  and  C_10 
REMARK    5  A    between atoms: N_23  and  C_24 
REMARK    6  A    between atoms: C_24  and  C_25 
ROOT
HETATM    1  C   UNL     1      41.223 -15.824   5.166  1.00  0.00     0.119 C 
HETATM    2  N   UNL     1      40.464 -16.169   3.975  1.00  0.00    -0.324 N 
HETATM    3  C   UNL     1      41.261 -16.764   3.017  1.00  0.00     0.326 C 
HETATM    4  O   UNL     1      40.798 -17.274   2.014  1.00  0.00    -0.247 OA
HETATM    5  N   UNL     1      42.557 -16.661   3.397  1.00  0.00    -0.264 N 
HETATM    6  C   UNL     1      42.652 -16.082   4.629  1.00  0.00     0.257 C 
HETATM    7  O   UNL     1      43.682 -15.812   5.229  1.00  0.00    -0.270 OA
HETATM    8  H   UNL     1      39.513 -16.520   3.989  1.00  0.00     0.165 HD
ENDROOT
BRANCH   1   9
HETATM    9  C   UNL     1      40.903 -16.873   6.259  1.00  0.00     0.037 C 
HETATM   10  C   UNL     1      42.101 -17.404   7.036  1.00  0.00     0.008 C 
ENDBRANCH   1   9
BRANCH   1  11
HETATM   11  C   UNL     1      41.037 -14.333   5.593  1.00  0.00     0.026 C 
HETATM   12  C   UNL     1      39.812 -13.645   4.966  1.00  0.00     0.035 C 
HETATM   13  C   UNL     1      40.007 -13.206   3.519  1.00  0.00     0.235 C 
HETATM   14  N   UNL     1      41.235 -12.341   3.377  1.00  0.00    -0.067 N 
HETATM   15  H   UNL     1      41.057 -11.479   3.909  1.00  0.00     0.280 HD
HETATM   16  C   UNL     1      42.485 -12.976   3.945  1.00  0.00     0.235 C 
HETATM   17  C   UNL     1      42.261 -13.417   5.382  1.00  0.00     0.035 C 
BRANCH  14  18
HETATM   18  C   UNL     1      41.502 -11.911   1.941  1.00  0.00     0.273 C 
BRANCH  18  19
HETATM   19  C   UNL     1      40.920 -12.814   0.888  1.00  0.00    -0.027 A 
HETATM   20  C   UNL     1      39.725 -12.492   0.231  1.00  0.00     0.051 A 
HETATM   21  C   UNL     1      39.197 -13.364  -0.724  1.00  0.00     0.119 A 
HETATM   22  F   UNL     1      38.051 -13.039  -1.334  1.00  0.00    -0.206 F 
HETATM   23  C   UNL     1      39.828 -14.557  -1.042  1.00  0.00     0.084 A 
HETATM   24  C   UNL     1      41.011 -14.873  -0.394  1.00  0.00     0.119 A 
HETATM   25  F   UNL     1      41.635 -16.022  -0.677  1.00  0.00    -0.206 F 
HETATM   26  C   UNL     1      41.561 -14.021   0.561  1.00  0.00     0.051 A 
ENDBRANCH  18  19
ENDBRANCH  14  18
ENDBRANCH   1  11
BRANCH   5  27
HETATM   27  C   UNL     1      43.677 -17.121   2.608  1.00  0.00     0.175 C 
BRANCH  27  28
HETATM   28  C   UNL     1      43.876 -18.613   2.749  1.00  0.00    -0.037 A 
HETATM   29  C   UNL     1      44.413 -19.146   3.932  1.00  0.00     0.048 A 
HETATM   30  C   UNL     1      44.556 -20.514   4.019  1.00  0.00     0.105 A 
HETATM   31  C   UNL     1      44.206 -21.349   2.984  1.00  0.00     0.105 A 
HETATM   32  O   UNL     1      45.037 -21.196   5.093  1.00  0.00    -0.323 OA
HETATM   33  O   UNL     1      44.420 -22.659   3.280  1.00  0.00    -0.323 OA
HETATM   34  C   UNL     1      43.700 -20.863   1.800  1.00  0.00     0.040 A 
HETATM   35  C   UNL     1      44.857 -22.558   4.653  1.00  0.00     0.352 A 
HETATM   36  C   UNL     1      43.536 -19.479   1.683  1.00  0.00     0.012 A 
ENDBRANCH  27  28
ENDBRANCH   5  27
TORSDOF 6
ENDMDL
MODEL 5
REMARK VINA RESULT:      -9.4      4.024      7.123
REMARK  6 active torsions:
REMARK  status: ('A' for Active; 'I' for Inactive)
REMARK    1  A    between atoms: C_2  and  C_3 
REMARK    2  A    between atoms: C_3  and  C_4 
REMARK    3  A    between atoms: N_7  and  C_9 
REMARK    4  A    between atoms: C_9  and  C_10 
REMARK    5  A    between atoms: N_23  and  C_24 
REMARK    6  A    between atoms: C_24  and  C_25 
ROOT
HETATM    1  C   UNL     1      41.680 -15.485   3.981  1.00  0.00     0.119 C 
HETATM    2  N   UNL     1      41.485 -16.709   3.221  1.00  0.00    -0.324 N 
HETATM    3  C   UNL     1      40.479 -16.572   2.284  1.00  0.00     0.326 C 
HETATM    4  O   UNL     1      40.262 -17.418   1.437  1.00  0.00    -0.247 OA
HETATM    5  N   UNL     1      39.838 -15.398   2.497  1.00  0.00    -0.264 N 
HETATM    6  C   UNL     1      40.436 -14.698   3.503  1.00  0.00     0.257 C 
HETATM    7  O   UNL     1      40.071 -13.626   3.961  1.00  0.00    -0.270 OA
HETATM    8  H   UNL     1      42.238 -17.320   2.923  1.00  0.00     0.165 HD
ENDROOT
BRANCH   1   9
HETATM    9  C   UNL     1      42.951 -14.784   3.443  1.00  0.00     0.037 C 
HETATM   10  C   UNL     1      43.784 -15.591   2.456  1.00  0.00     0.008 C 
ENDBRANCH   1   9
BRANCH   1  11
HETATM   11  C   UNL     1      41.647 -15.720   5.525  1.00  0.00     0.026 C 
HETATM   12  C   UNL     1      42.966 -15.389   6.243  1.00  0.00     0.035 C 
HETATM   13  C   UNL     1      44.045 -16.456   6.105  1.00  0.00     0.235 C 
HETATM   14  N   UNL     1      43.528 -17.806   6.537  1.00  0.00    -0.067 N 
HETATM   15  H   UNL     1      43.326 -17.742   7.543  1.00  0.00     0.280 HD
HETATM   16  C   UNL     1      42.246 -18.208   5.841  1.00  0.00     0.235 C 
HETATM   17  C   UNL     1      41.192 -17.123   5.981  1.00  0.00     0.035 C 
BRANCH  14  18
HETATM   18  C   UNL     1      44.554 -18.921   6.376  1.00  0.00     0.273 C 
BRANCH  18  19
HETATM   19  C   UNL     1      44.505 -19.643   5.058  1.00  0.00    -0.027 A 
HETATM   20  C   UNL     1      44.255 -18.960   3.860  1.00  0.00     0.051 A 
HETATM   21  C   UNL     1      44.192 -19.663   2.655  1.00  0.00     0.119 A 
HETATM   22  F   UNL     1      43.946 -18.990   1.525  1.00  0.00    -0.206 F 
HETATM   23  C   UNL     1      44.368 -21.037   2.609  1.00  0.00     0.084 A 
HETATM   24  C   UNL     1      44.618 -21.713   3.793  1.00  0.00     0.119 A 
HETATM   25  F   UNL     1      44.783 -23.040   3.778  1.00  0.00    -0.206 F 
HETATM   26  C   UNL     1      44.689 -21.036   5.009  1.00  0.00     0.051 A 
ENDBRANCH  18  19
ENDBRANCH  14  18
ENDBRANCH   1  11
BRANCH   5  27
HETATM   27  C   UNL     1      38.689 -14.949   1.743  1.00  0.00     0.175 C 
BRANCH  27  28
HETATM   28  C   UNL     1      39.104 -14.250   0.468  1.00  0.00    -0.037 A 
HETATM   29  C   UNL     1      40.459 -14.198   0.099  1.00  0.00     0.048 A 
HETATM   30  C   UNL     1      40.784 -13.567  -1.083  1.00  0.00     0.105 A 
HETATM   31  C   UNL     1      39.829 -12.984  -1.882  1.00  0.00     0.105 A 
HETATM   32  O   UNL     1      42.037 -13.443  -1.598  1.00  0.00    -0.323 OA
HETATM   33  O   UNL     1      40.362 -12.425  -3.001  1.00  0.00    -0.323 OA
HETATM   34  C   UNL     1      38.495 -12.993  -1.543  1.00  0.00     0.040 A 
HETATM   35  C   UNL     1      41.748 -12.804  -2.860  1.00  0.00     0.352 A 
HETATM   36  C   UNL     1      38.132 -13.632  -0.353  1.00  0.00     0.012 A 
ENDBRANCH  27  28
ENDBRANCH   5  27
TORSDOF 6
ENDMDL
MODEL 6
REMARK VINA RESULT:      -9.3      1.827      3.075
REMARK  6 active torsions:
REMARK  status: ('A' for Active; 'I' for Inactive)
REMARK    1  A    between atoms: C_2  and  C_3 
REMARK    2  A    between atoms: C_3  and  C_4 
REMARK    3  A    between atoms: N_7  and  C_9 
REMARK    4  A    between atoms: C_9  and  C_10 
REMARK    5  A    between atoms: N_23  and  C_24 
REMARK    6  A    between atoms: C_24  and  C_25 
ROOT
HETATM    1  C   UNL     1      40.840 -12.025   3.941  1.00  0.00     0.119 C 
HETATM    2  N   UNL     1      40.002 -12.897   4.749  1.00  0.00    -0.324 N 
HETATM    3  C   UNL     1      39.477 -12.231   5.839  1.00  0.00     0.326 C 
HETATM    4  O   UNL     1      38.624 -12.727   6.552  1.00  0.00    -0.247 OA
HETATM    5  N   UNL     1      40.068 -11.017   5.940  1.00  0.00    -0.264 N 
HETATM    6  C   UNL     1      40.923 -10.810   4.897  1.00  0.00     0.257 C 
HETATM    7  O   UNL     1      41.637  -9.834   4.724  1.00  0.00    -0.270 OA
HETATM    8  H   UNL     1      39.383 -13.604   4.366  1.00  0.00     0.165 HD
ENDROOT
BRANCH   1   9
HETATM    9  C   UNL     1      40.036 -11.616   2.683  1.00  0.00     0.037 C 
HETATM   10  C   UNL     1      38.798 -12.453   2.389  1.00  0.00     0.008 C 
ENDBRANCH   1   9
BRANCH   1  11
HETATM   11  C   UNL     1      42.254 -12.630   3.666  1.00  0.00     0.026 C 
HETATM   12  C   UNL     1      42.391 -13.319   2.298  1.00  0.00     0.035 C 
HETATM   13  C   UNL     1      41.781 -14.715   2.230  1.00  0.00     0.235 C 
HETATM   14  N   UNL     1      42.326 -15.596   3.327  1.00  0.00    -0.067 N 
HETATM   15  H   UNL     1      43.329 -15.721   3.141  1.00  0.00     0.280 HD
HETATM   16  C   UNL     1      42.190 -14.989   4.706  1.00  0.00     0.235 C 
HETATM   17  C   UNL     1      42.792 -13.595   4.744  1.00  0.00     0.035 C 
BRANCH  14  18
HETATM   18  C   UNL     1      41.715 -16.991   3.333  1.00  0.00     0.273 C 
BRANCH  18  19
HETATM   19  C   UNL     1      42.709 -18.120   3.341  1.00  0.00    -0.027 A 
HETATM   20  C   UNL     1      42.812 -19.009   2.262  1.00  0.00     0.051 A 
HETATM   21  C   UNL     1      43.728 -20.062   2.310  1.00  0.00     0.119 A 
HETATM   22  F   UNL     1      43.805 -20.901   1.271  1.00  0.00    -0.206 F 
HETATM   23  C   UNL     1      44.547 -20.259   3.412  1.00  0.00     0.084 A 
HETATM   24  C   UNL     1      44.446 -19.379   4.478  1.00  0.00     0.119 A 
HETATM   25  F   UNL     1      45.219 -19.552   5.556  1.00  0.00    -0.206 F 
HETATM   26  C   UNL     1      43.543 -18.318   4.455  1.00  0.00     0.051 A 
ENDBRANCH  18  19
ENDBRANCH  14  18
ENDBRANCH   1  11
BRANCH   5  27
HETATM   27  C   UNL     1      39.809 -10.070   7.001  1.00  0.00     0.175 C 
BRANCH  27  28
HETATM   28  C   UNL     1      40.629 -10.382   8.232  1.00  0.00    -0.037 A 
HETATM   29  C   UNL     1      42.031 -10.329   8.179  1.00  0.00     0.048 A 
HETATM   30  C   UNL     1      42.734 -10.601   9.334  1.00  0.00     0.105 A 
HETATM   31  C   UNL     1      42.100 -10.934  10.508  1.00  0.00     0.105 A 
HETATM   32  O   UNL     1      44.087 -10.576   9.466  1.00  0.00    -0.323 OA
HETATM   33  O   UNL     1      42.975 -11.155  11.525  1.00  0.00    -0.323 OA
HETATM   34  C   UNL     1      40.729 -11.019  10.594  1.00  0.00     0.040 A 
HETATM   35  C   UNL     1      44.227 -10.833  10.879  1.00  0.00     0.352 A 
HETATM   36  C   UNL     1      39.987 -10.742   9.440  1.00  0.00     0.012 A 
ENDBRANCH  27  28
ENDBRANCH   5  27
TORSDOF 6
ENDMDL
MODEL 7
REMARK VINA RESULT:      -9.2      3.849      6.271
REMARK  6 active torsions:
REMARK  status: ('A' for Active; 'I' for Inactive)
REMARK    1  A    between atoms: C_2  and  C_3 
REMARK    2  A    between atoms: C_3  and  C_4 
REMARK    3  A    between atoms: N_7  and  C_9 
REMARK    4  A    between atoms: C_9  and  C_10 
REMARK    5  A    between atoms: N_23  and  C_24 
REMARK    6  A    between atoms: C_24  and  C_25 
ROOT
HETATM    1  C   UNL     1      41.542 -15.446   4.033  1.00  0.00     0.119 C 
HETATM    2  N   UNL     1      40.406 -15.997   3.311  1.00  0.00    -0.324 N 
HETATM    3  C   UNL     1      39.702 -15.016   2.642  1.00  0.00     0.326 C 
HETATM    4  O   UNL     1      38.816 -15.279   1.850  1.00  0.00    -0.247 OA
HETATM    5  N   UNL     1      40.165 -13.803   3.027  1.00  0.00    -0.264 N 
HETATM    6  C   UNL     1      41.220 -13.939   3.880  1.00  0.00     0.257 C 
HETATM    7  O   UNL     1      41.829 -13.036   4.436  1.00  0.00    -0.270 OA
HETATM    8  H   UNL     1      40.418 -16.890   2.830  1.00  0.00     0.165 HD
ENDROOT
BRANCH   1   9
HETATM    9  C   UNL     1      42.824 -15.766   3.227  1.00  0.00     0.037 C 
HETATM   10  C   UNL     1      42.629 -15.983   1.732  1.00  0.00     0.008 C 
ENDBRANCH   1   9
BRANCH   1  11
HETATM   11  C   UNL     1      41.570 -15.872   5.535  1.00  0.00     0.026 C 
HETATM   12  C   UNL     1      42.882 -15.535   6.263  1.00  0.00     0.035 C 
HETATM   13  C   UNL     1      44.031 -16.493   5.970  1.00  0.00     0.235 C 
HETATM   14  N   UNL     1      43.625 -17.921   6.239  1.00  0.00    -0.067 N 
HETATM   15  H   UNL     1      43.448 -17.998   7.249  1.00  0.00     0.280 HD
HETATM   16  C   UNL     1      42.356 -18.329   5.523  1.00  0.00     0.235 C 
HETATM   17  C   UNL     1      41.231 -17.351   5.819  1.00  0.00     0.035 C 
BRANCH  14  18
HETATM   18  C   UNL     1      44.723 -18.927   5.919  1.00  0.00     0.273 C 
BRANCH  18  19
HETATM   19  C   UNL     1      44.520 -19.707   4.649  1.00  0.00    -0.027 A 
HETATM   20  C   UNL     1      44.721 -21.094   4.605  1.00  0.00     0.051 A 
HETATM   21  C   UNL     1      44.548 -21.787   3.405  1.00  0.00     0.119 A 
HETATM   22  F   UNL     1      44.751 -23.109   3.386  1.00  0.00    -0.206 F 
HETATM   23  C   UNL     1      44.183 -21.133   2.239  1.00  0.00     0.084 A 
HETATM   24  C   UNL     1      43.981 -19.762   2.283  1.00  0.00     0.119 A 
HETATM   25  F   UNL     1      43.636 -19.106   1.169  1.00  0.00    -0.206 F 
HETATM   26  C   UNL     1      44.144 -19.047   3.467  1.00  0.00     0.051 A 
ENDBRANCH  18  19
ENDBRANCH  14  18
ENDBRANCH   1  11
BRANCH   5  27
HETATM   27  C   UNL     1      39.621 -12.542   2.575  1.00  0.00     0.175 C 
BRANCH  27  28
HETATM   28  C   UNL     1      40.221 -12.123   1.252  1.00  0.00    -0.037 A 
HETATM   29  C   UNL     1      41.512 -11.573   1.205  1.00  0.00     0.048 A 
HETATM   30  C   UNL     1      42.023 -11.226  -0.028  1.00  0.00     0.105 A 
HETATM   31  C   UNL     1      41.300 -11.389  -1.186  1.00  0.00     0.105 A 
HETATM   32  O   UNL     1      43.257 -10.702  -0.258  1.00  0.00    -0.323 OA
HETATM   33  O   UNL     1      41.991 -10.992  -2.288  1.00  0.00    -0.323 OA
HETATM   34  C   UNL     1      40.023 -11.902  -1.178  1.00  0.00     0.040 A 
HETATM   35  C   UNL     1      43.264 -10.648  -1.700  1.00  0.00     0.352 A 
HETATM   36  C   UNL     1      39.479 -12.271   0.057  1.00  0.00     0.012 A 
ENDBRANCH  27  28
ENDBRANCH   5  27
TORSDOF 6
ENDMDL
MODEL 8
REMARK VINA RESULT:      -9.1      1.982      2.880
REMARK  6 active torsions:
REMARK  status: ('A' for Active; 'I' for Inactive)
REMARK    1  A    between atoms: C_2  and  C_3 
REMARK    2  A    between atoms: C_3  and  C_4 
REMARK    3  A    between atoms: N_7  and  C_9 
REMARK    4  A    between atoms: C_9  and  C_10 
REMARK    5  A    between atoms: N_23  and  C_24 
REMARK    6  A    between atoms: C_24  and  C_25 
ROOT
HETATM    1  C   UNL     1      41.489 -14.943   5.509  1.00  0.00     0.119 C 
HETATM    2  N   UNL     1      41.917 -15.977   6.439  1.00  0.00    -0.324 N 
HETATM    3  C   UNL     1      43.147 -15.685   6.995  1.00  0.00     0.326 C 
HETATM    4  O   UNL     1      43.613 -16.332   7.914  1.00  0.00    -0.247 OA
HETATM    5  N   UNL     1      43.680 -14.620   6.349  1.00  0.00    -0.264 N 
HETATM    6  C   UNL     1      42.805 -14.132   5.423  1.00  0.00     0.257 C 
HETATM    7  O   UNL     1      43.004 -13.207   4.651  1.00  0.00    -0.270 OA
HETATM    8  H   UNL     1      41.292 -16.469   7.068  1.00  0.00     0.165 HD
ENDROOT
BRANCH   1   9
HETATM    9  C   UNL     1      40.415 -14.078   6.213  1.00  0.00     0.037 C 
HETATM   10  C   UNL     1      39.536 -13.240   5.295  1.00  0.00     0.008 C 
ENDBRANCH   1   9
BRANCH   1  11
HETATM   11  C   UNL     1      41.081 -15.515   4.114  1.00  0.00     0.026 C 
HETATM   12  C   UNL     1      40.934 -17.046   4.078  1.00  0.00     0.035 C 
HETATM   13  C   UNL     1      42.253 -17.806   4.003  1.00  0.00     0.235 C 
HETATM   14  N   UNL     1      43.089 -17.323   2.842  1.00  0.00    -0.067 N 
HETATM   15  H   UNL     1      42.578 -17.565   1.984  1.00  0.00     0.280 HD
HETATM   16  C   UNL     1      43.301 -15.825   2.838  1.00  0.00     0.235 C 
HETATM   17  C   UNL     1      41.973 -15.092   2.928  1.00  0.00     0.035 C 
BRANCH  14  18
HETATM   18  C   UNL     1      44.440 -18.019   2.747  1.00  0.00     0.273 C 
BRANCH  18  19
HETATM   19  C   UNL     1      44.400 -19.511   2.927  1.00  0.00    -0.027 A 
HETATM   20  C   UNL     1      44.738 -20.108   4.150  1.00  0.00     0.051 A 
HETATM   21  C   UNL     1      44.715 -21.498   4.278  1.00  0.00     0.119 A 
HETATM   22  F   UNL     1      45.046 -22.046   5.453  1.00  0.00    -0.206 F 
HETATM   23  C   UNL     1      44.368 -22.318   3.215  1.00  0.00     0.084 A 
HETATM   24  C   UNL     1      44.032 -21.728   2.006  1.00  0.00     0.119 A 
HETATM   25  F   UNL     1      43.701 -22.496   0.962  1.00  0.00    -0.206 F 
HETATM   26  C   UNL     1      44.044 -20.343   1.852  1.00  0.00     0.051 A 
ENDBRANCH  18  19
ENDBRANCH  14  18
ENDBRANCH   1  11
BRANCH   5  27
HETATM   27  C   UNL     1      44.989 -14.072   6.624  1.00  0.00     0.175 C 
BRANCH  27  28
HETATM   28  C   UNL     1      44.928 -13.010   7.698  1.00  0.00    -0.037 A 
HETATM   29  C   UNL     1      43.689 -12.506   8.125  1.00  0.00     0.048 A 
HETATM   30  C   UNL     1      43.686 -11.553   9.121  1.00  0.00     0.105 A 
HETATM   31  C   UNL     1      44.850 -11.084   9.681  1.00  0.00     0.105 A 
HETATM   32  O   UNL     1      42.581 -10.975   9.665  1.00  0.00    -0.323 OA
HETATM   33  O   UNL     1      44.623 -10.156  10.649  1.00  0.00    -0.323 OA
HETATM   34  C   UNL     1      46.085 -11.535   9.274  1.00  0.00     0.040 A 
HETATM   35  C   UNL     1      43.179 -10.164  10.698  1.00  0.00     0.352 A 
HETATM   36  C   UNL     1      46.122 -12.508   8.269  1.00  0.00     0.012 A 
ENDBRANCH  27  28
ENDBRANCH   5  27
TORSDOF 6
ENDMDL
MODEL 9
REMARK VINA RESULT:      -9.0      4.320      8.758
REMARK  6 active torsions:
REMARK  status: ('A' for Active; 'I' for Inactive)
REMARK    1  A    between atoms: C_2  and  C_3 
REMARK    2  A    between atoms: C_3  and  C_4 
REMARK    3  A    between atoms: N_7  and  C_9 
REMARK    4  A    between atoms: C_9  and  C_10 
REMARK    5  A    between atoms: N_23  and  C_24 
REMARK    6  A    between atoms: C_24  and  C_25 
ROOT
HETATM    1  C   UNL     1      41.023 -14.877   5.007  1.00  0.00     0.119 C 
HETATM    2  N   UNL     1      40.291 -15.240   3.805  1.00  0.00    -0.324 N 
HETATM    3  C   UNL     1      41.096 -15.898   2.897  1.00  0.00     0.326 C 
HETATM    4  O   UNL     1      40.648 -16.430   1.898  1.00  0.00    -0.247 OA
HETATM    5  N   UNL     1      42.382 -15.826   3.316  1.00  0.00    -0.264 N 
HETATM    6  C   UNL     1      42.458 -15.204   4.528  1.00  0.00     0.257 C 
HETATM    7  O   UNL     1      43.477 -14.947   5.151  1.00  0.00    -0.270 OA
HETATM    8  H   UNL     1      39.327 -15.558   3.800  1.00  0.00     0.165 HD
ENDROOT
BRANCH   1   9
HETATM    9  C   UNL     1      40.631 -15.872   6.127  1.00  0.00     0.037 C 
HETATM   10  C   UNL     1      41.639 -16.979   6.409  1.00  0.00     0.008 C 
ENDBRANCH   1   9
BRANCH   1  11
HETATM   11  C   UNL     1      40.876 -13.365   5.372  1.00  0.00     0.026 C 
HETATM   12  C   UNL     1      39.446 -12.817   5.230  1.00  0.00     0.035 C 
HETATM   13  C   UNL     1      39.027 -12.511   3.796  1.00  0.00     0.235 C 
HETATM   14  N   UNL     1      40.019 -11.591   3.128  1.00  0.00    -0.067 N 
HETATM   15  H   UNL     1      39.980 -10.693   3.628  1.00  0.00     0.280 HD
HETATM   16  C   UNL     1      41.445 -12.091   3.203  1.00  0.00     0.235 C 
HETATM   17  C   UNL     1      41.834 -12.402   4.639  1.00  0.00     0.035 C 
BRANCH  14  18
HETATM   18  C   UNL     1      39.672 -11.288   1.677  1.00  0.00     0.273 C 
BRANCH  18  19
HETATM   19  C   UNL     1      40.508 -12.015   0.659  1.00  0.00    -0.027 A 
HETATM   20  C   UNL     1      41.614 -11.403   0.052  1.00  0.00     0.051 A 
HETATM   21  C   UNL     1      42.355 -12.096  -0.908  1.00  0.00     0.119 A 
HETATM   22  F   UNL     1      43.403 -11.490  -1.478  1.00  0.00    -0.206 F 
HETATM   23  C   UNL     1      42.021 -13.387  -1.287  1.00  0.00     0.084 A 
HETATM   24  C   UNL     1      40.930 -13.993  -0.685  1.00  0.00     0.119 A 
HETATM   25  F   UNL     1      40.582 -15.235  -1.039  1.00  0.00    -0.206 F 
HETATM   26  C   UNL     1      40.174 -13.326   0.278  1.00  0.00     0.051 A 
ENDBRANCH  18  19
ENDBRANCH  14  18
ENDBRANCH   1  11
BRANCH   5  27
HETATM   27  C   UNL     1      43.509 -16.353   2.582  1.00  0.00     0.175 C 
BRANCH  27  28
HETATM   28  C   UNL     1      43.785 -17.793   2.952  1.00  0.00    -0.037 A 
HETATM   29  C   UNL     1      43.673 -18.805   1.986  1.00  0.00     0.048 A 
HETATM   30  C   UNL     1      43.954 -20.100   2.367  1.00  0.00     0.105 A 
HETATM   31  C   UNL     1      44.319 -20.414   3.655  1.00  0.00     0.105 A 
HETATM   32  O   UNL     1      43.916 -21.193   1.559  1.00  0.00    -0.323 OA
HETATM   33  O   UNL     1      44.558 -21.743   3.817  1.00  0.00    -0.323 OA
HETATM   34  C   UNL     1      44.416 -19.454   4.637  1.00  0.00     0.040 A 
HETATM   35  C   UNL     1      44.394 -22.214   2.461  1.00  0.00     0.352 A 
HETATM   36  C   UNL     1      44.144 -18.129   4.279  1.00  0.00     0.012 A 
ENDBRANCH  27  28
ENDBRANCH   5  27
TORSDOF 6
ENDMDL
MODEL 10
REMARK VINA RESULT:      -8.9      5.252      8.326
REMARK  6 active torsions:
REMARK  status: ('A' for Active; 'I' for Inactive)
REMARK    1  A    between atoms: C_2  and  C_3 
REMARK    2  A    between atoms: C_3  and  C_4 
REMARK    3  A    between atoms: N_7  and  C_9 
REMARK    4  A    between atoms: C_9  and  C_10 
REMARK    5  A    between atoms: N_23  and  C_24 
REMARK    6  A    between atoms: C_24  and  C_25 
ROOT
HETATM    1  C   UNL     1      40.924 -13.194   1.971  1.00  0.00     0.119 C 
HETATM    2  N   UNL     1      41.599 -11.952   1.628  1.00  0.00    -0.324 N 
HETATM    3  C   UNL     1      41.960 -11.920   0.296  1.00  0.00     0.326 C 
HETATM    4  O   UNL     1      42.390 -10.912  -0.235  1.00  0.00    -0.247 OA
HETATM    5  N   UNL     1      41.758 -13.144  -0.245  1.00  0.00    -0.264 N 
HETATM    6  C   UNL     1      41.192 -13.986   0.667  1.00  0.00     0.257 C 
HETATM    7  O   UNL     1      40.926 -15.167   0.502  1.00  0.00    -0.270 OA
HETATM    8  H   UNL     1      41.344 -11.045   2.004  1.00  0.00     0.165 HD
ENDROOT
BRANCH   1   9
HETATM    9  C   UNL     1      39.407 -12.903   2.075  1.00  0.00     0.037 C 
HETATM   10  C   UNL     1      39.033 -11.551   2.665  1.00  0.00     0.008 C 
ENDBRANCH   1   9
BRANCH   1  11
HETATM   11  C   UNL     1      41.557 -13.906   3.209  1.00  0.00     0.026 C 
HETATM   12  C   UNL     1      43.004 -14.379   2.994  1.00  0.00     0.035 C 
HETATM   13  C   UNL     1      43.134 -15.667   2.188  1.00  0.00     0.235 C 
HETATM   14  N   UNL     1      42.297 -16.768   2.792  1.00  0.00    -0.067 N 
HETATM   15  H   UNL     1      42.697 -16.975   3.716  1.00  0.00     0.280 HD
HETATM   16  C   UNL     1      40.851 -16.377   2.999  1.00  0.00     0.235 C 
HETATM   17  C   UNL     1      40.749 -15.084   3.791  1.00  0.00     0.035 C 
BRANCH  14  18
HETATM   18  C   UNL     1      42.355 -18.067   1.999  1.00  0.00     0.273 C 
BRANCH  18  19
HETATM   19  C   UNL     1      43.192 -19.153   2.618  1.00  0.00    -0.027 A 
HETATM   20  C   UNL     1      43.690 -19.036   3.923  1.00  0.00     0.051 A 
HETATM   21  C   UNL     1      44.484 -20.050   4.461  1.00  0.00     0.119 A 
HETATM   22  F   UNL     1      44.954 -19.913   5.707  1.00  0.00    -0.206 F 
HETATM   23  C   UNL     1      44.803 -21.184   3.730  1.00  0.00     0.084 A 
HETATM   24  C   UNL     1      44.309 -21.301   2.440  1.00  0.00     0.119 A 
HETATM   25  F   UNL     1      44.609 -22.381   1.711  1.00  0.00    -0.206 F 
HETATM   26  C   UNL     1      43.511 -20.305   1.880  1.00  0.00     0.051 A 
ENDBRANCH  18  19
ENDBRANCH  14  18
ENDBRANCH   1  11
BRANCH   5  27
HETATM   27  C   UNL     1      42.084 -13.497  -1.609  1.00  0.00     0.175 C 
BRANCH  27  28
HETATM   28  C   UNL     1      40.882 -14.054  -2.337  1.00  0.00    -0.037 A 
HETATM   29  C   UNL     1      39.711 -13.287  -2.458  1.00  0.00     0.048 A 
HETATM   30  C   UNL     1      38.650 -13.831  -3.150  1.00  0.00     0.105 A 
HETATM   31  C   UNL     1      38.708 -15.090  -3.697  1.00  0.00     0.105 A 
HETATM   32  O   UNL     1      37.455 -13.222  -3.379  1.00  0.00    -0.323 OA
HETATM   33  O   UNL     1      37.559 -15.430  -4.341  1.00  0.00    -0.323 OA
HETATM   34  C   UNL     1      39.828 -15.882  -3.579  1.00  0.00     0.040 A 
HETATM   35  C   UNL     1      36.807 -14.203  -4.216  1.00  0.00     0.352 A 
HETATM   36  C   UNL     1      40.925 -15.356  -2.889  1.00  0.00     0.012 A 
ENDBRANCH  27  28
ENDBRANCH   5  27
TORSDOF 6
ENDMDL
