MODEL 1
REMARK VINA RESULT:      -9.8      0.000      0.000
REMARK  4 active torsions:
REMARK  status: ('A' for Active; 'I' for Inactive)
REMARK    1  A    between atoms: C_5  and  N_6 
REMARK       I    between atoms: N_6  and  C_7 
REMARK    2  A    between atoms: C_7  and  C_8 
REMARK    3  A    between atoms: N_12  and  C_13 
REMARK    4  A    between atoms: C_24  and  O_25 
ROOT
HETATM    1  C   UNL     1      44.189 -14.290   6.747  1.00  0.00     0.034 A 
HETATM    2  C   UNL     1      43.109 -14.105   5.878  1.00  0.00     0.049 A 
HETATM    3  C   UNL     1      42.723 -15.194   5.123  1.00  0.00     0.064 A 
HETATM    4  C   UNL     1      43.334 -16.451   5.195  1.00  0.00     0.066 A 
HETATM    5  N   UNL     1      42.660 -17.301   4.290  1.00  0.00    -0.293 N 
HETATM    6  C   UNL     1      41.684 -16.522   3.607  1.00  0.00     0.328 A 
HETATM    7  O   UNL     1      40.952 -16.860   2.693  1.00  0.00    -0.247 OA
HETATM    8  N   UNL     1      41.716 -15.245   4.172  1.00  0.00    -0.306 N 
HETATM    9  C   UNL     1      44.398 -16.642   6.049  1.00  0.00     0.033 A 
HETATM   10  C   UNL     1      44.820 -15.554   6.831  1.00  0.00     0.019 A 
HETATM   11  H   UNL     1      41.119 -14.495   3.865  1.00  0.00     0.171 HD
ENDROOT
BRANCH   1  12
HETATM   12  C   UNL     1      44.699 -13.201   7.628  1.00  0.00     0.252 C 
HETATM   13  N   UNL     1      43.769 -12.508   8.367  1.00  0.00    -0.346 N 
HETATM   14  H   UNL     1      42.783 -12.716   8.315  1.00  0.00     0.163 HD
HETATM   15  O   UNL     1      45.898 -12.959   7.684  1.00  0.00    -0.268 OA
BRANCH  13  16
HETATM   16  C   UNL     1      44.167 -11.452   9.280  1.00  0.00     0.147 C 
HETATM   17  C   UNL     1      43.020 -10.546   9.639  1.00  0.00    -0.027 A 
HETATM   18  C   UNL     1      43.020 -10.261  11.009  1.00  0.00    -0.047 A 
HETATM   19  C   UNL     1      42.080  -9.971   8.795  1.00  0.00     0.010 A 
HETATM   20  C   UNL     1      42.072  -9.416  11.564  1.00  0.00     0.008 A 
HETATM   21  C   UNL     1      44.172 -10.923  11.706  1.00  0.00     0.073 C 
HETATM   22  C   UNL     1      41.108  -8.856  10.724  1.00  0.00     0.001 A 
HETATM   23  C   UNL     1      41.115  -9.128   9.348  1.00  0.00     0.001 A 
HETATM   24  C   UNL     1      44.603 -11.985  10.680  1.00  0.00     0.149 C 
BRANCH  24  25
HETATM   25  O   UNL     1      43.951 -13.227  11.002  1.00  0.00    -0.393 OA
HETATM   26  H   UNL     1      43.994 -13.297  11.972  1.00  0.00     0.210 HD
ENDBRANCH  24  25
ENDBRANCH  13  16
ENDBRANCH   1  12
BRANCH   5  27
HETATM   27  C   UNL     1      42.969 -18.654   3.878  1.00  0.00     0.095 C 
HETATM   28  C   UNL     1      43.759 -18.868   2.588  1.00  0.00     0.026 C 
HETATM   29  C   UNL     1      44.234 -20.308   2.705  1.00  0.00     0.002 C 
HETATM   30  C   UNL     1      44.670 -20.421   4.155  1.00  0.00     0.002 C 
HETATM   31  C   UNL     1      43.812 -19.416   4.924  1.00  0.00     0.026 C 
ENDBRANCH   5  27
TORSDOF 4
ENDMDL
MODEL 2
REMARK VINA RESULT:      -9.7      1.358      2.289
REMARK  4 active torsions:
REMARK  status: ('A' for Active; 'I' for Inactive)
REMARK    1  A    between atoms: C_5  and  N_6 
REMARK       I    between atoms: N_6  and  C_7 
REMARK    2  A    between atoms: C_7  and  C_8 
REMARK    3  A    between atoms: N_12  and  C_13 
REMARK    4  A    between atoms: C_24  and  O_25 
ROOT
HETATM    1  C   UNL     1      44.391 -14.353   6.774  1.00  0.00     0.034 A 
HETATM    2  C   UNL     1      44.583 -15.690   7.137  1.00  0.00     0.049 A 
HETATM    3  C   UNL     1      44.145 -16.647   6.245  1.00  0.00     0.064 A 
HETATM    4  C   UNL     1      43.548 -16.353   5.014  1.00  0.00     0.066 A 
HETATM    5  N   UNL     1      43.251 -17.582   4.384  1.00  0.00    -0.293 N 
HETATM    6  C   UNL     1      43.600 -18.627   5.284  1.00  0.00     0.328 A 
HETATM    7  O   UNL     1      43.425 -19.827   5.153  1.00  0.00    -0.247 OA
HETATM    8  N   UNL     1      44.188 -18.024   6.398  1.00  0.00    -0.306 N 
HETATM    9  C   UNL     1      43.356 -15.039   4.647  1.00  0.00     0.033 A 
HETATM   10  C   UNL     1      43.788 -14.038   5.533  1.00  0.00     0.019 A 
HETATM   11  H   UNL     1      44.525 -18.547   7.189  1.00  0.00     0.171 HD
ENDROOT
BRANCH   1  12
HETATM   12  C   UNL     1      44.830 -13.221   7.640  1.00  0.00     0.252 C 
HETATM   13  N   UNL     1      43.856 -12.569   8.357  1.00  0.00    -0.346 N 
HETATM   14  H   UNL     1      42.884 -12.833   8.301  1.00  0.00     0.163 HD
HETATM   15  O   UNL     1      46.013 -12.911   7.701  1.00  0.00    -0.268 OA
BRANCH  13  16
HETATM   16  C   UNL     1      44.185 -11.476   9.254  1.00  0.00     0.147 C 
HETATM   17  C   UNL     1      42.994 -10.605   9.552  1.00  0.00    -0.027 A 
HETATM   18  C   UNL     1      42.938 -10.284  10.913  1.00  0.00    -0.047 A 
HETATM   19  C   UNL     1      42.062 -10.087   8.663  1.00  0.00     0.010 A 
HETATM   20  C   UNL     1      41.942  -9.462  11.414  1.00  0.00     0.008 A 
HETATM   21  C   UNL     1      44.090 -10.885  11.664  1.00  0.00     0.073 C 
HETATM   22  C   UNL     1      40.987  -8.959  10.529  1.00  0.00     0.001 A 
HETATM   23  C   UNL     1      41.048  -9.267   9.162  1.00  0.00     0.001 A 
HETATM   24  C   UNL     1      44.593 -11.956  10.681  1.00  0.00     0.149 C 
BRANCH  24  25
HETATM   25  O   UNL     1      43.977 -13.213  11.015  1.00  0.00    -0.393 OA
HETATM   26  H   UNL     1      43.120 -12.982  11.415  1.00  0.00     0.210 HD
ENDBRANCH  24  25
ENDBRANCH  13  16
ENDBRANCH   1  12
BRANCH   5  27
HETATM   27  C   UNL     1      42.515 -17.849   3.166  1.00  0.00     0.095 C 
HETATM   28  C   UNL     1      41.207 -17.100   2.916  1.00  0.00     0.026 C 
HETATM   29  C   UNL     1      40.961 -17.312   1.431  1.00  0.00     0.002 C 
HETATM   30  C   UNL     1      42.336 -17.123   0.813  1.00  0.00     0.002 C 
HETATM   31  C   UNL     1      43.335 -17.536   1.895  1.00  0.00     0.026 C 
ENDBRANCH   5  27
TORSDOF 4
ENDMDL
MODEL 3
REMARK VINA RESULT:      -9.4      5.886      8.801
REMARK  4 active torsions:
REMARK  status: ('A' for Active; 'I' for Inactive)
REMARK    1  A    between atoms: C_5  and  N_6 
REMARK       I    between atoms: N_6  and  C_7 
REMARK    2  A    between atoms: C_7  and  C_8 
REMARK    3  A    between atoms: N_12  and  C_13 
REMARK    4  A    between atoms: C_24  and  O_25 
ROOT
HETATM    1  C   UNL     1      41.996 -16.453   1.817  1.00  0.00     0.034 A 
HETATM    2  C   UNL     1      42.431 -16.078   3.092  1.00  0.00     0.049 A 
HETATM    3  C   UNL     1      43.211 -16.987   3.777  1.00  0.00     0.064 A 
HETATM    4  C   UNL     1      43.595 -18.231   3.263  1.00  0.00     0.066 A 
HETATM    5  N   UNL     1      44.392 -18.865   4.243  1.00  0.00    -0.293 N 
HETATM    6  C   UNL     1      44.418 -18.026   5.391  1.00  0.00     0.328 A 
HETATM    7  O   UNL     1      44.925 -18.247   6.477  1.00  0.00    -0.247 OA
HETATM    8  N   UNL     1      43.723 -16.860   5.058  1.00  0.00    -0.306 N 
HETATM    9  C   UNL     1      43.173 -18.608   2.007  1.00  0.00     0.033 A 
HETATM   10  C   UNL     1      42.374 -17.708   1.282  1.00  0.00     0.019 A 
HETATM   11  H   UNL     1      43.593 -16.098   5.702  1.00  0.00     0.171 HD
ENDROOT
BRANCH   1  12
HETATM   12  C   UNL     1      41.160 -15.560   0.965  1.00  0.00     0.252 C 
HETATM   13  N   UNL     1      41.730 -15.085  -0.192  1.00  0.00    -0.346 N 
HETATM   14  H   UNL     1      42.674 -15.320  -0.458  1.00  0.00     0.163 HD
HETATM   15  O   UNL     1      40.013 -15.284   1.297  1.00  0.00    -0.268 OA
BRANCH  13  16
HETATM   16  C   UNL     1      40.986 -14.237  -1.106  1.00  0.00     0.147 C 
HETATM   17  C   UNL     1      41.727 -12.969  -1.437  1.00  0.00    -0.027 A 
HETATM   18  C   UNL     1      41.643 -12.685  -2.804  1.00  0.00    -0.047 A 
HETATM   19  C   UNL     1      42.379 -12.101  -0.571  1.00  0.00     0.010 A 
HETATM   20  C   UNL     1      42.224 -11.545  -3.335  1.00  0.00     0.008 A 
HETATM   21  C   UNL     1      40.824 -13.714  -3.528  1.00  0.00     0.073 C 
HETATM   22  C   UNL     1      42.903 -10.682  -2.473  1.00  0.00     0.001 A 
HETATM   23  C   UNL     1      42.976 -10.956  -1.100  1.00  0.00     0.001 A 
HETATM   24  C   UNL     1      40.798 -14.874  -2.517  1.00  0.00     0.149 C 
BRANCH  24  25
HETATM   25  O   UNL     1      41.864 -15.787  -2.835  1.00  0.00    -0.393 OA
HETATM   26  H   UNL     1      42.466 -15.288  -3.415  1.00  0.00     0.210 HD
ENDBRANCH  24  25
ENDBRANCH  13  16
ENDBRANCH   1  12
BRANCH   5  27
HETATM   27  C   UNL     1      44.929 -20.209   4.277  1.00  0.00     0.095 C 
HETATM   28  C   UNL     1      44.453 -21.164   5.371  1.00  0.00     0.026 C 
HETATM   29  C   UNL     1      44.885 -22.528   4.855  1.00  0.00     0.002 C 
HETATM   30  C   UNL     1      44.538 -22.474   3.377  1.00  0.00     0.002 C 
HETATM   31  C   UNL     1      44.636 -21.000   2.984  1.00  0.00     0.026 C 
ENDBRANCH   5  27
TORSDOF 4
ENDMDL
MODEL 4
REMARK VINA RESULT:      -9.4      6.178      9.012
REMARK  4 active torsions:
REMARK  status: ('A' for Active; 'I' for Inactive)
REMARK    1  A    between atoms: C_5  and  N_6 
REMARK       I    between atoms: N_6  and  C_7 
REMARK    2  A    between atoms: C_7  and  C_8 
REMARK    3  A    between atoms: N_12  and  C_13 
REMARK    4  A    between atoms: C_24  and  O_25 
ROOT
HETATM    1  C   UNL     1      41.879 -16.133   1.408  1.00  0.00     0.034 A 
HETATM    2  C   UNL     1      42.384 -17.342   0.917  1.00  0.00     0.049 A 
HETATM    3  C   UNL     1      43.043 -18.153   1.818  1.00  0.00     0.064 A 
HETATM    4  C   UNL     1      43.214 -17.841   3.172  1.00  0.00     0.066 A 
HETATM    5  N   UNL     1      43.921 -18.910   3.766  1.00  0.00    -0.293 N 
HETATM    6  C   UNL     1      44.250 -19.837   2.739  1.00  0.00     0.328 A 
HETATM    7  O   UNL     1      44.925 -20.849   2.822  1.00  0.00    -0.247 OA
HETATM    8  N   UNL     1      43.659 -19.368   1.563  1.00  0.00    -0.306 N 
HETATM    9  C   UNL     1      42.719 -16.653   3.664  1.00  0.00     0.033 A 
HETATM   10  C   UNL     1      42.043 -15.801   2.774  1.00  0.00     0.019 A 
HETATM   11  H   UNL     1      43.742 -19.845   0.681  1.00  0.00     0.171 HD
ENDROOT
BRANCH   1  12
HETATM   12  C   UNL     1      41.134 -15.172   0.545  1.00  0.00     0.252 C 
HETATM   13  N   UNL     1      41.742 -14.781  -0.624  1.00  0.00    -0.346 N 
HETATM   14  H   UNL     1      42.654 -15.119  -0.891  1.00  0.00     0.163 HD
HETATM   15  O   UNL     1      40.027 -14.770   0.879  1.00  0.00    -0.268 OA
BRANCH  13  16
HETATM   16  C   UNL     1      41.085 -13.874  -1.548  1.00  0.00     0.147 C 
HETATM   17  C   UNL     1      41.837 -12.581  -1.710  1.00  0.00    -0.027 A 
HETATM   18  C   UNL     1      41.891 -12.200  -3.055  1.00  0.00    -0.047 A 
HETATM   19  C   UNL     1      42.382 -11.772  -0.721  1.00  0.00     0.010 A 
HETATM   20  C   UNL     1      42.507 -11.020  -3.441  1.00  0.00     0.008 A 
HETATM   21  C   UNL     1      41.167 -13.180  -3.931  1.00  0.00     0.073 C 
HETATM   22  C   UNL     1      43.080 -10.216  -2.454  1.00  0.00     0.001 A 
HETATM   23  C   UNL     1      43.014 -10.587  -1.103  1.00  0.00     0.001 A 
HETATM   24  C   UNL     1      41.053 -14.410  -3.013  1.00  0.00     0.149 C 
BRANCH  24  25
HETATM   25  O   UNL     1      42.160 -15.289  -3.282  1.00  0.00    -0.393 OA
HETATM   26  H   UNL     1      41.759 -16.121  -3.589  1.00  0.00     0.210 HD
ENDBRANCH  24  25
ENDBRANCH  13  16
ENDBRANCH   1  12
BRANCH   5  27
HETATM   27  C   UNL     1      44.469 -19.035   5.100  1.00  0.00     0.095 C 
HETATM   28  C   UNL     1      44.794 -17.764   5.884  1.00  0.00     0.026 C 
HETATM   29  C   UNL     1      44.936 -18.264   7.314  1.00  0.00     0.002 C 
HETATM   30  C   UNL     1      43.787 -19.245   7.463  1.00  0.00     0.002 C 
HETATM   31  C   UNL     1      43.531 -19.797   6.061  1.00  0.00     0.026 C 
ENDBRANCH   5  27
TORSDOF 4
ENDMDL
MODEL 5
REMARK VINA RESULT:      -9.2      5.597      8.723
REMARK  4 active torsions:
REMARK  status: ('A' for Active; 'I' for Inactive)
REMARK    1  A    between atoms: C_5  and  N_6 
REMARK       I    between atoms: N_6  and  C_7 
REMARK    2  A    between atoms: C_7  and  C_8 
REMARK    3  A    between atoms: N_12  and  C_13 
REMARK    4  A    between atoms: C_24  and  O_25 
ROOT
HETATM    1  C   UNL     1      42.656 -15.860   2.478  1.00  0.00     0.034 A 
HETATM    2  C   UNL     1      42.905 -15.778   3.852  1.00  0.00     0.049 A 
HETATM    3  C   UNL     1      43.526 -16.861   4.438  1.00  0.00     0.064 A 
HETATM    4  C   UNL     1      43.927 -18.006   3.739  1.00  0.00     0.066 A 
HETATM    5  N   UNL     1      44.531 -18.880   4.670  1.00  0.00    -0.293 N 
HETATM    6  C   UNL     1      44.418 -18.288   5.958  1.00  0.00     0.328 A 
HETATM    7  O   UNL     1      44.740 -18.757   7.037  1.00  0.00    -0.247 OA
HETATM    8  N   UNL     1      43.839 -17.029   5.778  1.00  0.00    -0.306 N 
HETATM    9  C   UNL     1      43.687 -18.094   2.385  1.00  0.00     0.033 A 
HETATM   10  C   UNL     1      43.054 -17.010   1.755  1.00  0.00     0.019 A 
HETATM   11  H   UNL     1      43.646 -16.401   6.540  1.00  0.00     0.171 HD
ENDROOT
BRANCH   1  12
HETATM   12  C   UNL     1      42.005 -14.754   1.718  1.00  0.00     0.252 C 
HETATM   13  N   UNL     1      41.007 -15.103   0.840  1.00  0.00    -0.346 N 
HETATM   14  H   UNL     1      40.726 -16.062   0.703  1.00  0.00     0.163 HD
HETATM   15  O   UNL     1      42.353 -13.593   1.894  1.00  0.00    -0.268 OA
BRANCH  13  16
HETATM   16  C   UNL     1      40.288 -14.098   0.078  1.00  0.00     0.147 C 
HETATM   17  C   UNL     1      39.962 -14.563  -1.315  1.00  0.00    -0.027 A 
HETATM   18  C   UNL     1      38.651 -14.219  -1.662  1.00  0.00    -0.047 A 
HETATM   19  C   UNL     1      40.794 -15.196  -2.229  1.00  0.00     0.010 A 
HETATM   20  C   UNL     1      38.140 -14.518  -2.915  1.00  0.00     0.008 A 
HETATM   21  C   UNL     1      37.970 -13.471  -0.553  1.00  0.00     0.073 C 
HETATM   22  C   UNL     1      38.963 -15.178  -3.829  1.00  0.00     0.001 A 
HETATM   23  C   UNL     1      40.283 -15.511  -3.489  1.00  0.00     0.001 A 
HETATM   24  C   UNL     1      38.870 -13.792   0.652  1.00  0.00     0.149 C 
BRANCH  24  25
HETATM   25  O   UNL     1      38.323 -14.926   1.348  1.00  0.00    -0.393 OA
HETATM   26  H   UNL     1      37.619 -14.565   1.915  1.00  0.00     0.210 HD
ENDBRANCH  24  25
ENDBRANCH  13  16
ENDBRANCH   1  12
BRANCH   5  27
HETATM   27  C   UNL     1      44.993 -20.242   4.503  1.00  0.00     0.095 C 
HETATM   28  C   UNL     1      44.445 -21.324   5.431  1.00  0.00     0.026 C 
HETATM   29  C   UNL     1      44.811 -22.616   4.716  1.00  0.00     0.002 C 
HETATM   30  C   UNL     1      44.496 -22.317   3.261  1.00  0.00     0.002 C 
HETATM   31  C   UNL     1      44.682 -20.807   3.100  1.00  0.00     0.026 C 
ENDBRANCH   5  27
TORSDOF 4
ENDMDL
MODEL 6
REMARK VINA RESULT:      -9.1      1.934      2.471
REMARK  4 active torsions:
REMARK  status: ('A' for Active; 'I' for Inactive)
REMARK    1  A    between atoms: C_5  and  N_6 
REMARK       I    between atoms: N_6  and  C_7 
REMARK    2  A    between atoms: C_7  and  C_8 
REMARK    3  A    between atoms: N_12  and  C_13 
REMARK    4  A    between atoms: C_24  and  O_25 
ROOT
HETATM    1  C   UNL     1      42.023 -12.561   6.123  1.00  0.00     0.034 A 
HETATM    2  C   UNL     1      40.839 -12.659   5.386  1.00  0.00     0.049 A 
HETATM    3  C   UNL     1      40.743 -13.710   4.497  1.00  0.00     0.064 A 
HETATM    4  C   UNL     1      41.743 -14.672   4.312  1.00  0.00     0.066 A 
HETATM    5  N   UNL     1      41.278 -15.583   3.338  1.00  0.00    -0.293 N 
HETATM    6  C   UNL     1      40.018 -15.116   2.872  1.00  0.00     0.328 A 
HETATM    7  O   UNL     1      39.327 -15.572   1.977  1.00  0.00    -0.247 OA
HETATM    8  N   UNL     1      39.695 -13.991   3.634  1.00  0.00    -0.306 N 
HETATM    9  C   UNL     1      42.913 -14.584   5.036  1.00  0.00     0.033 A 
HETATM   10  C   UNL     1      43.045 -13.525   5.949  1.00  0.00     0.019 A 
HETATM   11  H   UNL     1      38.847 -13.465   3.502  1.00  0.00     0.171 HD
ENDROOT
BRANCH   1  12
HETATM   12  C   UNL     1      42.250 -11.483   7.127  1.00  0.00     0.252 C 
HETATM   13  N   UNL     1      42.954 -11.820   8.259  1.00  0.00    -0.346 N 
HETATM   14  H   UNL     1      43.299 -12.755   8.414  1.00  0.00     0.163 HD
HETATM   15  O   UNL     1      41.828 -10.351   6.926  1.00  0.00    -0.268 OA
BRANCH  13  16
HETATM   16  C   UNL     1      43.257 -10.833   9.280  1.00  0.00     0.147 C 
HETATM   17  C   UNL     1      42.353 -10.956  10.477  1.00  0.00    -0.027 A 
HETATM   18  C   UNL     1      43.081 -10.837  11.665  1.00  0.00    -0.047 A 
HETATM   19  C   UNL     1      40.973 -11.105  10.503  1.00  0.00     0.010 A 
HETATM   20  C   UNL     1      42.451 -10.885  12.899  1.00  0.00     0.008 A 
HETATM   21  C   UNL     1      44.538 -10.600  11.394  1.00  0.00     0.073 C 
HETATM   22  C   UNL     1      41.067 -11.060  12.932  1.00  0.00     0.001 A 
HETATM   23  C   UNL     1      40.332 -11.166  11.741  1.00  0.00     0.001 A 
HETATM   24  C   UNL     1      44.665 -11.029   9.922  1.00  0.00     0.149 C 
BRANCH  24  25
HETATM   25  O   UNL     1      45.083 -12.405   9.877  1.00  0.00    -0.393 OA
HETATM   26  H   UNL     1      45.456 -12.590  10.757  1.00  0.00     0.210 HD
ENDBRANCH  24  25
ENDBRANCH  13  16
ENDBRANCH   1  12
BRANCH   5  27
HETATM   27  C   UNL     1      41.966 -16.679   2.687  1.00  0.00     0.095 C 
HETATM   28  C   UNL     1      43.278 -16.395   1.958  1.00  0.00     0.026 C 
HETATM   29  C   UNL     1      43.885 -17.779   1.782  1.00  0.00     0.002 C 
HETATM   30  C   UNL     1      43.627 -18.452   3.119  1.00  0.00     0.002 C 
HETATM   31  C   UNL     1      42.358 -17.803   3.670  1.00  0.00     0.026 C 
ENDBRANCH   5  27
TORSDOF 4
ENDMDL
MODEL 7
REMARK VINA RESULT:      -8.9      5.509      9.359
REMARK  4 active torsions:
REMARK  status: ('A' for Active; 'I' for Inactive)
REMARK    1  A    between atoms: C_5  and  N_6 
REMARK       I    between atoms: N_6  and  C_7 
REMARK    2  A    between atoms: C_7  and  C_8 
REMARK    3  A    between atoms: N_12  and  C_13 
REMARK    4  A    between atoms: C_24  and  O_25 
ROOT
HETATM    1  C   UNL     1      41.459 -14.894   1.194  1.00  0.00     0.034 A 
HETATM    2  C   UNL     1      41.505 -15.130  -0.184  1.00  0.00     0.049 A 
HETATM    3  C   UNL     1      41.769 -14.044  -0.993  1.00  0.00     0.064 A 
HETATM    4  C   UNL     1      42.005 -12.751  -0.514  1.00  0.00     0.066 A 
HETATM    5  N   UNL     1      42.247 -11.923  -1.633  1.00  0.00    -0.293 N 
HETATM    6  C   UNL     1      42.073 -12.712  -2.803  1.00  0.00     0.328 A 
HETATM    7  O   UNL     1      42.111 -12.355  -3.968  1.00  0.00    -0.247 OA
HETATM    8  N   UNL     1      41.826 -14.020  -2.378  1.00  0.00    -0.306 N 
HETATM    9  C   UNL     1      41.963 -12.509   0.842  1.00  0.00     0.033 A 
HETATM   10  C   UNL     1      41.694 -13.592   1.696  1.00  0.00     0.019 A 
HETATM   11  H   UNL     1      41.665 -14.782  -3.015  1.00  0.00     0.171 HD
ENDROOT
BRANCH   1  12
HETATM   12  C   UNL     1      41.197 -15.981   2.181  1.00  0.00     0.252 C 
HETATM   13  N   UNL     1      42.282 -16.485   2.858  1.00  0.00    -0.346 N 
HETATM   14  H   UNL     1      43.218 -16.146   2.696  1.00  0.00     0.163 HD
HETATM   15  O   UNL     1      40.056 -16.383   2.370  1.00  0.00    -0.268 OA
BRANCH  13  16
HETATM   16  C   UNL     1      42.128 -17.521   3.863  1.00  0.00     0.147 C 
HETATM   17  C   UNL     1      43.148 -18.617   3.713  1.00  0.00    -0.027 A 
HETATM   18  C   UNL     1      43.670 -18.986   4.957  1.00  0.00    -0.047 A 
HETATM   19  C   UNL     1      43.539 -19.278   2.556  1.00  0.00     0.010 A 
HETATM   20  C   UNL     1      44.605 -20.003   5.069  1.00  0.00     0.008 A 
HETATM   21  C   UNL     1      43.044 -18.197   6.070  1.00  0.00     0.073 C 
HETATM   22  C   UNL     1      45.021 -20.653   3.906  1.00  0.00     0.001 A 
HETATM   23  C   UNL     1      44.489 -20.296   2.658  1.00  0.00     0.001 A 
HETATM   24  C   UNL     1      42.412 -17.017   5.311  1.00  0.00     0.149 C 
BRANCH  24  25
HETATM   25  O   UNL     1      43.338 -15.916   5.319  1.00  0.00    -0.393 OA
HETATM   26  H   UNL     1      43.404 -15.629   4.391  1.00  0.00     0.210 HD
ENDBRANCH  24  25
ENDBRANCH  13  16
ENDBRANCH   1  12
BRANCH   5  27
HETATM   27  C   UNL     1      42.411 -10.486  -1.709  1.00  0.00     0.095 C 
HETATM   28  C   UNL     1      41.414  -9.591  -0.972  1.00  0.00     0.026 C 
HETATM   29  C   UNL     1      42.120  -8.245  -0.932  1.00  0.00     0.002 C 
HETATM   30  C   UNL     1      43.555  -8.606  -0.592  1.00  0.00     0.002 C 
HETATM   31  C   UNL     1      43.771 -10.012  -1.152  1.00  0.00     0.026 C 
ENDBRANCH   5  27
TORSDOF 4
ENDMDL
MODEL 8
REMARK VINA RESULT:      -8.9      5.983      9.327
REMARK  4 active torsions:
REMARK  status: ('A' for Active; 'I' for Inactive)
REMARK    1  A    between atoms: C_5  and  N_6 
REMARK       I    between atoms: N_6  and  C_7 
REMARK    2  A    between atoms: C_7  and  C_8 
REMARK    3  A    between atoms: N_12  and  C_13 
REMARK    4  A    between atoms: C_24  and  O_25 
ROOT
HETATM    1  C   UNL     1      42.415 -15.718   1.687  1.00  0.00     0.034 A 
HETATM    2  C   UNL     1      42.845 -16.939   1.158  1.00  0.00     0.049 A 
HETATM    3  C   UNL     1      43.393 -17.843   2.044  1.00  0.00     0.064 A 
HETATM    4  C   UNL     1      43.522 -17.612   3.419  1.00  0.00     0.066 A 
HETATM    5  N   UNL     1      44.112 -18.762   3.988  1.00  0.00    -0.293 N 
HETATM    6  C   UNL     1      44.416 -19.663   2.930  1.00  0.00     0.328 A 
HETATM    7  O   UNL     1      45.004 -20.730   2.991  1.00  0.00    -0.247 OA
HETATM    8  N   UNL     1      43.922 -19.091   1.755  1.00  0.00    -0.306 N 
HETATM    9  C   UNL     1      43.100 -16.412   3.949  1.00  0.00     0.033 A 
HETATM   10  C   UNL     1      42.538 -15.466   3.075  1.00  0.00     0.019 A 
HETATM   11  H   UNL     1      44.010 -19.530   0.853  1.00  0.00     0.171 HD
ENDROOT
BRANCH   1  12
HETATM   12  C   UNL     1      41.791 -14.658   0.843  1.00  0.00     0.252 C 
HETATM   13  N   UNL     1      40.802 -15.052  -0.025  1.00  0.00    -0.346 N 
HETATM   14  H   UNL     1      40.509 -16.015  -0.100  1.00  0.00     0.163 HD
HETATM   15  O   UNL     1      42.155 -13.493   0.945  1.00  0.00    -0.268 OA
BRANCH  13  16
HETATM   16  C   UNL     1      40.110 -14.092  -0.865  1.00  0.00     0.147 C 
HETATM   17  C   UNL     1      39.544 -14.725  -2.108  1.00  0.00    -0.027 A 
HETATM   18  C   UNL     1      38.248 -14.261  -2.358  1.00  0.00    -0.047 A 
HETATM   19  C   UNL     1      40.163 -15.607  -2.984  1.00  0.00     0.010 A 
HETATM   20  C   UNL     1      37.539 -14.683  -3.472  1.00  0.00     0.008 A 
HETATM   21  C   UNL     1      37.818 -13.257  -1.329  1.00  0.00     0.073 C 
HETATM   22  C   UNL     1      38.147 -15.589  -4.342  1.00  0.00     0.001 A 
HETATM   23  C   UNL     1      39.451 -16.045  -4.102  1.00  0.00     0.001 A 
HETATM   24  C   UNL     1      38.830 -13.503  -0.197  1.00  0.00     0.149 C 
BRANCH  24  25
HETATM   25  O   UNL     1      38.252 -14.423   0.747  1.00  0.00    -0.393 OA
HETATM   26  H   UNL     1      38.925 -15.113   0.879  1.00  0.00     0.210 HD
ENDBRANCH  24  25
ENDBRANCH  13  16
ENDBRANCH   1  12
BRANCH   5  27
HETATM   27  C   UNL     1      44.584 -18.995   5.337  1.00  0.00     0.095 C 
HETATM   28  C   UNL     1      45.020 -17.798   6.181  1.00  0.00     0.026 C 
HETATM   29  C   UNL     1      45.041 -18.358   7.595  1.00  0.00     0.002 C 
HETATM   30  C   UNL     1      43.779 -19.201   7.661  1.00  0.00     0.002 C 
HETATM   31  C   UNL     1      43.521 -19.672   6.230  1.00  0.00     0.026 C 
ENDBRANCH   5  27
TORSDOF 4
ENDMDL
MODEL 9
REMARK VINA RESULT:      -8.8      5.578      9.392
REMARK  4 active torsions:
REMARK  status: ('A' for Active; 'I' for Inactive)
REMARK    1  A    between atoms: C_5  and  N_6 
REMARK       I    between atoms: N_6  and  C_7 
REMARK    2  A    between atoms: C_7  and  C_8 
REMARK    3  A    between atoms: N_12  and  C_13 
REMARK    4  A    between atoms: C_24  and  O_25 
ROOT
HETATM    1  C   UNL     1      41.352 -14.991   1.345  1.00  0.00     0.034 A 
HETATM    2  C   UNL     1      41.630 -13.746   1.918  1.00  0.00     0.049 A 
HETATM    3  C   UNL     1      41.716 -12.669   1.059  1.00  0.00     0.064 A 
HETATM    4  C   UNL     1      41.526 -12.757  -0.325  1.00  0.00     0.066 A 
HETATM    5  N   UNL     1      41.681 -11.457  -0.856  1.00  0.00    -0.293 N 
HETATM    6  C   UNL     1      42.049 -10.593   0.212  1.00  0.00     0.328 A 
HETATM    7  O   UNL     1      42.353  -9.413   0.159  1.00  0.00    -0.247 OA
HETATM    8  N   UNL     1      42.018 -11.356   1.381  1.00  0.00    -0.306 N 
HETATM    9  C   UNL     1      41.250 -13.980  -0.898  1.00  0.00     0.033 A 
HETATM   10  C   UNL     1      41.158 -15.098  -0.053  1.00  0.00     0.019 A 
HETATM   11  H   UNL     1      42.242 -10.979   2.287  1.00  0.00     0.171 HD
ENDROOT
BRANCH   1  12
HETATM   12  C   UNL     1      41.219 -16.232   2.161  1.00  0.00     0.252 C 
HETATM   13  N   UNL     1      42.189 -16.467   3.105  1.00  0.00    -0.346 N 
HETATM   14  H   UNL     1      42.965 -15.836   3.243  1.00  0.00     0.163 HD
HETATM   15  O   UNL     1      40.271 -16.988   1.986  1.00  0.00    -0.268 OA
BRANCH  13  16
HETATM   16  C   UNL     1      42.131 -17.629   3.973  1.00  0.00     0.147 C 
HETATM   17  C   UNL     1      43.032 -18.738   3.500  1.00  0.00    -0.027 A 
HETATM   18  C   UNL     1      43.726 -19.308   4.573  1.00  0.00    -0.047 A 
HETATM   19  C   UNL     1      43.177 -19.242   2.214  1.00  0.00     0.010 A 
HETATM   20  C   UNL     1      44.592 -20.373   4.381  1.00  0.00     0.008 A 
HETATM   21  C   UNL     1      43.351 -18.660   5.874  1.00  0.00     0.073 C 
HETATM   22  C   UNL     1      44.762 -20.866   3.086  1.00  0.00     0.001 A 
HETATM   23  C   UNL     1      44.056 -20.307   2.011  1.00  0.00     0.001 A 
HETATM   24  C   UNL     1      42.687 -17.354   5.404  1.00  0.00     0.149 C 
BRANCH  24  25
HETATM   25  O   UNL     1      43.678 -16.310   5.398  1.00  0.00    -0.393 OA
HETATM   26  H   UNL     1      43.707 -15.977   6.312  1.00  0.00     0.210 HD
ENDBRANCH  24  25
ENDBRANCH  13  16
ENDBRANCH   1  12
BRANCH   5  27
HETATM   27  C   UNL     1      41.718 -11.014  -2.234  1.00  0.00     0.095 C 
HETATM   28  C   UNL     1      42.619 -11.754  -3.221  1.00  0.00     0.026 C 
HETATM   29  C   UNL     1      42.097 -11.303  -4.576  1.00  0.00     0.002 C 
HETATM   30  C   UNL     1      40.588 -11.338  -4.404  1.00  0.00     0.002 C 
HETATM   31  C   UNL     1      40.336 -11.080  -2.918  1.00  0.00     0.026 C 
ENDBRANCH   5  27
TORSDOF 4
ENDMDL
MODEL 10
REMARK VINA RESULT:      -8.6      5.638      9.848
REMARK  4 active torsions:
REMARK  status: ('A' for Active; 'I' for Inactive)
REMARK    1  A    between atoms: C_5  and  N_6 
REMARK       I    between atoms: N_6  and  C_7 
REMARK    2  A    between atoms: C_7  and  C_8 
REMARK    3  A    between atoms: N_12  and  C_13 
REMARK    4  A    between atoms: C_24  and  O_25 
ROOT
HETATM    1  C   UNL     1      40.593 -15.254   0.783  1.00  0.00     0.034 A 
HETATM    2  C   UNL     1      41.663 -15.044  -0.093  1.00  0.00     0.049 A 
HETATM    3  C   UNL     1      41.515 -14.041  -1.029  1.00  0.00     0.064 A 
HETATM    4  C   UNL     1      40.380 -13.228  -1.130  1.00  0.00     0.066 A 
HETATM    5  N   UNL     1      40.605 -12.319  -2.189  1.00  0.00    -0.293 N 
HETATM    6  C   UNL     1      41.856 -12.644  -2.782  1.00  0.00     0.328 A 
HETATM    7  O   UNL     1      42.373 -12.154  -3.771  1.00  0.00    -0.247 OA
HETATM    8  N   UNL     1      42.411 -13.675  -2.020  1.00  0.00    -0.306 N 
HETATM    9  C   UNL     1      39.322 -13.426  -0.270  1.00  0.00     0.033 A 
HETATM   10  C   UNL     1      39.437 -14.441   0.694  1.00  0.00     0.019 A 
HETATM   11  H   UNL     1      43.303 -14.092  -2.231  1.00  0.00     0.171 HD
ENDROOT
BRANCH   1  12
HETATM   12  C   UNL     1      40.628 -16.295   1.849  1.00  0.00     0.252 C 
HETATM   13  N   UNL     1      41.816 -16.467   2.517  1.00  0.00    -0.346 N 
HETATM   14  H   UNL     1      42.636 -15.922   2.298  1.00  0.00     0.163 HD
HETATM   15  O   UNL     1      39.625 -16.950   2.108  1.00  0.00    -0.268 OA
BRANCH  13  16
HETATM   16  C   UNL     1      41.943 -17.432   3.594  1.00  0.00     0.147 C 
HETATM   17  C   UNL     1      42.862 -18.569   3.236  1.00  0.00    -0.027 A 
HETATM   18  C   UNL     1      43.715 -18.876   4.302  1.00  0.00    -0.047 A 
HETATM   19  C   UNL     1      42.895 -19.314   2.065  1.00  0.00     0.010 A 
HETATM   20  C   UNL     1      44.628 -19.914   4.212  1.00  0.00     0.008 A 
HETATM   21  C   UNL     1      43.445 -17.998   5.489  1.00  0.00     0.073 C 
HETATM   22  C   UNL     1      44.683 -20.650   3.027  1.00  0.00     0.001 A 
HETATM   23  C   UNL     1      43.820 -20.354   1.962  1.00  0.00     0.001 A 
HETATM   24  C   UNL     1      42.639 -16.847   4.862  1.00  0.00     0.149 C 
BRANCH  24  25
HETATM   25  O   UNL     1      43.543 -15.779   4.527  1.00  0.00    -0.393 OA
HETATM   26  H   UNL     1      43.085 -15.258   3.845  1.00  0.00     0.210 HD
ENDBRANCH  24  25
ENDBRANCH  13  16
ENDBRANCH   1  12
BRANCH   5  27
HETATM   27  C   UNL     1      39.707 -11.360  -2.796  1.00  0.00     0.095 C 
HETATM   28  C   UNL     1      38.378 -11.853  -3.367  1.00  0.00     0.026 C 
HETATM   29  C   UNL     1      37.569 -10.574  -3.522  1.00  0.00     0.002 C 
HETATM   30  C   UNL     1      37.867  -9.809  -2.244  1.00  0.00     0.002 C 
HETATM   31  C   UNL     1      39.266 -10.253  -1.814  1.00  0.00     0.026 C 
ENDBRANCH   5  27
TORSDOF 4
ENDMDL
