MODEL 1
REMARK VINA RESULT:      -7.7      0.000      0.000
REMARK  6 active torsions:
REMARK  status: ('A' for Active; 'I' for Inactive)
REMARK    1  A    between atoms: C_2  and  O_3 
REMARK    2  A    between atoms: C_2  and  C_4 
REMARK    3  A    between atoms: C_2  and  C_11 
REMARK    4  A    between atoms: C_11  and  N_12 
REMARK       I    between atoms: N_12  and  C_13 
REMARK    5  A    between atoms: C_13  and  C_14 
REMARK    6  A    between atoms: C_15  and  C_16 
ROOT
HETATM    1  N   UNL     1      42.466 -17.821   1.412  1.00  0.00    -0.354 N 
HETATM    2  C   UNL     1      43.781 -18.140   1.674  1.00  0.00     0.255 C 
HETATM    3  O   UNL     1      44.711 -17.401   1.372  1.00  0.00    -0.268 OA
HETATM    4  H   UNL     1      41.741 -18.343   1.887  1.00  0.00     0.162 HD
ENDROOT
BRANCH   2   5
HETATM    5  C   UNL     1      43.970 -19.420   2.339  1.00  0.00     0.080 A 
HETATM    6  C   UNL     1      44.096 -19.692   3.740  1.00  0.00     0.107 A 
HETATM    7  N   UNL     1      44.347 -20.996   3.958  1.00  0.00    -0.173 NA
HETATM    8  N   UNL     1      44.340 -21.549   2.741  1.00  0.00    -0.288 N 
HETATM    9  H   UNL     1      44.506 -22.547   2.671  1.00  0.00     0.188 HD
HETATM   10  C   UNL     1      44.119 -20.658   1.738  1.00  0.00     0.128 A 
BRANCH   6  11
HETATM   11  C   UNL     1      43.986 -18.773   4.868  1.00  0.00     0.034 A 
HETATM   12  C   UNL     1      42.774 -18.152   5.181  1.00  0.00     0.129 A 
HETATM   13  F   UNL     1      41.669 -18.403   4.462  1.00  0.00    -0.205 F 
HETATM   14  C   UNL     1      42.671 -17.283   6.266  1.00  0.00     0.043 A 
HETATM   15  C   UNL     1      43.786 -17.032   7.064  1.00  0.00     0.003 A 
HETATM   16  C   UNL     1      44.999 -17.657   6.776  1.00  0.00     0.001 A 
HETATM   17  C   UNL     1      45.099 -18.527   5.686  1.00  0.00     0.017 A 
ENDBRANCH   6  11
ENDBRANCH   2   5
BRANCH   1  18
HETATM   18  C   UNL     1      42.072 -16.528   0.871  1.00  0.00     0.165 C 
BRANCH  18  19
HETATM   19  C   UNL     1      40.953 -15.835   1.696  1.00  0.00     0.097 C 
HETATM   20  C   UNL     1      39.847 -16.816   2.114  1.00  0.00     0.053 C 
BRANCH  19  21
HETATM   21  O   UNL     1      40.338 -14.853   0.836  1.00  0.00    -0.384 OA
HETATM   22  H   UNL     1      39.676 -14.388   1.377  1.00  0.00     0.211 HD
ENDBRANCH  19  21
BRANCH  19  23
HETATM   23  C   UNL     1      41.570 -15.140   2.914  1.00  0.00    -0.023 A 
HETATM   24  C   UNL     1      40.787 -14.859   4.051  1.00  0.00     0.013 A 
HETATM   25  C   UNL     1      41.342 -14.230   5.169  1.00  0.00     0.043 A 
HETATM   26  C   UNL     1      42.685 -13.881   5.163  1.00  0.00     0.116 A 
HETATM   27  F   UNL     1      43.216 -13.276   6.234  1.00  0.00    -0.206 F 
HETATM   28  C   UNL     1      43.486 -14.156   4.064  1.00  0.00     0.043 A 
HETATM   29  C   UNL     1      42.934 -14.788   2.947  1.00  0.00     0.013 A 
ENDBRANCH  19  23
ENDBRANCH  18  19
ENDBRANCH   1  18
TORSDOF 6
ENDMDL
MODEL 2
REMARK VINA RESULT:      -7.7      3.862      7.934
REMARK  6 active torsions:
REMARK  status: ('A' for Active; 'I' for Inactive)
REMARK    1  A    between atoms: C_2  and  O_3 
REMARK    2  A    between atoms: C_2  and  C_4 
REMARK    3  A    between atoms: C_2  and  C_11 
REMARK    4  A    between atoms: C_11  and  N_12 
REMARK       I    between atoms: N_12  and  C_13 
REMARK    5  A    between atoms: C_13  and  C_14 
REMARK    6  A    between atoms: C_15  and  C_16 
ROOT
HETATM    1  N   UNL     1      42.149 -16.328   0.466  1.00  0.00    -0.354 N 
HETATM    2  C   UNL     1      41.128 -15.412   0.605  1.00  0.00     0.255 C 
HETATM    3  O   UNL     1      40.122 -15.642   1.266  1.00  0.00    -0.268 OA
HETATM    4  H   UNL     1      43.041 -16.004   0.117  1.00  0.00     0.162 HD
ENDROOT
BRANCH   2   5
HETATM    5  C   UNL     1      41.348 -14.154  -0.094  1.00  0.00     0.080 A 
HETATM    6  C   UNL     1      40.839 -13.735  -1.365  1.00  0.00     0.107 A 
HETATM    7  N   UNL     1      41.338 -12.534  -1.713  1.00  0.00    -0.173 NA
HETATM    8  N   UNL     1      42.109 -12.177  -0.681  1.00  0.00    -0.288 N 
HETATM    9  H   UNL     1      42.588 -11.284  -0.730  1.00  0.00     0.188 HD
HETATM   10  C   UNL     1      42.152 -13.103   0.314  1.00  0.00     0.128 A 
BRANCH   6  11
HETATM   11  C   UNL     1      39.905 -14.419  -2.252  1.00  0.00     0.034 A 
HETATM   12  C   UNL     1      40.323 -15.467  -3.077  1.00  0.00     0.129 A 
HETATM   13  F   UNL     1      41.597 -15.889  -3.056  1.00  0.00    -0.205 F 
HETATM   14  C   UNL     1      39.425 -16.125  -3.916  1.00  0.00     0.043 A 
HETATM   15  C   UNL     1      38.084 -15.745  -3.931  1.00  0.00     0.003 A 
HETATM   16  C   UNL     1      37.645 -14.713  -3.102  1.00  0.00     0.001 A 
HETATM   17  C   UNL     1      38.550 -14.055  -2.264  1.00  0.00     0.017 A 
ENDBRANCH   6  11
ENDBRANCH   2   5
BRANCH   1  18
HETATM   18  C   UNL     1      42.168 -17.588   1.195  1.00  0.00     0.165 C 
BRANCH  18  19
HETATM   19  C   UNL     1      43.235 -17.625   2.324  1.00  0.00     0.097 C 
HETATM   20  C   UNL     1      42.739 -16.954   3.615  1.00  0.00     0.053 C 
BRANCH  19  21
HETATM   21  O   UNL     1      44.367 -16.858   1.862  1.00  0.00    -0.384 OA
HETATM   22  H   UNL     1      44.818 -16.526   2.658  1.00  0.00     0.211 HD
ENDBRANCH  19  21
BRANCH  19  23
HETATM   23  C   UNL     1      43.662 -19.074   2.578  1.00  0.00    -0.023 A 
HETATM   24  C   UNL     1      44.350 -19.421   3.757  1.00  0.00     0.013 A 
HETATM   25  C   UNL     1      44.740 -20.741   4.000  1.00  0.00     0.043 A 
HETATM   26  C   UNL     1      44.440 -21.727   3.071  1.00  0.00     0.116 A 
HETATM   27  F   UNL     1      44.816 -22.992   3.303  1.00  0.00    -0.206 F 
HETATM   28  C   UNL     1      43.752 -21.420   1.905  1.00  0.00     0.043 A 
HETATM   29  C   UNL     1      43.358 -20.101   1.663  1.00  0.00     0.013 A 
ENDBRANCH  19  23
ENDBRANCH  18  19
ENDBRANCH   1  18
TORSDOF 6
ENDMDL
MODEL 3
REMARK VINA RESULT:      -7.7      2.532      4.328
REMARK  6 active torsions:
REMARK  status: ('A' for Active; 'I' for Inactive)
REMARK    1  A    between atoms: C_2  and  O_3 
REMARK    2  A    between atoms: C_2  and  C_4 
REMARK    3  A    between atoms: C_2  and  C_11 
REMARK    4  A    between atoms: C_11  and  N_12 
REMARK       I    between atoms: N_12  and  C_13 
REMARK    5  A    between atoms: C_13  and  C_14 
REMARK    6  A    between atoms: C_15  and  C_16 
ROOT
HETATM    1  N   UNL     1      42.000 -15.353   6.307  1.00  0.00    -0.354 N 
HETATM    2  C   UNL     1      43.282 -15.855   6.244  1.00  0.00     0.255 C 
HETATM    3  O   UNL     1      44.199 -15.256   5.695  1.00  0.00    -0.268 OA
HETATM    4  H   UNL     1      41.353 -15.766   6.965  1.00  0.00     0.162 HD
ENDROOT
BRANCH   2   5
HETATM    5  C   UNL     1      43.454 -17.149   6.887  1.00  0.00     0.080 A 
HETATM    6  C   UNL     1      43.547 -18.444   6.283  1.00  0.00     0.107 A 
HETATM    7  N   UNL     1      43.614 -19.410   7.218  1.00  0.00    -0.173 NA
HETATM    8  N   UNL     1      43.607 -18.753   8.382  1.00  0.00    -0.288 N 
HETATM    9  H   UNL     1      43.657 -19.298   9.237  1.00  0.00     0.188 HD
HETATM   10  C   UNL     1      43.514 -17.404   8.247  1.00  0.00     0.128 A 
BRANCH   6  11
HETATM   11  C   UNL     1      43.577 -18.798   4.868  1.00  0.00     0.034 A 
HETATM   12  C   UNL     1      42.536 -18.437   4.008  1.00  0.00     0.129 A 
HETATM   13  F   UNL     1      41.488 -17.731   4.459  1.00  0.00    -0.205 F 
HETATM   14  C   UNL     1      42.574 -18.769   2.655  1.00  0.00     0.043 A 
HETATM   15  C   UNL     1      43.668 -19.462   2.140  1.00  0.00     0.003 A 
HETATM   16  C   UNL     1      44.724 -19.815   2.980  1.00  0.00     0.001 A 
HETATM   17  C   UNL     1      44.681 -19.482   4.337  1.00  0.00     0.017 A 
ENDBRANCH   6  11
ENDBRANCH   2   5
BRANCH   1  18
HETATM   18  C   UNL     1      41.665 -14.017   5.835  1.00  0.00     0.165 C 
BRANCH  18  19
HETATM   19  C   UNL     1      40.428 -13.992   4.896  1.00  0.00     0.097 C 
HETATM   20  C   UNL     1      39.864 -12.575   4.713  1.00  0.00     0.053 C 
BRANCH  19  21
HETATM   21  O   UNL     1      39.396 -14.773   5.535  1.00  0.00    -0.384 OA
HETATM   22  H   UNL     1      39.821 -15.592   5.845  1.00  0.00     0.211 HD
ENDBRANCH  19  21
BRANCH  19  23
HETATM   23  C   UNL     1      40.794 -14.624   3.549  1.00  0.00    -0.023 A 
HETATM   24  C   UNL     1      39.840 -15.364   2.822  1.00  0.00     0.013 A 
HETATM   25  C   UNL     1      40.163 -15.939   1.590  1.00  0.00     0.043 A 
HETATM   26  C   UNL     1      41.439 -15.776   1.070  1.00  0.00     0.116 A 
HETATM   27  F   UNL     1      41.749 -16.330  -0.109  1.00  0.00    -0.206 F 
HETATM   28  C   UNL     1      42.397 -15.043   1.756  1.00  0.00     0.043 A 
HETATM   29  C   UNL     1      42.075 -14.463   2.986  1.00  0.00     0.013 A 
ENDBRANCH  19  23
ENDBRANCH  18  19
ENDBRANCH   1  18
TORSDOF 6
ENDMDL
MODEL 4
REMARK VINA RESULT:      -7.7      2.948      4.824
REMARK  6 active torsions:
REMARK  status: ('A' for Active; 'I' for Inactive)
REMARK    1  A    between atoms: C_2  and  O_3 
REMARK    2  A    between atoms: C_2  and  C_4 
REMARK    3  A    between atoms: C_2  and  C_11 
REMARK    4  A    between atoms: C_11  and  N_12 
REMARK       I    between atoms: N_12  and  C_13 
REMARK    5  A    between atoms: C_13  and  C_14 
REMARK    6  A    between atoms: C_15  and  C_16 
ROOT
HETATM    1  N   UNL     1      41.419 -14.578   3.912  1.00  0.00    -0.354 N 
HETATM    2  C   UNL     1      41.554 -15.274   5.094  1.00  0.00     0.255 C 
HETATM    3  O   UNL     1      40.788 -16.173   5.421  1.00  0.00    -0.268 OA
HETATM    4  H   UNL     1      42.201 -14.024   3.588  1.00  0.00     0.162 HD
ENDROOT
BRANCH   2   5
HETATM    5  C   UNL     1      42.680 -14.854   5.915  1.00  0.00     0.080 A 
HETATM    6  C   UNL     1      43.652 -15.665   6.584  1.00  0.00     0.107 A 
HETATM    7  N   UNL     1      44.489 -14.910   7.319  1.00  0.00    -0.173 NA
HETATM    8  N   UNL     1      44.093 -13.653   7.095  1.00  0.00    -0.288 N 
HETATM    9  H   UNL     1      44.599 -12.904   7.556  1.00  0.00     0.188 HD
HETATM   10  C   UNL     1      43.020 -13.559   6.265  1.00  0.00     0.128 A 
BRANCH   6  11
HETATM   11  C   UNL     1      43.818 -17.114   6.553  1.00  0.00     0.034 A 
HETATM   12  C   UNL     1      43.613 -17.893   7.696  1.00  0.00     0.129 A 
HETATM   13  F   UNL     1      43.232 -17.326   8.852  1.00  0.00    -0.205 F 
HETATM   14  C   UNL     1      43.764 -19.278   7.660  1.00  0.00     0.043 A 
HETATM   15  C   UNL     1      44.114 -19.907   6.466  1.00  0.00     0.003 A 
HETATM   16  C   UNL     1      44.305 -19.148   5.312  1.00  0.00     0.001 A 
HETATM   17  C   UNL     1      44.155 -17.759   5.353  1.00  0.00     0.017 A 
ENDBRANCH   6  11
ENDBRANCH   2   5
BRANCH   1  18
HETATM   18  C   UNL     1      40.433 -14.941   2.904  1.00  0.00     0.165 C 
BRANCH  18  19
HETATM   19  C   UNL     1      41.062 -15.246   1.517  1.00  0.00     0.097 C 
HETATM   20  C   UNL     1      41.797 -14.031   0.930  1.00  0.00     0.053 C 
BRANCH  19  21
HETATM   21  O   UNL     1      39.975 -15.552   0.617  1.00  0.00    -0.384 OA
HETATM   22  H   UNL     1      40.099 -14.988  -0.166  1.00  0.00     0.211 HD
ENDBRANCH  19  21
BRANCH  19  23
HETATM   23  C   UNL     1      41.992 -16.458   1.631  1.00  0.00    -0.023 A 
HETATM   24  C   UNL     1      43.381 -16.316   1.434  1.00  0.00     0.013 A 
HETATM   25  C   UNL     1      44.238 -17.414   1.542  1.00  0.00     0.043 A 
HETATM   26  C   UNL     1      43.719 -18.663   1.853  1.00  0.00     0.116 A 
HETATM   27  F   UNL     1      44.541 -19.715   1.954  1.00  0.00    -0.206 F 
HETATM   28  C   UNL     1      42.358 -18.833   2.065  1.00  0.00     0.043 A 
HETATM   29  C   UNL     1      41.499 -17.736   1.962  1.00  0.00     0.013 A 
ENDBRANCH  19  23
ENDBRANCH  18  19
ENDBRANCH   1  18
TORSDOF 6
ENDMDL
MODEL 5
REMARK VINA RESULT:      -7.6      2.505      5.685
REMARK  6 active torsions:
REMARK  status: ('A' for Active; 'I' for Inactive)
REMARK    1  A    between atoms: C_2  and  O_3 
REMARK    2  A    between atoms: C_2  and  C_4 
REMARK    3  A    between atoms: C_2  and  C_11 
REMARK    4  A    between atoms: C_11  and  N_12 
REMARK       I    between atoms: N_12  and  C_13 
REMARK    5  A    between atoms: C_13  and  C_14 
REMARK    6  A    between atoms: C_15  and  C_16 
ROOT
HETATM    1  N   UNL     1      41.345 -16.720   3.122  1.00  0.00    -0.354 N 
HETATM    2  C   UNL     1      41.092 -15.406   2.792  1.00  0.00     0.255 C 
HETATM    3  O   UNL     1      41.281 -14.961   1.666  1.00  0.00    -0.268 OA
HETATM    4  H   UNL     1      40.954 -17.085   3.980  1.00  0.00     0.162 HD
ENDROOT
BRANCH   2   5
HETATM    5  C   UNL     1      40.581 -14.598   3.889  1.00  0.00     0.080 A 
HETATM    6  C   UNL     1      40.915 -14.661   5.280  1.00  0.00     0.107 A 
HETATM    7  N   UNL     1      40.164 -13.805   5.997  1.00  0.00    -0.173 NA
HETATM    8  N   UNL     1      39.403 -13.184   5.091  1.00  0.00    -0.288 N 
HETATM    9  H   UNL     1      38.751 -12.478   5.418  1.00  0.00     0.188 HD
HETATM   10  C   UNL     1      39.609 -13.614   3.818  1.00  0.00     0.128 A 
BRANCH   6  11
HETATM   11  C   UNL     1      41.911 -15.490   5.949  1.00  0.00     0.034 A 
HETATM   12  C   UNL     1      41.555 -16.688   6.575  1.00  0.00     0.129 A 
HETATM   13  F   UNL     1      40.283 -17.120   6.556  1.00  0.00    -0.205 F 
HETATM   14  C   UNL     1      42.511 -17.483   7.205  1.00  0.00     0.043 A 
HETATM   15  C   UNL     1      43.848 -17.091   7.206  1.00  0.00     0.003 A 
HETATM   16  C   UNL     1      44.225 -15.908   6.571  1.00  0.00     0.001 A 
HETATM   17  C   UNL     1      43.262 -15.112   5.942  1.00  0.00     0.017 A 
ENDBRANCH   6  11
ENDBRANCH   2   5
BRANCH   1  18
HETATM   18  C   UNL     1      41.736 -17.710   2.128  1.00  0.00     0.165 C 
BRANCH  18  19
HETATM   19  C   UNL     1      43.276 -17.859   1.986  1.00  0.00     0.097 C 
HETATM   20  C   UNL     1      44.040 -16.780   2.770  1.00  0.00     0.053 C 
BRANCH  19  21
HETATM   21  O   UNL     1      43.594 -17.668   0.592  1.00  0.00    -0.384 OA
HETATM   22  H   UNL     1      43.014 -16.955   0.272  1.00  0.00     0.211 HD
ENDBRANCH  19  21
BRANCH  19  23
HETATM   23  C   UNL     1      43.696 -19.266   2.423  1.00  0.00    -0.023 A 
HETATM   24  C   UNL     1      44.290 -19.477   3.684  1.00  0.00     0.013 A 
HETATM   25  C   UNL     1      44.673 -20.757   4.093  1.00  0.00     0.043 A 
HETATM   26  C   UNL     1      44.461 -21.839   3.251  1.00  0.00     0.116 A 
HETATM   27  F   UNL     1      44.829 -23.066   3.642  1.00  0.00    -0.206 F 
HETATM   28  C   UNL     1      43.867 -21.666   2.008  1.00  0.00     0.043 A 
HETATM   29  C   UNL     1      43.480 -20.388   1.599  1.00  0.00     0.013 A 
ENDBRANCH  19  23
ENDBRANCH  18  19
ENDBRANCH   1  18
TORSDOF 6
ENDMDL
MODEL 6
REMARK VINA RESULT:      -7.5      2.558      3.563
REMARK  6 active torsions:
REMARK  status: ('A' for Active; 'I' for Inactive)
REMARK    1  A    between atoms: C_2  and  O_3 
REMARK    2  A    between atoms: C_2  and  C_4 
REMARK    3  A    between atoms: C_2  and  C_11 
REMARK    4  A    between atoms: C_11  and  N_12 
REMARK       I    between atoms: N_12  and  C_13 
REMARK    5  A    between atoms: C_13  and  C_14 
REMARK    6  A    between atoms: C_15  and  C_16 
ROOT
HETATM    1  N   UNL     1      42.249 -18.150   1.771  1.00  0.00    -0.354 N 
HETATM    2  C   UNL     1      43.608 -18.269   1.972  1.00  0.00     0.255 C 
HETATM    3  O   UNL     1      44.416 -17.484   1.489  1.00  0.00    -0.268 OA
HETATM    4  H   UNL     1      41.627 -18.671   2.376  1.00  0.00     0.162 HD
ENDROOT
BRANCH   2   5
HETATM    5  C   UNL     1      43.998 -19.397   2.804  1.00  0.00     0.080 A 
HETATM    6  C   UNL     1      44.038 -19.485   4.232  1.00  0.00     0.107 A 
HETATM    7  N   UNL     1      44.539 -20.669   4.630  1.00  0.00    -0.173 NA
HETATM    8  N   UNL     1      44.773 -21.335   3.495  1.00  0.00    -0.288 N 
HETATM    9  H   UNL     1      45.155 -22.272   3.561  1.00  0.00     0.188 HD
HETATM   10  C   UNL     1      44.469 -20.626   2.375  1.00  0.00     0.128 A 
BRANCH   6  11
HETATM   11  C   UNL     1      43.622 -18.501   5.226  1.00  0.00     0.034 A 
HETATM   12  C   UNL     1      44.550 -17.888   6.073  1.00  0.00     0.129 A 
HETATM   13  F   UNL     1      45.858 -18.173   5.976  1.00  0.00    -0.205 F 
HETATM   14  C   UNL     1      44.150 -16.942   7.014  1.00  0.00     0.043 A 
HETATM   15  C   UNL     1      42.805 -16.586   7.112  1.00  0.00     0.003 A 
HETATM   16  C   UNL     1      41.868 -17.175   6.264  1.00  0.00     0.001 A 
HETATM   17  C   UNL     1      42.274 -18.125   5.323  1.00  0.00     0.017 A 
ENDBRANCH   6  11
ENDBRANCH   2   5
BRANCH   1  18
HETATM   18  C   UNL     1      41.662 -17.014   1.077  1.00  0.00     0.165 C 
BRANCH  18  19
HETATM   19  C   UNL     1      40.859 -16.072   2.015  1.00  0.00     0.097 C 
HETATM   20  C   UNL     1      41.776 -15.224   2.912  1.00  0.00     0.053 C 
BRANCH  19  21
HETATM   21  O   UNL     1      40.078 -16.912   2.891  1.00  0.00    -0.384 OA
HETATM   22  H   UNL     1      40.096 -16.489   3.768  1.00  0.00     0.211 HD
ENDBRANCH  19  21
BRANCH  19  23
HETATM   23  C   UNL     1      39.927 -15.189   1.180  1.00  0.00    -0.023 A 
HETATM   24  C   UNL     1      40.343 -14.689  -0.070  1.00  0.00     0.013 A 
HETATM   25  C   UNL     1      39.498 -13.887  -0.842  1.00  0.00     0.043 A 
HETATM   26  C   UNL     1      38.227 -13.581  -0.375  1.00  0.00     0.116 A 
HETATM   27  F   UNL     1      37.418 -12.811  -1.113  1.00  0.00    -0.206 F 
HETATM   28  C   UNL     1      37.783 -14.069   0.846  1.00  0.00     0.043 A 
HETATM   29  C   UNL     1      38.625 -14.874   1.617  1.00  0.00     0.013 A 
ENDBRANCH  19  23
ENDBRANCH  18  19
ENDBRANCH   1  18
TORSDOF 6
ENDMDL
MODEL 7
REMARK VINA RESULT:      -7.5      3.036      4.721
REMARK  6 active torsions:
REMARK  status: ('A' for Active; 'I' for Inactive)
REMARK    1  A    between atoms: C_2  and  O_3 
REMARK    2  A    between atoms: C_2  and  C_4 
REMARK    3  A    between atoms: C_2  and  C_11 
REMARK    4  A    between atoms: C_11  and  N_12 
REMARK       I    between atoms: N_12  and  C_13 
REMARK    5  A    between atoms: C_13  and  C_14 
REMARK    6  A    between atoms: C_15  and  C_16 
ROOT
HETATM    1  N   UNL     1      42.152 -16.285   4.058  1.00  0.00    -0.354 N 
HETATM    2  C   UNL     1      42.219 -17.437   4.811  1.00  0.00     0.255 C 
HETATM    3  O   UNL     1      41.249 -18.164   4.992  1.00  0.00    -0.268 OA
HETATM    4  H   UNL     1      43.016 -15.861   3.749  1.00  0.00     0.162 HD
ENDROOT
BRANCH   2   5
HETATM    5  C   UNL     1      43.534 -17.717   5.368  1.00  0.00     0.080 A 
HETATM    6  C   UNL     1      44.438 -18.777   5.039  1.00  0.00     0.107 A 
HETATM    7  N   UNL     1      45.523 -18.752   5.835  1.00  0.00    -0.173 NA
HETATM    8  N   UNL     1      45.340 -17.685   6.620  1.00  0.00    -0.288 N 
HETATM    9  H   UNL     1      46.055 -17.470   7.308  1.00  0.00     0.188 HD
HETATM   10  C   UNL     1      44.172 -17.029   6.386  1.00  0.00     0.128 A 
BRANCH   6  11
HETATM   11  C   UNL     1      44.318 -19.802   4.008  1.00  0.00     0.034 A 
HETATM   12  C   UNL     1      44.635 -21.137   4.272  1.00  0.00     0.129 A 
HETATM   13  F   UNL     1      45.037 -21.517   5.496  1.00  0.00    -0.205 F 
HETATM   14  C   UNL     1      44.508 -22.115   3.288  1.00  0.00     0.043 A 
HETATM   15  C   UNL     1      44.049 -21.767   2.018  1.00  0.00     0.003 A 
HETATM   16  C   UNL     1      43.712 -20.443   1.741  1.00  0.00     0.001 A 
HETATM   17  C   UNL     1      43.842 -19.464   2.732  1.00  0.00     0.017 A 
ENDBRANCH   6  11
ENDBRANCH   2   5
BRANCH   1  18
HETATM   18  C   UNL     1      40.956 -15.909   3.316  1.00  0.00     0.165 C 
BRANCH  18  19
HETATM   19  C   UNL     1      41.134 -16.015   1.776  1.00  0.00     0.097 C 
HETATM   20  C   UNL     1      41.070 -17.468   1.282  1.00  0.00     0.053 C 
BRANCH  19  21
HETATM   21  O   UNL     1      42.456 -15.526   1.468  1.00  0.00    -0.384 OA
HETATM   22  H   UNL     1      42.784 -16.066   0.727  1.00  0.00     0.211 HD
ENDBRANCH  19  21
BRANCH  19  23
HETATM   23  C   UNL     1      40.086 -15.143   1.078  1.00  0.00    -0.023 A 
HETATM   24  C   UNL     1      40.362 -14.553  -0.171  1.00  0.00     0.013 A 
HETATM   25  C   UNL     1      39.410 -13.760  -0.818  1.00  0.00     0.043 A 
HETATM   26  C   UNL     1      38.171 -13.554  -0.226  1.00  0.00     0.116 A 
HETATM   27  F   UNL     1      37.261 -12.792  -0.845  1.00  0.00    -0.206 F 
HETATM   28  C   UNL     1      37.864 -14.131   0.998  1.00  0.00     0.043 A 
HETATM   29  C   UNL     1      38.813 -14.928   1.644  1.00  0.00     0.013 A 
ENDBRANCH  19  23
ENDBRANCH  18  19
ENDBRANCH   1  18
TORSDOF 6
ENDMDL
MODEL 8
REMARK VINA RESULT:      -7.3      2.446      5.406
REMARK  6 active torsions:
REMARK  status: ('A' for Active; 'I' for Inactive)
REMARK    1  A    between atoms: C_2  and  O_3 
REMARK    2  A    between atoms: C_2  and  C_4 
REMARK    3  A    between atoms: C_2  and  C_11 
REMARK    4  A    between atoms: C_11  and  N_12 
REMARK       I    between atoms: N_12  and  C_13 
REMARK    5  A    between atoms: C_13  and  C_14 
REMARK    6  A    between atoms: C_15  and  C_16 
ROOT
HETATM    1  N   UNL     1      41.976 -16.387   1.006  1.00  0.00    -0.354 N 
HETATM    2  C   UNL     1      41.032 -15.389   1.123  1.00  0.00     0.255 C 
HETATM    3  O   UNL     1      39.870 -15.615   1.442  1.00  0.00    -0.268 OA
HETATM    4  H   UNL     1      42.952 -16.124   0.977  1.00  0.00     0.162 HD
ENDROOT
BRANCH   2   5
HETATM    5  C   UNL     1      41.531 -14.052   0.839  1.00  0.00     0.080 A 
HETATM    6  C   UNL     1      42.087 -13.093   1.745  1.00  0.00     0.107 A 
HETATM    7  N   UNL     1      42.353 -11.932   1.117  1.00  0.00    -0.173 NA
HETATM    8  N   UNL     1      42.018 -12.154  -0.158  1.00  0.00    -0.288 N 
HETATM    9  H   UNL     1      42.145 -11.399  -0.823  1.00  0.00     0.188 HD
HETATM   10  C   UNL     1      41.523 -13.401  -0.383  1.00  0.00     0.128 A 
BRANCH   6  11
HETATM   11  C   UNL     1      42.376 -13.232   3.168  1.00  0.00     0.034 A 
HETATM   12  C   UNL     1      43.358 -14.115   3.626  1.00  0.00     0.129 A 
HETATM   13  F   UNL     1      44.080 -14.845   2.761  1.00  0.00    -0.205 F 
HETATM   14  C   UNL     1      43.638 -14.238   4.985  1.00  0.00     0.043 A 
HETATM   15  C   UNL     1      42.941 -13.463   5.911  1.00  0.00     0.003 A 
HETATM   16  C   UNL     1      41.970 -12.564   5.471  1.00  0.00     0.001 A 
HETATM   17  C   UNL     1      41.691 -12.445   4.106  1.00  0.00     0.017 A 
ENDBRANCH   6  11
ENDBRANCH   2   5
BRANCH   1  18
HETATM   18  C   UNL     1      41.698 -17.767   1.375  1.00  0.00     0.165 C 
BRANCH  18  19
HETATM   19  C   UNL     1      42.849 -18.428   2.183  1.00  0.00     0.097 C 
HETATM   20  C   UNL     1      44.235 -18.033   1.650  1.00  0.00     0.053 C 
BRANCH  19  21
HETATM   21  O   UNL     1      42.725 -19.855   2.006  1.00  0.00    -0.384 OA
HETATM   22  H   UNL     1      42.815 -20.024   1.052  1.00  0.00     0.211 HD
ENDBRANCH  19  21
BRANCH  19  23
HETATM   23  C   UNL     1      42.702 -18.077   3.666  1.00  0.00    -0.023 A 
HETATM   24  C   UNL     1      43.785 -18.244   4.553  1.00  0.00     0.013 A 
HETATM   25  C   UNL     1      43.662 -17.922   5.907  1.00  0.00     0.043 A 
HETATM   26  C   UNL     1      42.459 -17.424   6.388  1.00  0.00     0.116 A 
HETATM   27  F   UNL     1      42.341 -17.117   7.686  1.00  0.00    -0.206 F 
HETATM   28  C   UNL     1      41.378 -17.236   5.538  1.00  0.00     0.043 A 
HETATM   29  C   UNL     1      41.500 -17.554   4.183  1.00  0.00     0.013 A 
ENDBRANCH  19  23
ENDBRANCH  18  19
ENDBRANCH   1  18
TORSDOF 6
ENDMDL
MODEL 9
REMARK VINA RESULT:      -7.3      3.016      4.737
REMARK  6 active torsions:
REMARK  status: ('A' for Active; 'I' for Inactive)
REMARK    1  A    between atoms: C_2  and  O_3 
REMARK    2  A    between atoms: C_2  and  C_4 
REMARK    3  A    between atoms: C_2  and  C_11 
REMARK    4  A    between atoms: C_11  and  N_12 
REMARK       I    between atoms: N_12  and  C_13 
REMARK    5  A    between atoms: C_13  and  C_14 
REMARK    6  A    between atoms: C_15  and  C_16 
ROOT
HETATM    1  N   UNL     1      42.187 -16.942   3.326  1.00  0.00    -0.354 N 
HETATM    2  C   UNL     1      42.154 -17.643   4.513  1.00  0.00     0.255 C 
HETATM    3  O   UNL     1      41.146 -18.215   4.912  1.00  0.00    -0.268 OA
HETATM    4  H   UNL     1      43.088 -16.698   2.936  1.00  0.00     0.162 HD
ENDROOT
BRANCH   2   5
HETATM    5  C   UNL     1      43.412 -17.648   5.244  1.00  0.00     0.080 A 
HETATM    6  C   UNL     1      44.405 -18.677   5.311  1.00  0.00     0.107 A 
HETATM    7  N   UNL     1      45.390 -18.343   6.165  1.00  0.00    -0.173 NA
HETATM    8  N   UNL     1      45.061 -17.123   6.599  1.00  0.00    -0.288 N 
HETATM    9  H   UNL     1      45.681 -16.669   7.262  1.00  0.00     0.188 HD
HETATM   10  C   UNL     1      43.892 -16.657   6.084  1.00  0.00     0.128 A 
BRANCH   6  11
HETATM   11  C   UNL     1      44.458 -19.950   4.602  1.00  0.00     0.034 A 
HETATM   12  C   UNL     1      44.463 -20.003   3.205  1.00  0.00     0.129 A 
HETATM   13  F   UNL     1      44.443 -18.875   2.476  1.00  0.00    -0.205 F 
HETATM   14  C   UNL     1      44.524 -21.221   2.531  1.00  0.00     0.043 A 
HETATM   15  C   UNL     1      44.593 -22.412   3.253  1.00  0.00     0.003 A 
HETATM   16  C   UNL     1      44.606 -22.378   4.647  1.00  0.00     0.001 A 
HETATM   17  C   UNL     1      44.543 -21.153   5.319  1.00  0.00     0.017 A 
ENDBRANCH   6  11
ENDBRANCH   2   5
BRANCH   1  18
HETATM   18  C   UNL     1      41.066 -16.933   2.397  1.00  0.00     0.165 C 
BRANCH  18  19
HETATM   19  C   UNL     1      40.473 -15.515   2.167  1.00  0.00     0.097 C 
HETATM   20  C   UNL     1      41.198 -14.441   2.994  1.00  0.00     0.053 C 
BRANCH  19  21
HETATM   21  O   UNL     1      39.106 -15.547   2.629  1.00  0.00    -0.384 OA
HETATM   22  H   UNL     1      38.981 -16.411   3.060  1.00  0.00     0.211 HD
ENDBRANCH  19  21
BRANCH  19  23
HETATM   23  C   UNL     1      40.505 -15.183   0.672  1.00  0.00    -0.023 A 
HETATM   24  C   UNL     1      41.194 -16.015  -0.232  1.00  0.00     0.013 A 
HETATM   25  C   UNL     1      41.225 -15.723  -1.598  1.00  0.00     0.043 A 
HETATM   26  C   UNL     1      40.562 -14.600  -2.075  1.00  0.00     0.116 A 
HETATM   27  F   UNL     1      40.594 -14.319  -3.384  1.00  0.00    -0.206 F 
HETATM   28  C   UNL     1      39.864 -13.768  -1.212  1.00  0.00     0.043 A 
HETATM   29  C   UNL     1      39.829 -14.060   0.154  1.00  0.00     0.013 A 
ENDBRANCH  19  23
ENDBRANCH  18  19
ENDBRANCH   1  18
TORSDOF 6
ENDMDL
MODEL 10
REMARK VINA RESULT:      -7.2      3.273      7.245
REMARK  6 active torsions:
REMARK  status: ('A' for Active; 'I' for Inactive)
REMARK    1  A    between atoms: C_2  and  O_3 
REMARK    2  A    between atoms: C_2  and  C_4 
REMARK    3  A    between atoms: C_2  and  C_11 
REMARK    4  A    between atoms: C_11  and  N_12 
REMARK       I    between atoms: N_12  and  C_13 
REMARK    5  A    between atoms: C_13  and  C_14 
REMARK    6  A    between atoms: C_15  and  C_16 
ROOT
HETATM    1  N   UNL     1      42.913 -15.704   3.668  1.00  0.00    -0.354 N 
HETATM    2  C   UNL     1      41.644 -15.180   3.791  1.00  0.00     0.255 C 
HETATM    3  O   UNL     1      40.652 -15.884   3.942  1.00  0.00    -0.268 OA
HETATM    4  H   UNL     1      43.702 -15.083   3.784  1.00  0.00     0.162 HD
ENDROOT
BRANCH   2   5
HETATM    5  C   UNL     1      41.583 -13.727   3.730  1.00  0.00     0.080 A 
HETATM    6  C   UNL     1      40.917 -12.898   2.771  1.00  0.00     0.107 A 
HETATM    7  N   UNL     1      41.167 -11.596   3.002  1.00  0.00    -0.173 NA
HETATM    8  N   UNL     1      41.932 -11.588   4.098  1.00  0.00    -0.288 N 
HETATM    9  H   UNL     1      42.239 -10.691   4.460  1.00  0.00     0.188 HD
HETATM   10  C   UNL     1      42.212 -12.830   4.577  1.00  0.00     0.128 A 
BRANCH   6  11
HETATM   11  C   UNL     1      40.060 -13.287   1.657  1.00  0.00     0.034 A 
HETATM   12  C   UNL     1      40.598 -13.812   0.478  1.00  0.00     0.129 A 
HETATM   13  F   UNL     1      41.922 -13.993   0.349  1.00  0.00    -0.205 F 
HETATM   14  C   UNL     1      39.775 -14.192  -0.581  1.00  0.00     0.043 A 
HETATM   15  C   UNL     1      38.392 -14.061  -0.467  1.00  0.00     0.003 A 
HETATM   16  C   UNL     1      37.837 -13.556   0.709  1.00  0.00     0.001 A 
HETATM   17  C   UNL     1      38.666 -13.174   1.768  1.00  0.00     0.017 A 
ENDBRANCH   6  11
ENDBRANCH   2   5
BRANCH   1  18
HETATM   18  C   UNL     1      43.187 -17.124   3.834  1.00  0.00     0.165 C 
BRANCH  18  19
HETATM   19  C   UNL     1      43.224 -17.901   2.489  1.00  0.00     0.097 C 
HETATM   20  C   UNL     1      44.105 -17.205   1.439  1.00  0.00     0.053 C 
BRANCH  19  21
HETATM   21  O   UNL     1      41.879 -17.909   1.967  1.00  0.00    -0.384 OA
HETATM   22  H   UNL     1      41.354 -18.470   2.564  1.00  0.00     0.211 HD
ENDBRANCH  19  21
BRANCH  19  23
HETATM   23  C   UNL     1      43.689 -19.339   2.740  1.00  0.00    -0.023 A 
HETATM   24  C   UNL     1      43.479 -20.339   1.770  1.00  0.00     0.013 A 
HETATM   25  C   UNL     1      43.904 -21.652   1.988  1.00  0.00     0.043 A 
HETATM   26  C   UNL     1      44.547 -21.978   3.174  1.00  0.00     0.116 A 
HETATM   27  F   UNL     1      44.952 -23.237   3.384  1.00  0.00    -0.206 F 
HETATM   28  C   UNL     1      44.780 -21.013   4.144  1.00  0.00     0.043 A 
HETATM   29  C   UNL     1      44.360 -19.698   3.926  1.00  0.00     0.013 A 
ENDBRANCH  19  23
ENDBRANCH  18  19
ENDBRANCH   1  18
TORSDOF 6
ENDMDL
