MODEL 1
REMARK VINA RESULT:      -7.5      0.000      0.000
REMARK  9 active torsions:
REMARK  status: ('A' for Active; 'I' for Inactive)
REMARK    1  A    between atoms: C_2  and  O_3 
REMARK    2  A    between atoms: O_3  and  C_4 
REMARK    3  A    between atoms: C_4  and  C_5 
REMARK    4  A    between atoms: C_11  and  O_12 
REMARK    5  A    between atoms: C_13  and  C_14 
REMARK    6  A    between atoms: C_14  and  N_15 
REMARK    7  A    between atoms: N_19  and  C_20 
REMARK    8  A    between atoms: C_26  and  C_27 
REMARK    9  A    between atoms: C_27  and  N_28 
ROOT
HETATM    1  C   UNL     1      43.382 -16.017   5.456  1.00  0.00     0.077 A 
HETATM    2  C   UNL     1      43.605 -17.279   4.768  1.00  0.00     0.020 A 
HETATM    3  C   UNL     1      42.996 -17.146   3.510  1.00  0.00     0.053 A 
HETATM    4  C   UNL     1      42.942 -18.207   2.585  1.00  0.00     0.053 A 
HETATM    5  C   UNL     1      43.515 -19.422   2.930  1.00  0.00     0.047 A 
HETATM    6 BR   UNL     1      43.411 -20.856   1.696  1.00  0.00    -0.048 Br
HETATM    7  C   UNL     1      44.141 -19.582   4.161  1.00  0.00     0.092 A 
HETATM    8  C   UNL     1      44.253 -18.525   5.102  1.00  0.00     0.016 A 
HETATM    9  N   UNL     1      42.420 -15.882   3.428  1.00  0.00    -0.312 N 
HETATM   10  C   UNL     1      42.701 -15.161   4.579  1.00  0.00     0.060 A 
ENDROOT
BRANCH  10  11
HETATM   11  C   UNL     1      42.280 -13.728   4.753  1.00  0.00     0.293 C 
BRANCH  11  12
HETATM   12  N   UNL     1      41.390 -13.496   5.944  1.00  0.00    -0.066 N 
HETATM   13  H   UNL     1      41.812 -13.988   6.743  1.00  0.00     0.280 HD
HETATM   14  C   UNL     1      39.963 -13.986   5.808  1.00  0.00     0.235 C 
HETATM   15  C   UNL     1      39.123 -12.727   5.796  1.00  0.00     0.029 C 
HETATM   16  C   UNL     1      39.873 -11.812   6.739  1.00  0.00     0.029 C 
HETATM   17  C   UNL     1      41.320 -12.026   6.343  1.00  0.00     0.235 C 
ENDBRANCH  11  12
ENDBRANCH  10  11
BRANCH   1  18
HETATM   18  C   UNL     1      43.764 -15.691   6.836  1.00  0.00     0.296 C 
HETATM   19  O   UNL     1      43.191 -16.164   7.806  1.00  0.00    -0.259 OA
BRANCH  18  20
HETATM   20  O   UNL     1      44.839 -14.858   6.907  1.00  0.00    -0.318 OA
BRANCH  20  21
HETATM   21  C   UNL     1      44.648 -13.643   7.656  1.00  0.00     0.174 C 
HETATM   22  C   UNL     1      45.954 -12.878   7.748  1.00  0.00     0.034 C 
ENDBRANCH  20  21
ENDBRANCH  18  20
ENDBRANCH   1  18
BRANCH   9  23
HETATM   23  C   UNL     1      41.671 -15.410   2.318  1.00  0.00     0.040 A 
HETATM   24  C   UNL     1      40.272 -15.434   2.365  1.00  0.00     0.030 A 
HETATM   25  C   UNL     1      39.539 -14.960   1.278  1.00  0.00     0.002 A 
HETATM   26  C   UNL     1      40.198 -14.471   0.152  1.00  0.00     0.000 A 
HETATM   27  C   UNL     1      41.593 -14.461   0.102  1.00  0.00     0.002 A 
HETATM   28  C   UNL     1      42.337 -14.935   1.182  1.00  0.00     0.030 A 
ENDBRANCH   9  23
BRANCH   8  29
HETATM   29  C   UNL     1      44.938 -18.771   6.441  1.00  0.00     0.276 C 
BRANCH  29  30
HETATM   30  N   UNL     1      44.062 -19.176   7.606  1.00  0.00    -0.075 N 
HETATM   31  H   UNL     1      43.212 -18.594   7.501  1.00  0.00     0.279 HD
HETATM   32  C   UNL     1      43.614 -20.601   7.552  1.00  0.00     0.269 C 
HETATM   33  C   UNL     1      44.672 -18.822   8.928  1.00  0.00     0.269 C 
ENDBRANCH  29  30
ENDBRANCH   8  29
BRANCH   7  34
HETATM   34  O   UNL     1      44.666 -20.813   4.495  1.00  0.00    -0.359 OA
HETATM   35  H   UNL     1      43.995 -21.268   5.054  1.00  0.00     0.218 HD
ENDBRANCH   7  34
TORSDOF 9
ENDMDL
MODEL 2
REMARK VINA RESULT:      -7.0      3.276      6.437
REMARK  9 active torsions:
REMARK  status: ('A' for Active; 'I' for Inactive)
REMARK    1  A    between atoms: C_2  and  O_3 
REMARK    2  A    between atoms: O_3  and  C_4 
REMARK    3  A    between atoms: C_4  and  C_5 
REMARK    4  A    between atoms: C_11  and  O_12 
REMARK    5  A    between atoms: C_13  and  C_14 
REMARK    6  A    between atoms: C_14  and  N_15 
REMARK    7  A    between atoms: N_19  and  C_20 
REMARK    8  A    between atoms: C_26  and  C_27 
REMARK    9  A    between atoms: C_27  and  N_28 
ROOT
HETATM    1  C   UNL     1      41.643 -14.177   3.904  1.00  0.00     0.077 A 
HETATM    2  C   UNL     1      40.507 -13.286   3.730  1.00  0.00     0.020 A 
HETATM    3  C   UNL     1      40.301 -13.188   2.346  1.00  0.00     0.053 A 
HETATM    4  C   UNL     1      39.322 -12.342   1.789  1.00  0.00     0.053 A 
HETATM    5  C   UNL     1      38.534 -11.583   2.641  1.00  0.00     0.047 A 
HETATM    6 BR   UNL     1      37.240 -10.421   1.887  1.00  0.00    -0.048 Br
HETATM    7  C   UNL     1      38.700 -11.669   4.019  1.00  0.00     0.092 A 
HETATM    8  C   UNL     1      39.646 -12.541   4.619  1.00  0.00     0.016 A 
HETATM    9  N   UNL     1      41.257 -13.964   1.699  1.00  0.00    -0.312 N 
HETATM   10  C   UNL     1      42.042 -14.621   2.636  1.00  0.00     0.060 A 
ENDROOT
BRANCH  10  11
HETATM   11  C   UNL     1      43.114 -15.600   2.243  1.00  0.00     0.293 C 
BRANCH  11  12
HETATM   12  N   UNL     1      42.617 -17.010   2.076  1.00  0.00    -0.066 N 
HETATM   13  H   UNL     1      41.712 -16.962   1.589  1.00  0.00     0.280 HD
HETATM   14  C   UNL     1      42.407 -17.793   3.355  1.00  0.00     0.235 C 
HETATM   15  C   UNL     1      43.456 -18.884   3.317  1.00  0.00     0.029 C 
HETATM   16  C   UNL     1      43.544 -19.214   1.843  1.00  0.00     0.029 C 
HETATM   17  C   UNL     1      43.529 -17.848   1.186  1.00  0.00     0.235 C 
ENDBRANCH  11  12
ENDBRANCH  10  11
BRANCH   1  18
HETATM   18  C   UNL     1      42.292 -14.533   5.173  1.00  0.00     0.296 C 
HETATM   19  O   UNL     1      41.887 -15.437   5.888  1.00  0.00    -0.259 OA
BRANCH  18  20
HETATM   20  O   UNL     1      43.403 -13.788   5.428  1.00  0.00    -0.318 OA
BRANCH  20  21
HETATM   21  C   UNL     1      44.396 -14.404   6.270  1.00  0.00     0.174 C 
HETATM   22  C   UNL     1      44.608 -13.569   7.518  1.00  0.00     0.034 C 
ENDBRANCH  20  21
ENDBRANCH  18  20
ENDBRANCH   1  18
BRANCH   9  23
HETATM   23  C   UNL     1      41.391 -14.067   0.289  1.00  0.00     0.040 A 
HETATM   24  C   UNL     1      40.831 -15.160  -0.382  1.00  0.00     0.030 A 
HETATM   25  C   UNL     1      40.956 -15.253  -1.768  1.00  0.00     0.002 A 
HETATM   26  C   UNL     1      41.638 -14.265  -2.475  1.00  0.00     0.000 A 
HETATM   27  C   UNL     1      42.208 -13.184  -1.801  1.00  0.00     0.002 A 
HETATM   28  C   UNL     1      42.092 -13.082  -0.415  1.00  0.00     0.030 A 
ENDBRANCH   9  23
BRANCH   8  29
HETATM   29  C   UNL     1      39.790 -12.575   6.136  1.00  0.00     0.276 C 
BRANCH  29  30
HETATM   30  N   UNL     1      40.168 -11.284   6.828  1.00  0.00    -0.075 N 
HETATM   31  H   UNL     1      39.830 -10.543   6.188  1.00  0.00     0.279 HD
HETATM   32  C   UNL     1      39.465 -11.075   8.132  1.00  0.00     0.269 C 
HETATM   33  C   UNL     1      41.651 -11.113   6.948  1.00  0.00     0.269 C 
ENDBRANCH  29  30
ENDBRANCH   8  29
BRANCH   7  34
HETATM   34  O   UNL     1      37.931 -10.872   4.842  1.00  0.00    -0.359 OA
HETATM   35  H   UNL     1      37.565 -11.457   5.544  1.00  0.00     0.218 HD
ENDBRANCH   7  34
TORSDOF 9
ENDMDL
MODEL 3
REMARK VINA RESULT:      -6.9      3.710      8.240
REMARK  9 active torsions:
REMARK  status: ('A' for Active; 'I' for Inactive)
REMARK    1  A    between atoms: C_2  and  O_3 
REMARK    2  A    between atoms: O_3  and  C_4 
REMARK    3  A    between atoms: C_4  and  C_5 
REMARK    4  A    between atoms: C_11  and  O_12 
REMARK    5  A    between atoms: C_13  and  C_14 
REMARK    6  A    between atoms: C_14  and  N_15 
REMARK    7  A    between atoms: N_19  and  C_20 
REMARK    8  A    between atoms: C_26  and  C_27 
REMARK    9  A    between atoms: C_27  and  N_28 
ROOT
HETATM    1  C   UNL     1      41.513 -15.440   1.653  1.00  0.00     0.077 A 
HETATM    2  C   UNL     1      40.733 -14.312   2.137  1.00  0.00     0.020 A 
HETATM    3  C   UNL     1      41.244 -14.005   3.407  1.00  0.00     0.053 A 
HETATM    4  C   UNL     1      40.680 -13.004   4.222  1.00  0.00     0.053 A 
HETATM    5  C   UNL     1      39.586 -12.296   3.749  1.00  0.00     0.047 A 
HETATM    6 BR   UNL     1      38.810 -10.973   4.861  1.00  0.00    -0.048 Br
HETATM    7  C   UNL     1      39.066 -12.563   2.487  1.00  0.00     0.092 A 
HETATM    8  C   UNL     1      39.631 -13.534   1.620  1.00  0.00     0.016 A 
HETATM    9  N   UNL     1      42.271 -14.896   3.699  1.00  0.00    -0.312 N 
HETATM   10  C   UNL     1      42.489 -15.735   2.616  1.00  0.00     0.060 A 
ENDROOT
BRANCH  10  11
HETATM   11  C   UNL     1      43.593 -16.756   2.598  1.00  0.00     0.293 C 
BRANCH  11  12
HETATM   12  N   UNL     1      43.113 -18.172   2.766  1.00  0.00    -0.066 N 
HETATM   13  H   UNL     1      42.085 -18.155   2.722  1.00  0.00     0.280 HD
HETATM   14  C   UNL     1      43.503 -18.854   4.061  1.00  0.00     0.235 C 
HETATM   15  C   UNL     1      44.460 -19.951   3.646  1.00  0.00     0.029 C 
HETATM   16  C   UNL     1      43.906 -20.393   2.309  1.00  0.00     0.029 C 
HETATM   17  C   UNL     1      43.568 -19.081   1.630  1.00  0.00     0.235 C 
ENDBRANCH  11  12
ENDBRANCH  10  11
BRANCH   1  18
HETATM   18  C   UNL     1      41.308 -16.175   0.398  1.00  0.00     0.296 C 
HETATM   19  O   UNL     1      40.908 -17.329   0.369  1.00  0.00    -0.259 OA
BRANCH  18  20
HETATM   20  O   UNL     1      41.563 -15.420  -0.707  1.00  0.00    -0.318 OA
BRANCH  20  21
HETATM   21  C   UNL     1      40.924 -15.848  -1.924  1.00  0.00     0.174 C 
HETATM   22  C   UNL     1      41.309 -14.927  -3.065  1.00  0.00     0.034 C 
ENDBRANCH  20  21
ENDBRANCH  18  20
ENDBRANCH   1  18
BRANCH   9  23
HETATM   23  C   UNL     1      42.990 -14.922   4.923  1.00  0.00     0.040 A 
HETATM   24  C   UNL     1      44.014 -13.994   5.147  1.00  0.00     0.030 A 
HETATM   25  C   UNL     1      44.711 -14.017   6.355  1.00  0.00     0.002 A 
HETATM   26  C   UNL     1      44.390 -14.961   7.328  1.00  0.00     0.000 A 
HETATM   27  C   UNL     1      43.378 -15.894   7.096  1.00  0.00     0.002 A 
HETATM   28  C   UNL     1      42.676 -15.883   5.891  1.00  0.00     0.030 A 
ENDBRANCH   9  23
BRANCH   8  29
HETATM   29  C   UNL     1      39.003 -13.790   0.255  1.00  0.00     0.276 C 
BRANCH  29  30
HETATM   30  N   UNL     1      38.966 -12.636  -0.722  1.00  0.00    -0.075 N 
HETATM   31  H   UNL     1      38.400 -11.913  -0.242  1.00  0.00     0.279 HD
HETATM   32  C   UNL     1      40.307 -12.027  -0.981  1.00  0.00     0.269 C 
HETATM   33  C   UNL     1      38.246 -12.983  -1.988  1.00  0.00     0.269 C 
ENDBRANCH  29  30
ENDBRANCH   8  29
BRANCH   7  34
HETATM   34  O   UNL     1      37.951 -11.873   2.057  1.00  0.00    -0.359 OA
HETATM   35  H   UNL     1      37.171 -12.438   2.259  1.00  0.00     0.218 HD
ENDBRANCH   7  34
TORSDOF 9
ENDMDL
MODEL 4
REMARK VINA RESULT:      -6.7      3.548      7.135
REMARK  9 active torsions:
REMARK  status: ('A' for Active; 'I' for Inactive)
REMARK    1  A    between atoms: C_2  and  O_3 
REMARK    2  A    between atoms: O_3  and  C_4 
REMARK    3  A    between atoms: C_4  and  C_5 
REMARK    4  A    between atoms: C_11  and  O_12 
REMARK    5  A    between atoms: C_13  and  C_14 
REMARK    6  A    between atoms: C_14  and  N_15 
REMARK    7  A    between atoms: N_19  and  C_20 
REMARK    8  A    between atoms: C_26  and  C_27 
REMARK    9  A    between atoms: C_27  and  N_28 
ROOT
HETATM    1  C   UNL     1      40.935 -13.400   2.330  1.00  0.00     0.077 A 
HETATM    2  C   UNL     1      41.666 -13.384   3.588  1.00  0.00     0.020 A 
HETATM    3  C   UNL     1      42.387 -14.586   3.632  1.00  0.00     0.053 A 
HETATM    4  C   UNL     1      43.161 -14.958   4.748  1.00  0.00     0.053 A 
HETATM    5  C   UNL     1      43.212 -14.103   5.839  1.00  0.00     0.047 A 
HETATM    6 BR   UNL     1      44.228 -14.623   7.352  1.00  0.00    -0.048 Br
HETATM    7  C   UNL     1      42.523 -12.896   5.821  1.00  0.00     0.092 A 
HETATM    8  C   UNL     1      41.768 -12.467   4.699  1.00  0.00     0.016 A 
HETATM    9  N   UNL     1      42.113 -15.310   2.476  1.00  0.00    -0.312 N 
HETATM   10  C   UNL     1      41.281 -14.574   1.646  1.00  0.00     0.060 A 
ENDROOT
BRANCH  10  11
HETATM   11  C   UNL     1      40.871 -15.059   0.283  1.00  0.00     0.293 C 
BRANCH  11  12
HETATM   12  N   UNL     1      40.786 -13.968  -0.750  1.00  0.00    -0.066 N 
HETATM   13  H   UNL     1      40.284 -13.178  -0.322  1.00  0.00     0.280 HD
HETATM   14  C   UNL     1      40.064 -14.326  -2.033  1.00  0.00     0.235 C 
HETATM   15  C   UNL     1      41.140 -14.310  -3.097  1.00  0.00     0.029 C 
HETATM   16  C   UNL     1      42.052 -13.193  -2.639  1.00  0.00     0.029 C 
HETATM   17  C   UNL     1      42.157 -13.430  -1.145  1.00  0.00     0.235 C 
ENDBRANCH  11  12
ENDBRANCH  10  11
BRANCH   1  18
HETATM   18  C   UNL     1      39.976 -12.393   1.859  1.00  0.00     0.296 C 
HETATM   19  O   UNL     1      40.303 -11.455   1.149  1.00  0.00    -0.259 OA
BRANCH  18  20
HETATM   20  O   UNL     1      38.699 -12.649   2.258  1.00  0.00    -0.318 OA
BRANCH  20  21
HETATM   21  C   UNL     1      37.697 -12.622   1.224  1.00  0.00     0.174 C 
HETATM   22  C   UNL     1      37.388 -14.033   0.763  1.00  0.00     0.034 C 
ENDBRANCH  20  21
ENDBRANCH  18  20
ENDBRANCH   1  18
BRANCH   9  23
HETATM   23  C   UNL     1      42.626 -16.604   2.196  1.00  0.00     0.040 A 
HETATM   24  C   UNL     1      41.899 -17.737   2.580  1.00  0.00     0.030 A 
HETATM   25  C   UNL     1      42.400 -19.006   2.295  1.00  0.00     0.002 A 
HETATM   26  C   UNL     1      43.621 -19.142   1.635  1.00  0.00     0.000 A 
HETATM   27  C   UNL     1      44.350 -18.011   1.265  1.00  0.00     0.002 A 
HETATM   28  C   UNL     1      43.860 -16.736   1.549  1.00  0.00     0.030 A 
ENDBRANCH   9  23
BRANCH   8  29
HETATM   29  C   UNL     1      41.021 -11.139   4.750  1.00  0.00     0.276 C 
BRANCH  29  30
HETATM   30  N   UNL     1      39.880 -11.020   5.736  1.00  0.00    -0.075 N 
HETATM   31  H   UNL     1      40.345 -10.979   6.661  1.00  0.00     0.279 HD
HETATM   32  C   UNL     1      39.096  -9.754   5.595  1.00  0.00     0.269 C 
HETATM   33  C   UNL     1      39.003 -12.234   5.742  1.00  0.00     0.269 C 
ENDBRANCH  29  30
ENDBRANCH   8  29
BRANCH   7  34
HETATM   34  O   UNL     1      42.558 -12.083   6.936  1.00  0.00    -0.359 OA
HETATM   35  H   UNL     1      41.639 -11.760   7.082  1.00  0.00     0.218 HD
ENDBRANCH   7  34
TORSDOF 9
ENDMDL
MODEL 5
REMARK VINA RESULT:      -6.7      4.509      7.901
REMARK  9 active torsions:
REMARK  status: ('A' for Active; 'I' for Inactive)
REMARK    1  A    between atoms: C_2  and  O_3 
REMARK    2  A    between atoms: O_3  and  C_4 
REMARK    3  A    between atoms: C_4  and  C_5 
REMARK    4  A    between atoms: C_11  and  O_12 
REMARK    5  A    between atoms: C_13  and  C_14 
REMARK    6  A    between atoms: C_14  and  N_15 
REMARK    7  A    between atoms: N_19  and  C_20 
REMARK    8  A    between atoms: C_26  and  C_27 
REMARK    9  A    between atoms: C_27  and  N_28 
ROOT
HETATM    1  C   UNL     1      41.719 -12.615   0.520  1.00  0.00     0.077 A 
HETATM    2  C   UNL     1      41.054 -13.233  -0.616  1.00  0.00     0.020 A 
HETATM    3  C   UNL     1      41.144 -14.618  -0.410  1.00  0.00     0.053 A 
HETATM    4  C   UNL     1      40.671 -15.551  -1.353  1.00  0.00     0.053 A 
HETATM    5  C   UNL     1      40.093 -15.082  -2.523  1.00  0.00     0.047 A 
HETATM    6 BR   UNL     1      39.487 -16.340  -3.804  1.00  0.00    -0.048 Br
HETATM    7  C   UNL     1      39.972 -13.715  -2.751  1.00  0.00     0.092 A 
HETATM    8  C   UNL     1      40.398 -12.746  -1.806  1.00  0.00     0.016 A 
HETATM    9  N   UNL     1      41.833 -14.846   0.777  1.00  0.00    -0.312 N 
HETATM   10  C   UNL     1      42.134 -13.637   1.386  1.00  0.00     0.060 A 
ENDROOT
BRANCH  10  11
HETATM   11  C   UNL     1      42.808 -13.558   2.728  1.00  0.00     0.293 C 
BRANCH  11  12
HETATM   12  N   UNL     1      41.867 -13.257   3.863  1.00  0.00    -0.066 N 
HETATM   13  H   UNL     1      41.911 -12.243   4.038  1.00  0.00     0.280 HD
HETATM   14  C   UNL     1      42.162 -13.960   5.171  1.00  0.00     0.235 C 
HETATM   15  C   UNL     1      41.003 -14.914   5.366  1.00  0.00     0.029 C 
HETATM   16  C   UNL     1      39.835 -14.149   4.783  1.00  0.00     0.029 C 
HETATM   17  C   UNL     1      40.414 -13.560   3.512  1.00  0.00     0.235 C 
ENDBRANCH  11  12
ENDBRANCH  10  11
BRANCH   1  18
HETATM   18  C   UNL     1      41.954 -11.180   0.725  1.00  0.00     0.296 C 
HETATM   19  O   UNL     1      41.281 -10.505   1.489  1.00  0.00    -0.259 OA
BRANCH  18  20
HETATM   20  O   UNL     1      43.018 -10.710   0.016  1.00  0.00    -0.318 OA
BRANCH  20  21
HETATM   21  C   UNL     1      42.977  -9.313  -0.331  1.00  0.00     0.174 C 
HETATM   22  C   UNL     1      44.156  -8.963  -1.218  1.00  0.00     0.034 C 
ENDBRANCH  20  21
ENDBRANCH  18  20
ENDBRANCH   1  18
BRANCH   9  23
HETATM   23  C   UNL     1      42.161 -16.132   1.283  1.00  0.00     0.040 A 
HETATM   24  C   UNL     1      43.375 -16.729   0.925  1.00  0.00     0.030 A 
HETATM   25  C   UNL     1      43.699 -17.987   1.432  1.00  0.00     0.002 A 
HETATM   26  C   UNL     1      42.815 -18.644   2.287  1.00  0.00     0.000 A 
HETATM   27  C   UNL     1      41.599 -18.051   2.631  1.00  0.00     0.002 A 
HETATM   28  C   UNL     1      41.263 -16.795   2.128  1.00  0.00     0.030 A 
ENDBRANCH   9  23
BRANCH   8  29
HETATM   29  C   UNL     1      40.252 -11.262  -2.125  1.00  0.00     0.276 C 
BRANCH  29  30
HETATM   30  N   UNL     1      40.952 -10.744  -3.362  1.00  0.00    -0.075 N 
HETATM   31  H   UNL     1      40.420 -11.160  -4.148  1.00  0.00     0.279 HD
HETATM   32  C   UNL     1      40.863  -9.260  -3.524  1.00  0.00     0.269 C 
HETATM   33  C   UNL     1      42.358 -11.245  -3.474  1.00  0.00     0.269 C 
ENDBRANCH  29  30
ENDBRANCH   8  29
BRANCH   7  34
HETATM   34  O   UNL     1      39.431 -13.276  -3.941  1.00  0.00    -0.359 OA
HETATM   35  H   UNL     1      38.563 -13.730  -4.045  1.00  0.00     0.218 HD
ENDBRANCH   7  34
TORSDOF 9
ENDMDL
MODEL 6
REMARK VINA RESULT:      -6.7      3.547      6.985
REMARK  9 active torsions:
REMARK  status: ('A' for Active; 'I' for Inactive)
REMARK    1  A    between atoms: C_2  and  O_3 
REMARK    2  A    between atoms: O_3  and  C_4 
REMARK    3  A    between atoms: C_4  and  C_5 
REMARK    4  A    between atoms: C_11  and  O_12 
REMARK    5  A    between atoms: C_13  and  C_14 
REMARK    6  A    between atoms: C_14  and  N_15 
REMARK    7  A    between atoms: N_19  and  C_20 
REMARK    8  A    between atoms: C_26  and  C_27 
REMARK    9  A    between atoms: C_27  and  N_28 
ROOT
HETATM    1  C   UNL     1      40.741 -13.495   2.658  1.00  0.00     0.077 A 
HETATM    2  C   UNL     1      40.574 -13.558   1.214  1.00  0.00     0.020 A 
HETATM    3  C   UNL     1      41.133 -14.781   0.813  1.00  0.00     0.053 A 
HETATM    4  C   UNL     1      41.222 -15.159  -0.541  1.00  0.00     0.053 A 
HETATM    5  C   UNL     1      40.737 -14.292  -1.508  1.00  0.00     0.047 A 
HETATM    6 BR   UNL     1      40.888 -14.789  -3.331  1.00  0.00    -0.048 Br
HETATM    7  C   UNL     1      40.160 -13.080  -1.144  1.00  0.00     0.092 A 
HETATM    8  C   UNL     1      40.014 -12.683   0.210  1.00  0.00     0.016 A 
HETATM    9  N   UNL     1      41.627 -15.433   1.938  1.00  0.00    -0.312 N 
HETATM   10  C   UNL     1      41.340 -14.691   3.076  1.00  0.00     0.060 A 
ENDROOT
BRANCH  10  11
HETATM   11  C   UNL     1      41.677 -15.177   4.458  1.00  0.00     0.293 C 
BRANCH  11  12
HETATM   12  N   UNL     1      43.112 -14.945   4.850  1.00  0.00    -0.066 N 
HETATM   13  H   UNL     1      43.646 -14.795   3.984  1.00  0.00     0.280 HD
HETATM   14  C   UNL     1      43.780 -16.072   5.610  1.00  0.00     0.235 C 
HETATM   15  C   UNL     1      44.026 -15.511   6.994  1.00  0.00     0.029 C 
HETATM   16  C   UNL     1      44.331 -14.055   6.718  1.00  0.00     0.029 C 
HETATM   17  C   UNL     1      43.292 -13.679   5.681  1.00  0.00     0.235 C 
ENDBRANCH  11  12
ENDBRANCH  10  11
BRANCH   1  18
HETATM   18  C   UNL     1      40.383 -12.372   3.534  1.00  0.00     0.296 C 
HETATM   19  O   UNL     1      41.107 -11.400   3.685  1.00  0.00    -0.259 OA
BRANCH  18  20
HETATM   20  O   UNL     1      39.156 -12.515   4.107  1.00  0.00    -0.318 OA
BRANCH  20  21
HETATM   21  C   UNL     1      38.985 -11.897   5.397  1.00  0.00     0.174 C 
HETATM   22  C   UNL     1      39.499 -12.818   6.486  1.00  0.00     0.034 C 
ENDBRANCH  20  21
ENDBRANCH  18  20
ENDBRANCH   1  18
BRANCH   9  23
HETATM   23  C   UNL     1      42.311 -16.677   1.913  1.00  0.00     0.040 A 
HETATM   24  C   UNL     1      43.701 -16.701   1.758  1.00  0.00     0.030 A 
HETATM   25  C   UNL     1      44.371 -17.924   1.743  1.00  0.00     0.002 A 
HETATM   26  C   UNL     1      43.656 -19.113   1.878  1.00  0.00     0.000 A 
HETATM   27  C   UNL     1      42.267 -19.086   2.019  1.00  0.00     0.002 A 
HETATM   28  C   UNL     1      41.587 -17.869   2.031  1.00  0.00     0.030 A 
ENDBRANCH   9  23
BRANCH   8  29
HETATM   29  C   UNL     1      39.388 -11.333   0.542  1.00  0.00     0.276 C 
BRANCH  29  30
HETATM   30  N   UNL     1      38.097 -11.340   1.330  1.00  0.00    -0.075 N 
HETATM   31  H   UNL     1      38.280 -11.992   2.114  1.00  0.00     0.279 HD
HETATM   32  C   UNL     1      37.763 -10.017   1.943  1.00  0.00     0.269 C 
HETATM   33  C   UNL     1      36.954 -11.908   0.548  1.00  0.00     0.269 C 
ENDBRANCH  29  30
ENDBRANCH   8  29
BRANCH   7  34
HETATM   34  O   UNL     1      39.723 -12.219  -2.129  1.00  0.00    -0.359 OA
HETATM   35  H   UNL     1      39.550 -11.352  -1.694  1.00  0.00     0.218 HD
ENDBRANCH   7  34
TORSDOF 9
ENDMDL
MODEL 7
REMARK VINA RESULT:      -6.6      2.307      3.712
REMARK  9 active torsions:
REMARK  status: ('A' for Active; 'I' for Inactive)
REMARK    1  A    between atoms: C_2  and  O_3 
REMARK    2  A    between atoms: O_3  and  C_4 
REMARK    3  A    between atoms: C_4  and  C_5 
REMARK    4  A    between atoms: C_11  and  O_12 
REMARK    5  A    between atoms: C_13  and  C_14 
REMARK    6  A    between atoms: C_14  and  N_15 
REMARK    7  A    between atoms: N_19  and  C_20 
REMARK    8  A    between atoms: C_26  and  C_27 
REMARK    9  A    between atoms: C_27  and  N_28 
ROOT
HETATM    1  C   UNL     1      41.189 -14.455   3.750  1.00  0.00     0.077 A 
HETATM    2  C   UNL     1      41.959 -15.682   3.622  1.00  0.00     0.020 A 
HETATM    3  C   UNL     1      42.167 -15.865   2.247  1.00  0.00     0.053 A 
HETATM    4  C   UNL     1      42.819 -17.002   1.730  1.00  0.00     0.053 A 
HETATM    5  C   UNL     1      43.272 -17.970   2.614  1.00  0.00     0.047 A 
HETATM    6 BR   UNL     1      44.119 -19.514   1.913  1.00  0.00    -0.048 Br
HETATM    7  C   UNL     1      43.097 -17.811   3.985  1.00  0.00     0.092 A 
HETATM    8  C   UNL     1      42.484 -16.661   4.545  1.00  0.00     0.016 A 
HETATM    9  N   UNL     1      41.554 -14.821   1.562  1.00  0.00    -0.312 N 
HETATM   10  C   UNL     1      41.009 -13.922   2.466  1.00  0.00     0.060 A 
ENDROOT
BRANCH  10  11
HETATM   11  C   UNL     1      40.347 -12.644   2.030  1.00  0.00     0.293 C 
BRANCH  11  12
HETATM   12  N   UNL     1      38.844 -12.716   2.006  1.00  0.00    -0.066 N 
HETATM   13  H   UNL     1      38.512 -12.529   2.962  1.00  0.00     0.280 HD
HETATM   14  C   UNL     1      38.252 -14.039   1.567  1.00  0.00     0.235 C 
HETATM   15  C   UNL     1      37.578 -13.741   0.245  1.00  0.00     0.029 C 
HETATM   16  C   UNL     1      37.062 -12.331   0.441  1.00  0.00     0.029 C 
HETATM   17  C   UNL     1      38.223 -11.637   1.126  1.00  0.00     0.235 C 
ENDBRANCH  11  12
ENDBRANCH  10  11
BRANCH   1  18
HETATM   18  C   UNL     1      40.656 -13.879   4.992  1.00  0.00     0.296 C 
HETATM   19  O   UNL     1      39.522 -14.103   5.387  1.00  0.00    -0.259 OA
BRANCH  18  20
HETATM   20  O   UNL     1      41.570 -13.123   5.662  1.00  0.00    -0.318 OA
BRANCH  20  21
HETATM   21  C   UNL     1      41.102 -11.850   6.147  1.00  0.00     0.174 C 
HETATM   22  C   UNL     1      41.278 -10.791   5.076  1.00  0.00     0.034 C 
ENDBRANCH  20  21
ENDBRANCH  18  20
ENDBRANCH   1  18
BRANCH   9  23
HETATM   23  C   UNL     1      41.512 -14.701   0.148  1.00  0.00     0.040 A 
HETATM   24  C   UNL     1      40.966 -15.736  -0.620  1.00  0.00     0.030 A 
HETATM   25  C   UNL     1      40.917 -15.610  -2.008  1.00  0.00     0.002 A 
HETATM   26  C   UNL     1      41.413 -14.462  -2.623  1.00  0.00     0.000 A 
HETATM   27  C   UNL     1      41.969 -13.437  -1.855  1.00  0.00     0.002 A 
HETATM   28  C   UNL     1      42.027 -13.554  -0.467  1.00  0.00     0.030 A 
ENDBRANCH   9  23
BRANCH   8  29
HETATM   29  C   UNL     1      42.308 -16.555   6.055  1.00  0.00     0.276 C 
BRANCH  29  30
HETATM   30  N   UNL     1      43.561 -16.539   6.903  1.00  0.00    -0.075 N 
HETATM   31  H   UNL     1      44.230 -17.133   6.381  1.00  0.00     0.279 HD
HETATM   32  C   UNL     1      44.188 -15.187   7.018  1.00  0.00     0.269 C 
HETATM   33  C   UNL     1      43.354 -17.185   8.238  1.00  0.00     0.269 C 
ENDBRANCH  29  30
ENDBRANCH   8  29
BRANCH   7  34
HETATM   34  O   UNL     1      43.521 -18.809   4.838  1.00  0.00    -0.359 OA
HETATM   35  H   UNL     1      44.488 -18.682   4.966  1.00  0.00     0.218 HD
ENDBRANCH   7  34
TORSDOF 9
ENDMDL
MODEL 8
REMARK VINA RESULT:      -6.6      3.670      6.558
REMARK  9 active torsions:
REMARK  status: ('A' for Active; 'I' for Inactive)
REMARK    1  A    between atoms: C_2  and  O_3 
REMARK    2  A    between atoms: O_3  and  C_4 
REMARK    3  A    between atoms: C_4  and  C_5 
REMARK    4  A    between atoms: C_11  and  O_12 
REMARK    5  A    between atoms: C_13  and  C_14 
REMARK    6  A    between atoms: C_14  and  N_15 
REMARK    7  A    between atoms: N_19  and  C_20 
REMARK    8  A    between atoms: C_26  and  C_27 
REMARK    9  A    between atoms: C_27  and  N_28 
ROOT
HETATM    1  C   UNL     1      41.173 -15.160   1.718  1.00  0.00     0.077 A 
HETATM    2  C   UNL     1      40.787 -14.593   3.001  1.00  0.00     0.020 A 
HETATM    3  C   UNL     1      40.495 -13.243   2.755  1.00  0.00     0.053 A 
HETATM    4  C   UNL     1      40.154 -12.348   3.788  1.00  0.00     0.053 A 
HETATM    5  C   UNL     1      40.102 -12.820   5.091  1.00  0.00     0.047 A 
HETATM    6 BR   UNL     1      39.675 -11.605   6.481  1.00  0.00    -0.048 Br
HETATM    7  C   UNL     1      40.369 -14.157   5.367  1.00  0.00     0.092 A 
HETATM    8  C   UNL     1      40.674 -15.098   4.350  1.00  0.00     0.016 A 
HETATM    9  N   UNL     1      40.697 -12.984   1.404  1.00  0.00    -0.312 N 
HETATM   10  C   UNL     1      41.049 -14.155   0.748  1.00  0.00     0.060 A 
ENDROOT
BRANCH  10  11
HETATM   11  C   UNL     1      41.256 -14.212  -0.740  1.00  0.00     0.293 C 
BRANCH  11  12
HETATM   12  N   UNL     1      40.228 -15.039  -1.465  1.00  0.00    -0.066 N 
HETATM   13  H   UNL     1      39.911 -15.773  -0.816  1.00  0.00     0.280 HD
HETATM   14  C   UNL     1      40.702 -15.722  -2.731  1.00  0.00     0.235 C 
HETATM   15  C   UNL     1      39.940 -15.038  -3.846  1.00  0.00     0.029 C 
HETATM   16  C   UNL     1      38.601 -14.741  -3.207  1.00  0.00     0.029 C 
HETATM   17  C   UNL     1      38.985 -14.235  -1.831  1.00  0.00     0.235 C 
ENDBRANCH  11  12
ENDBRANCH  10  11
BRANCH   1  18
HETATM   18  C   UNL     1      41.644 -16.528   1.470  1.00  0.00     0.296 C 
HETATM   19  O   UNL     1      40.952 -17.373   0.921  1.00  0.00    -0.259 OA
BRANCH  18  20
HETATM   20  O   UNL     1      42.931 -16.727   1.869  1.00  0.00    -0.318 OA
BRANCH  20  21
HETATM   21  C   UNL     1      43.689 -17.681   1.100  1.00  0.00     0.174 C 
HETATM   22  C   UNL     1      43.984 -18.908   1.941  1.00  0.00     0.034 C 
ENDBRANCH  20  21
ENDBRANCH  18  20
ENDBRANCH   1  18
BRANCH   9  23
HETATM   23  C   UNL     1      40.550 -11.709   0.797  1.00  0.00     0.040 A 
HETATM   24  C   UNL     1      39.289 -11.293   0.355  1.00  0.00     0.030 A 
HETATM   25  C   UNL     1      39.145 -10.035  -0.231  1.00  0.00     0.002 A 
HETATM   26  C   UNL     1      40.254  -9.203  -0.377  1.00  0.00     0.000 A 
HETATM   27  C   UNL     1      41.513  -9.627   0.053  1.00  0.00     0.002 A 
HETATM   28  C   UNL     1      41.668 -10.883   0.637  1.00  0.00     0.030 A 
ENDBRANCH   9  23
BRANCH   8  29
HETATM   29  C   UNL     1      40.973 -16.546   4.721  1.00  0.00     0.276 C 
BRANCH  29  30
HETATM   30  N   UNL     1      42.425 -16.973   4.743  1.00  0.00    -0.075 N 
HETATM   31  H   UNL     1      42.694 -17.013   3.744  1.00  0.00     0.279 HD
HETATM   32  C   UNL     1      43.332 -15.976   5.392  1.00  0.00     0.269 C 
HETATM   33  C   UNL     1      42.605 -18.352   5.299  1.00  0.00     0.269 C 
ENDBRANCH  29  30
ENDBRANCH   8  29
BRANCH   7  34
HETATM   34  O   UNL     1      40.351 -14.591   6.676  1.00  0.00    -0.359 OA
HETATM   35  H   UNL     1      41.072 -15.256   6.766  1.00  0.00     0.218 HD
ENDBRANCH   7  34
TORSDOF 9
ENDMDL
MODEL 9
REMARK VINA RESULT:      -6.5      1.800      2.360
REMARK  9 active torsions:
REMARK  status: ('A' for Active; 'I' for Inactive)
REMARK    1  A    between atoms: C_2  and  O_3 
REMARK    2  A    between atoms: O_3  and  C_4 
REMARK    3  A    between atoms: C_4  and  C_5 
REMARK    4  A    between atoms: C_11  and  O_12 
REMARK    5  A    between atoms: C_13  and  C_14 
REMARK    6  A    between atoms: C_14  and  N_15 
REMARK    7  A    between atoms: N_19  and  C_20 
REMARK    8  A    between atoms: C_26  and  C_27 
REMARK    9  A    between atoms: C_27  and  N_28 
ROOT
HETATM    1  C   UNL     1      43.034 -15.021   4.100  1.00  0.00     0.077 A 
HETATM    2  C   UNL     1      43.355 -16.408   3.802  1.00  0.00     0.020 A 
HETATM    3  C   UNL     1      43.012 -16.604   2.456  1.00  0.00     0.053 A 
HETATM    4  C   UNL     1      43.114 -17.861   1.829  1.00  0.00     0.053 A 
HETATM    5  C   UNL     1      43.573 -18.940   2.570  1.00  0.00     0.047 A 
HETATM    6 BR   UNL     1      43.678 -20.637   1.733  1.00  0.00    -0.048 Br
HETATM    7  C   UNL     1      43.938 -18.777   3.902  1.00  0.00     0.092 A 
HETATM    8  C   UNL     1      43.889 -17.519   4.556  1.00  0.00     0.016 A 
HETATM    9  N   UNL     1      42.500 -15.414   1.951  1.00  0.00    -0.312 N 
HETATM   10  C   UNL     1      42.565 -14.424   2.922  1.00  0.00     0.060 A 
ENDROOT
BRANCH  10  11
HETATM   11  C   UNL     1      42.157 -13.003   2.649  1.00  0.00     0.293 C 
BRANCH  11  12
HETATM   12  N   UNL     1      40.724 -12.704   2.999  1.00  0.00    -0.066 N 
HETATM   13  H   UNL     1      40.723 -12.238   3.916  1.00  0.00     0.280 HD
HETATM   14  C   UNL     1      39.803 -13.902   3.093  1.00  0.00     0.235 C 
HETATM   15  C   UNL     1      38.840 -13.740   1.937  1.00  0.00     0.029 C 
HETATM   16  C   UNL     1      38.666 -12.239   1.852  1.00  0.00     0.029 C 
HETATM   17  C   UNL     1      40.079 -11.722   2.027  1.00  0.00     0.235 C 
ENDBRANCH  11  12
ENDBRANCH  10  11
BRANCH   1  18
HETATM   18  C   UNL     1      43.142 -14.356   5.405  1.00  0.00     0.296 C 
HETATM   19  O   UNL     1      42.195 -14.246   6.168  1.00  0.00    -0.259 OA
BRANCH  18  20
HETATM   20  O   UNL     1      44.406 -13.930   5.680  1.00  0.00    -0.318 OA
BRANCH  20  21
HETATM   21  C   UNL     1      44.933 -14.305   6.967  1.00  0.00     0.174 C 
HETATM   22  C   UNL     1      44.909 -13.114   7.905  1.00  0.00     0.034 C 
ENDBRANCH  20  21
ENDBRANCH  18  20
ENDBRANCH   1  18
BRANCH   9  23
HETATM   23  C   UNL     1      41.999 -15.248   0.633  1.00  0.00     0.040 A 
HETATM   24  C   UNL     1      42.139 -14.013  -0.011  1.00  0.00     0.030 A 
HETATM   25  C   UNL     1      41.655 -13.856  -1.310  1.00  0.00     0.002 A 
HETATM   26  C   UNL     1      41.034 -14.923  -1.957  1.00  0.00     0.000 A 
HETATM   27  C   UNL     1      40.885 -16.149  -1.307  1.00  0.00     0.002 A 
HETATM   28  C   UNL     1      41.362 -16.316  -0.007  1.00  0.00     0.030 A 
ENDBRANCH   9  23
BRANCH   8  29
HETATM   29  C   UNL     1      44.286 -17.411   6.023  1.00  0.00     0.276 C 
BRANCH  29  30
HETATM   30  N   UNL     1      43.426 -18.138   7.033  1.00  0.00    -0.075 N 
HETATM   31  H   UNL     1      43.160 -19.018   6.555  1.00  0.00     0.279 HD
HETATM   32  C   UNL     1      44.161 -18.531   8.274  1.00  0.00     0.269 C 
HETATM   33  C   UNL     1      42.155 -17.405   7.333  1.00  0.00     0.269 C 
ENDBRANCH  29  30
ENDBRANCH   8  29
BRANCH   7  34
HETATM   34  O   UNL     1      44.351 -19.876   4.627  1.00  0.00    -0.359 OA
HETATM   35  H   UNL     1      44.000 -20.671   4.165  1.00  0.00     0.218 HD
ENDBRANCH   7  34
TORSDOF 9
ENDMDL
MODEL 10
REMARK VINA RESULT:      -6.4      3.476      6.507
REMARK  9 active torsions:
REMARK  status: ('A' for Active; 'I' for Inactive)
REMARK    1  A    between atoms: C_2  and  O_3 
REMARK    2  A    between atoms: O_3  and  C_4 
REMARK    3  A    between atoms: C_4  and  C_5 
REMARK    4  A    between atoms: C_11  and  O_12 
REMARK    5  A    between atoms: C_13  and  C_14 
REMARK    6  A    between atoms: C_14  and  N_15 
REMARK    7  A    between atoms: N_19  and  C_20 
REMARK    8  A    between atoms: C_26  and  C_27 
REMARK    9  A    between atoms: C_27  and  N_28 
ROOT
HETATM    1  C   UNL     1      41.484 -14.755   2.530  1.00  0.00     0.077 A 
HETATM    2  C   UNL     1      41.294 -13.831   3.638  1.00  0.00     0.020 A 
HETATM    3  C   UNL     1      40.323 -12.912   3.213  1.00  0.00     0.053 A 
HETATM    4  C   UNL     1      39.932 -11.813   4.002  1.00  0.00     0.053 A 
HETATM    5  C   UNL     1      40.526 -11.637   5.243  1.00  0.00     0.047 A 
HETATM    6 BR   UNL     1      40.021 -10.139   6.287  1.00  0.00    -0.048 Br
HETATM    7  C   UNL     1      41.480 -12.540   5.701  1.00  0.00     0.092 A 
HETATM    8  C   UNL     1      41.869 -13.682   4.955  1.00  0.00     0.016 A 
HETATM    9  N   UNL     1      39.940 -13.239   1.916  1.00  0.00    -0.312 N 
HETATM   10  C   UNL     1      40.592 -14.395   1.511  1.00  0.00     0.060 A 
ENDROOT
BRANCH  10  11
HETATM   11  C   UNL     1      40.323 -15.045   0.181  1.00  0.00     0.293 C 
BRANCH  11  12
HETATM   12  N   UNL     1      41.431 -14.859  -0.820  1.00  0.00    -0.066 N 
HETATM   13  H   UNL     1      42.210 -15.468  -0.533  1.00  0.00     0.280 HD
HETATM   14  C   UNL     1      41.975 -13.452  -0.951  1.00  0.00     0.235 C 
HETATM   15  C   UNL     1      41.570 -13.010  -2.341  1.00  0.00     0.029 C 
HETATM   16  C   UNL     1      41.663 -14.290  -3.142  1.00  0.00     0.029 C 
HETATM   17  C   UNL     1      41.035 -15.315  -2.220  1.00  0.00     0.235 C 
ENDBRANCH  11  12
ENDBRANCH  10  11
BRANCH   1  18
HETATM   18  C   UNL     1      42.456 -15.854   2.461  1.00  0.00     0.296 C 
HETATM   19  O   UNL     1      43.649 -15.665   2.282  1.00  0.00    -0.259 OA
BRANCH  18  20
HETATM   20  O   UNL     1      41.890 -17.076   2.664  1.00  0.00    -0.318 OA
BRANCH  20  21
HETATM   21  C   UNL     1      42.117 -18.056   1.633  1.00  0.00     0.174 C 
HETATM   22  C   UNL     1      43.047 -19.140   2.142  1.00  0.00     0.034 C 
ENDBRANCH  20  21
ENDBRANCH  18  20
ENDBRANCH   1  18
BRANCH   9  23
HETATM   23  C   UNL     1      39.010 -12.498   1.140  1.00  0.00     0.040 A 
HETATM   24  C   UNL     1      39.453 -11.406   0.384  1.00  0.00     0.030 A 
HETATM   25  C   UNL     1      38.539 -10.686  -0.385  1.00  0.00     0.002 A 
HETATM   26  C   UNL     1      37.194 -11.053  -0.395  1.00  0.00     0.000 A 
HETATM   27  C   UNL     1      36.754 -12.134   0.370  1.00  0.00     0.002 A 
HETATM   28  C   UNL     1      37.658 -12.859   1.146  1.00  0.00     0.030 A 
ENDBRANCH   9  23
BRANCH   8  29
HETATM   29  C   UNL     1      42.933 -14.623   5.507  1.00  0.00     0.276 C 
BRANCH  29  30
HETATM   30  N   UNL     1      42.545 -15.503   6.675  1.00  0.00    -0.075 N 
HETATM   31  H   UNL     1      42.137 -14.846   7.365  1.00  0.00     0.279 HD
HETATM   32  C   UNL     1      41.478 -16.497   6.347  1.00  0.00     0.269 C 
HETATM   33  C   UNL     1      43.733 -16.138   7.330  1.00  0.00     0.269 C 
ENDBRANCH  29  30
ENDBRANCH   8  29
BRANCH   7  34
HETATM   34  O   UNL     1      42.085 -12.318   6.921  1.00  0.00    -0.359 OA
HETATM   35  H   UNL     1      42.954 -11.893   6.735  1.00  0.00     0.218 HD
ENDBRANCH   7  34
TORSDOF 9
ENDMDL
