MODEL 1
REMARK VINA RESULT:      -8.9      0.000      0.000
REMARK  6 active torsions:
REMARK  status: ('A' for Active; 'I' for Inactive)
REMARK    1  A    between atoms: O_2  and  C_3 
REMARK    2  A    between atoms: C_6  and  C_7 
REMARK    3  A    between atoms: C_7  and  N_8 
REMARK       I    between atoms: N_8  and  C_9 
REMARK    4  A    between atoms: C_9  and  C_10 
REMARK    5  A    between atoms: C_13  and  C_14 
REMARK    6  A    between atoms: C_19  and  C_20 
ROOT
HETATM    1  C   UNL     1      42.632 -14.320   5.466  1.00  0.00     0.096 A 
HETATM    2  C   UNL     1      42.785 -14.829   4.191  1.00  0.00     0.138 A 
HETATM    3  N   UNL     1      41.545 -14.819   3.616  1.00  0.00    -0.240 N 
HETATM    4  C   UNL     1      41.247 -15.354   2.302  1.00  0.00     0.221 C 
HETATM    5  C   UNL     1      42.540 -15.516   1.476  1.00  0.00     0.066 C 
HETATM    6  C   UNL     1      43.741 -16.051   2.282  1.00  0.00     0.118 C 
HETATM    7  N   UNL     1      43.866 -15.286   3.515  1.00  0.00    -0.365 N 
HETATM    8  N   UNL     1      40.607 -14.225   4.372  1.00  0.00    -0.181 NA
HETATM    9  C   UNL     1      41.263 -13.953   5.506  1.00  0.00     0.160 A 
HETATM   10  H   UNL     1      44.751 -15.399   4.021  1.00  0.00     0.161 HD
ENDROOT
BRANCH   1  11
HETATM   11  C   UNL     1      43.684 -14.223   6.464  1.00  0.00     0.257 C 
HETATM   12  N   UNL     1      43.674 -13.081   7.233  1.00  0.00    -0.352 N 
HETATM   13  H   UNL     1      42.943 -12.395   7.132  1.00  0.00     0.163 HD
HETATM   14  O   UNL     1      44.521 -15.110   6.617  1.00  0.00    -0.267 OA
BRANCH  12  15
HETATM   15  C   UNL     1      44.629 -12.885   8.300  1.00  0.00     0.161 C 
BRANCH  15  16
HETATM   16  C   UNL     1      44.140 -11.893   9.326  1.00  0.00    -0.040 A 
HETATM   17  C   UNL     1      44.826 -11.738  10.536  1.00  0.00     0.011 A 
HETATM   18  C   UNL     1      44.421 -10.772  11.461  1.00  0.00     0.037 A 
HETATM   19  C   UNL     1      43.334  -9.938  11.193  1.00  0.00     0.068 A 
HETATM   20  C   UNL     1      42.646 -10.085   9.990  1.00  0.00     0.037 A 
HETATM   21  C   UNL     1      43.053 -11.047   9.059  1.00  0.00     0.011 A 
BRANCH  19  22
HETATM   22  O   UNL     1      43.053  -9.028  12.174  1.00  0.00    -0.356 OA
HETATM   23  C   UNL     1      43.333  -9.424  13.511  1.00  0.00     0.210 C 
ENDBRANCH  19  22
ENDBRANCH  15  16
ENDBRANCH  12  15
ENDBRANCH   1  11
BRANCH   4  24
HETATM   24  C   UNL     1      40.444 -16.630   2.430  1.00  0.00     0.409 C 
HETATM   25  F   UNL     1      40.697 -17.330   3.551  1.00  0.00    -0.169 F 
HETATM   26  F   UNL     1      39.111 -16.394   2.395  1.00  0.00    -0.169 F 
HETATM   27  F   UNL     1      40.705 -17.451   1.377  1.00  0.00    -0.169 F 
ENDBRANCH   4  24
BRANCH   6  28
HETATM   28  C   UNL     1      43.766 -17.555   2.507  1.00  0.00    -0.035 A 
HETATM   29  C   UNL     1      43.641 -18.423   1.407  1.00  0.00     0.009 A 
HETATM   30  C   UNL     1      43.683 -19.809   1.572  1.00  0.00     0.001 A 
HETATM   31  C   UNL     1      43.866 -20.357   2.839  1.00  0.00     0.000 A 
HETATM   32  C   UNL     1      44.011 -19.517   3.940  1.00  0.00     0.001 A 
HETATM   33  C   UNL     1      43.967 -18.131   3.775  1.00  0.00     0.009 A 
ENDBRANCH   6  28
TORSDOF 6
ENDMDL
MODEL 2
REMARK VINA RESULT:      -8.6      4.864      9.321
REMARK  6 active torsions:
REMARK  status: ('A' for Active; 'I' for Inactive)
REMARK    1  A    between atoms: O_2  and  C_3 
REMARK    2  A    between atoms: C_6  and  C_7 
REMARK    3  A    between atoms: C_7  and  N_8 
REMARK       I    between atoms: N_8  and  C_9 
REMARK    4  A    between atoms: C_9  and  C_10 
REMARK    5  A    between atoms: C_13  and  C_14 
REMARK    6  A    between atoms: C_19  and  C_20 
ROOT
HETATM    1  C   UNL     1      41.669 -14.853   1.552  1.00  0.00     0.096 A 
HETATM    2  C   UNL     1      41.447 -15.495   2.755  1.00  0.00     0.138 A 
HETATM    3  N   UNL     1      41.758 -14.597   3.739  1.00  0.00    -0.240 N 
HETATM    4  C   UNL     1      41.746 -14.899   5.157  1.00  0.00     0.221 C 
HETATM    5  C   UNL     1      40.927 -16.177   5.432  1.00  0.00     0.066 C 
HETATM    6  C   UNL     1      41.142 -17.301   4.398  1.00  0.00     0.118 C 
HETATM    7  N   UNL     1      41.019 -16.744   3.057  1.00  0.00    -0.365 N 
HETATM    8  N   UNL     1      42.049 -13.371   3.275  1.00  0.00    -0.181 NA
HETATM    9  C   UNL     1      42.025 -13.539   1.948  1.00  0.00     0.160 A 
HETATM   10  H   UNL     1      40.921 -17.427   2.299  1.00  0.00     0.161 HD
ENDROOT
BRANCH   1  11
HETATM   11  C   UNL     1      41.543 -15.462   0.239  1.00  0.00     0.257 C 
HETATM   12  N   UNL     1      41.578 -14.594  -0.828  1.00  0.00    -0.352 N 
HETATM   13  H   UNL     1      41.738 -13.608  -0.688  1.00  0.00     0.163 HD
HETATM   14  O   UNL     1      41.424 -16.677   0.093  1.00  0.00    -0.267 OA
BRANCH  12  15
HETATM   15  C   UNL     1      41.521 -15.073  -2.190  1.00  0.00     0.161 C 
BRANCH  15  16
HETATM   16  C   UNL     1      40.136 -14.959  -2.776  1.00  0.00    -0.040 A 
HETATM   17  C   UNL     1      39.705 -15.875  -3.744  1.00  0.00     0.011 A 
HETATM   18  C   UNL     1      38.400 -15.820  -4.240  1.00  0.00     0.037 A 
HETATM   19  C   UNL     1      37.499 -14.862  -3.772  1.00  0.00     0.068 A 
HETATM   20  C   UNL     1      37.918 -13.948  -2.808  1.00  0.00     0.037 A 
HETATM   21  C   UNL     1      39.223 -14.004  -2.305  1.00  0.00     0.011 A 
BRANCH  19  22
HETATM   22  O   UNL     1      36.251 -14.928  -4.330  1.00  0.00    -0.356 OA
HETATM   23  C   UNL     1      35.817 -13.789  -5.062  1.00  0.00     0.210 C 
ENDBRANCH  19  22
ENDBRANCH  15  16
ENDBRANCH  12  15
ENDBRANCH   1  11
BRANCH   4  24
HETATM   24  C   UNL     1      43.161 -14.958   5.689  1.00  0.00     0.409 C 
HETATM   25  F   UNL     1      44.030 -15.584   4.873  1.00  0.00    -0.169 F 
HETATM   26  F   UNL     1      43.659 -13.725   5.938  1.00  0.00    -0.169 F 
HETATM   27  F   UNL     1      43.184 -15.617   6.879  1.00  0.00    -0.169 F 
ENDBRANCH   4  24
BRANCH   6  28
HETATM   28  C   UNL     1      42.399 -18.137   4.585  1.00  0.00    -0.035 A 
HETATM   29  C   UNL     1      42.751 -18.581   5.872  1.00  0.00     0.009 A 
HETATM   30  C   UNL     1      43.884 -19.370   6.079  1.00  0.00     0.001 A 
HETATM   31  C   UNL     1      44.682 -19.744   5.001  1.00  0.00     0.000 A 
HETATM   32  C   UNL     1      44.343 -19.331   3.716  1.00  0.00     0.001 A 
HETATM   33  C   UNL     1      43.211 -18.540   3.509  1.00  0.00     0.009 A 
ENDBRANCH   6  28
TORSDOF 6
ENDMDL
MODEL 3
REMARK VINA RESULT:      -8.4      4.747      8.222
REMARK  6 active torsions:
REMARK  status: ('A' for Active; 'I' for Inactive)
REMARK    1  A    between atoms: O_2  and  C_3 
REMARK    2  A    between atoms: C_6  and  C_7 
REMARK    3  A    between atoms: C_7  and  N_8 
REMARK       I    between atoms: N_8  and  C_9 
REMARK    4  A    between atoms: C_9  and  C_10 
REMARK    5  A    between atoms: C_13  and  C_14 
REMARK    6  A    between atoms: C_19  and  C_20 
ROOT
HETATM    1  C   UNL     1      40.324 -14.594   3.587  1.00  0.00     0.096 A 
HETATM    2  C   UNL     1      40.804 -15.567   4.443  1.00  0.00     0.138 A 
HETATM    3  N   UNL     1      41.630 -14.932   5.329  1.00  0.00    -0.240 N 
HETATM    4  C   UNL     1      42.410 -15.607   6.349  1.00  0.00     0.221 C 
HETATM    5  C   UNL     1      41.863 -17.027   6.598  1.00  0.00     0.066 C 
HETATM    6  C   UNL     1      41.440 -17.776   5.318  1.00  0.00     0.118 C 
HETATM    7  N   UNL     1      40.596 -16.903   4.513  1.00  0.00    -0.365 N 
HETATM    8  N   UNL     1      41.632 -13.596   5.199  1.00  0.00    -0.181 NA
HETATM    9  C   UNL     1      40.864 -13.397   4.121  1.00  0.00     0.160 A 
HETATM   10  H   UNL     1      40.077 -17.360   3.757  1.00  0.00     0.161 HD
ENDROOT
BRANCH   1  11
HETATM   11  C   UNL     1      39.471 -14.835   2.436  1.00  0.00     0.257 C 
HETATM   12  N   UNL     1      38.826 -13.730   1.928  1.00  0.00    -0.352 N 
HETATM   13  H   UNL     1      38.993 -12.812   2.311  1.00  0.00     0.163 HD
HETATM   14  O   UNL     1      39.343 -15.953   1.942  1.00  0.00    -0.267 OA
BRANCH  12  15
HETATM   15  C   UNL     1      37.994 -13.820   0.750  1.00  0.00     0.161 C 
BRANCH  15  16
HETATM   16  C   UNL     1      38.761 -13.517  -0.512  1.00  0.00    -0.040 A 
HETATM   17  C   UNL     1      39.957 -12.791  -0.451  1.00  0.00     0.011 A 
HETATM   18  C   UNL     1      40.710 -12.567  -1.607  1.00  0.00     0.037 A 
HETATM   19  C   UNL     1      40.292 -13.071  -2.840  1.00  0.00     0.068 A 
HETATM   20  C   UNL     1      39.103 -13.795  -2.910  1.00  0.00     0.037 A 
HETATM   21  C   UNL     1      38.350 -14.026  -1.754  1.00  0.00     0.011 A 
BRANCH  19  22
HETATM   22  O   UNL     1      41.128 -12.793  -3.886  1.00  0.00    -0.356 OA
HETATM   23  C   UNL     1      42.277 -12.008  -3.594  1.00  0.00     0.210 C 
ENDBRANCH  19  22
ENDBRANCH  15  16
ENDBRANCH  12  15
ENDBRANCH   1  11
BRANCH   4  24
HETATM   24  C   UNL     1      43.879 -15.576   5.984  1.00  0.00     0.409 C 
HETATM   25  F   UNL     1      44.516 -14.453   6.362  1.00  0.00    -0.169 F 
HETATM   26  F   UNL     1      44.553 -16.621   6.518  1.00  0.00    -0.169 F 
HETATM   27  F   UNL     1      44.025 -15.686   4.637  1.00  0.00    -0.169 F 
ENDBRANCH   4  24
BRANCH   6  28
HETATM   28  C   UNL     1      42.569 -18.414   4.524  1.00  0.00    -0.035 A 
HETATM   29  C   UNL     1      43.512 -19.221   5.186  1.00  0.00     0.009 A 
HETATM   30  C   UNL     1      44.549 -19.843   4.486  1.00  0.00     0.001 A 
HETATM   31  C   UNL     1      44.656 -19.682   3.107  1.00  0.00     0.000 A 
HETATM   32  C   UNL     1      43.723 -18.902   2.429  1.00  0.00     0.001 A 
HETATM   33  C   UNL     1      42.688 -18.279   3.129  1.00  0.00     0.009 A 
ENDBRANCH   6  28
TORSDOF 6
ENDMDL
MODEL 4
REMARK VINA RESULT:      -8.4      4.369      8.157
REMARK  6 active torsions:
REMARK  status: ('A' for Active; 'I' for Inactive)
REMARK    1  A    between atoms: O_2  and  C_3 
REMARK    2  A    between atoms: C_6  and  C_7 
REMARK    3  A    between atoms: C_7  and  N_8 
REMARK       I    between atoms: N_8  and  C_9 
REMARK    4  A    between atoms: C_9  and  C_10 
REMARK    5  A    between atoms: C_13  and  C_14 
REMARK    6  A    between atoms: C_19  and  C_20 
ROOT
HETATM    1  C   UNL     1      41.536 -12.707   3.699  1.00  0.00     0.096 A 
HETATM    2  C   UNL     1      41.338 -14.040   4.005  1.00  0.00     0.138 A 
HETATM    3  N   UNL     1      41.760 -14.210   5.295  1.00  0.00    -0.240 N 
HETATM    4  C   UNL     1      41.806 -15.488   5.980  1.00  0.00     0.221 C 
HETATM    5  C   UNL     1      40.922 -16.523   5.255  1.00  0.00     0.066 C 
HETATM    6  C   UNL     1      41.006 -16.461   3.716  1.00  0.00     0.118 C 
HETATM    7  N   UNL     1      40.847 -15.078   3.287  1.00  0.00    -0.365 N 
HETATM    8  N   UNL     1      42.105 -13.064   5.903  1.00  0.00    -0.181 NA
HETATM    9  C   UNL     1      41.997 -12.159   4.922  1.00  0.00     0.160 A 
HETATM   10  H   UNL     1      40.664 -14.941   2.287  1.00  0.00     0.161 HD
ENDROOT
BRANCH   1  11
HETATM   11  C   UNL     1      41.298 -12.100   2.401  1.00  0.00     0.257 C 
HETATM   12  N   UNL     1      42.264 -12.330   1.448  1.00  0.00    -0.352 N 
HETATM   13  H   UNL     1      43.050 -12.930   1.642  1.00  0.00     0.163 HD
HETATM   14  O   UNL     1      40.293 -11.432   2.167  1.00  0.00    -0.267 OA
BRANCH  12  15
HETATM   15  C   UNL     1      42.123 -11.832   0.098  1.00  0.00     0.161 C 
BRANCH  15  16
HETATM   16  C   UNL     1      41.804 -12.932  -0.883  1.00  0.00    -0.040 A 
HETATM   17  C   UNL     1      41.337 -14.170  -0.423  1.00  0.00     0.011 A 
HETATM   18  C   UNL     1      40.972 -15.170  -1.329  1.00  0.00     0.037 A 
HETATM   19  C   UNL     1      41.053 -14.951  -2.705  1.00  0.00     0.068 A 
HETATM   20  C   UNL     1      41.516 -13.721  -3.171  1.00  0.00     0.037 A 
HETATM   21  C   UNL     1      41.877 -12.717  -2.267  1.00  0.00     0.011 A 
BRANCH  19  22
HETATM   22  O   UNL     1      40.652 -16.005  -3.478  1.00  0.00    -0.356 OA
HETATM   23  C   UNL     1      39.306 -15.984  -3.937  1.00  0.00     0.210 C 
ENDBRANCH  19  22
ENDBRANCH  15  16
ENDBRANCH  12  15
ENDBRANCH   1  11
BRANCH   4  24
HETATM   24  C   UNL     1      43.242 -15.932   6.157  1.00  0.00     0.409 C 
HETATM   25  F   UNL     1      44.046 -15.620   5.124  1.00  0.00    -0.169 F 
HETATM   26  F   UNL     1      43.799 -15.407   7.273  1.00  0.00    -0.169 F 
HETATM   27  F   UNL     1      43.294 -17.282   6.312  1.00  0.00    -0.169 F 
ENDBRANCH   4  24
BRANCH   6  28
HETATM   28  C   UNL     1      42.214 -17.144   3.094  1.00  0.00    -0.035 A 
HETATM   29  C   UNL     1      42.572 -18.438   3.516  1.00  0.00     0.009 A 
HETATM   30  C   UNL     1      43.661 -19.106   2.950  1.00  0.00     0.001 A 
HETATM   31  C   UNL     1      44.405 -18.501   1.942  1.00  0.00     0.000 A 
HETATM   32  C   UNL     1      44.059 -17.228   1.497  1.00  0.00     0.001 A 
HETATM   33  C   UNL     1      42.972 -16.559   2.063  1.00  0.00     0.009 A 
ENDBRANCH   6  28
TORSDOF 6
ENDMDL
MODEL 5
REMARK VINA RESULT:      -8.0      4.110      7.019
REMARK  6 active torsions:
REMARK  status: ('A' for Active; 'I' for Inactive)
REMARK    1  A    between atoms: O_2  and  C_3 
REMARK    2  A    between atoms: C_6  and  C_7 
REMARK    3  A    between atoms: C_7  and  N_8 
REMARK       I    between atoms: N_8  and  C_9 
REMARK    4  A    between atoms: C_9  and  C_10 
REMARK    5  A    between atoms: C_13  and  C_14 
REMARK    6  A    between atoms: C_19  and  C_20 
ROOT
HETATM    1  C   UNL     1      41.108 -13.973   5.262  1.00  0.00     0.096 A 
HETATM    2  C   UNL     1      41.294 -13.326   4.056  1.00  0.00     0.138 A 
HETATM    3  N   UNL     1      40.177 -12.566   3.846  1.00  0.00    -0.240 N 
HETATM    4  C   UNL     1      39.927 -11.791   2.646  1.00  0.00     0.221 C 
HETATM    5  C   UNL     1      41.236 -11.574   1.859  1.00  0.00     0.066 C 
HETATM    6  C   UNL     1      42.158 -12.809   1.811  1.00  0.00     0.118 C 
HETATM    7  N   UNL     1      42.308 -13.343   3.158  1.00  0.00    -0.365 N 
HETATM    8  N   UNL     1      39.324 -12.566   4.883  1.00  0.00    -0.181 NA
HETATM    9  C   UNL     1      39.877 -13.446   5.727  1.00  0.00     0.160 A 
HETATM   10  H   UNL     1      43.066 -14.022   3.286  1.00  0.00     0.161 HD
ENDROOT
BRANCH   1  11
HETATM   11  C   UNL     1      42.016 -14.950   5.840  1.00  0.00     0.257 C 
HETATM   12  N   UNL     1      41.462 -16.172   6.147  1.00  0.00    -0.352 N 
HETATM   13  H   UNL     1      40.500 -16.375   5.925  1.00  0.00     0.163 HD
HETATM   14  O   UNL     1      43.204 -14.701   6.032  1.00  0.00    -0.267 OA
BRANCH  12  15
HETATM   15  C   UNL     1      42.267 -17.252   6.673  1.00  0.00     0.161 C 
BRANCH  15  16
HETATM   16  C   UNL     1      42.872 -18.095   5.579  1.00  0.00    -0.040 A 
HETATM   17  C   UNL     1      42.343 -18.050   4.283  1.00  0.00     0.011 A 
HETATM   18  C   UNL     1      42.942 -18.773   3.248  1.00  0.00     0.037 A 
HETATM   19  C   UNL     1      44.083 -19.543   3.482  1.00  0.00     0.068 A 
HETATM   20  C   UNL     1      44.617 -19.593   4.769  1.00  0.00     0.037 A 
HETATM   21  C   UNL     1      44.022 -18.865   5.806  1.00  0.00     0.011 A 
BRANCH  19  22
HETATM   22  O   UNL     1      44.575 -20.188   2.381  1.00  0.00    -0.356 OA
HETATM   23  C   UNL     1      43.932 -21.401   2.010  1.00  0.00     0.210 C 
ENDBRANCH  19  22
ENDBRANCH  15  16
ENDBRANCH  12  15
ENDBRANCH   1  11
BRANCH   4  24
HETATM   24  C   UNL     1      38.827 -12.435   1.831  1.00  0.00     0.409 C 
HETATM   25  F   UNL     1      38.767 -13.774   1.948  1.00  0.00    -0.169 F 
HETATM   26  F   UNL     1      37.607 -11.947   2.153  1.00  0.00    -0.169 F 
HETATM   27  F   UNL     1      39.003 -12.157   0.511  1.00  0.00    -0.169 F 
ENDBRANCH   4  24
BRANCH   6  28
HETATM   28  C   UNL     1      41.786 -13.869   0.786  1.00  0.00    -0.035 A 
HETATM   29  C   UNL     1      41.590 -13.496  -0.556  1.00  0.00     0.009 A 
HETATM   30  C   UNL     1      41.272 -14.446  -1.530  1.00  0.00     0.001 A 
HETATM   31  C   UNL     1      41.156 -15.789  -1.185  1.00  0.00     0.000 A 
HETATM   32  C   UNL     1      41.363 -16.184   0.134  1.00  0.00     0.001 A 
HETATM   33  C   UNL     1      41.680 -15.235   1.108  1.00  0.00     0.009 A 
ENDBRANCH   6  28
TORSDOF 6
ENDMDL
MODEL 6
REMARK VINA RESULT:      -8.0      4.753      8.384
REMARK  6 active torsions:
REMARK  status: ('A' for Active; 'I' for Inactive)
REMARK    1  A    between atoms: O_2  and  C_3 
REMARK    2  A    between atoms: C_6  and  C_7 
REMARK    3  A    between atoms: C_7  and  N_8 
REMARK       I    between atoms: N_8  and  C_9 
REMARK    4  A    between atoms: C_9  and  C_10 
REMARK    5  A    between atoms: C_13  and  C_14 
REMARK    6  A    between atoms: C_19  and  C_20 
ROOT
HETATM    1  C   UNL     1      41.838 -14.650   2.563  1.00  0.00     0.096 A 
HETATM    2  C   UNL     1      41.669 -15.527   3.617  1.00  0.00     0.138 A 
HETATM    3  N   UNL     1      42.066 -14.862   4.745  1.00  0.00    -0.240 N 
HETATM    4  C   UNL     1      42.131 -15.456   6.066  1.00  0.00     0.221 C 
HETATM    5  C   UNL     1      41.291 -16.749   6.121  1.00  0.00     0.066 C 
HETATM    6  C   UNL     1      41.409 -17.633   4.862  1.00  0.00     0.118 C 
HETATM    7  N   UNL     1      41.222 -16.804   3.679  1.00  0.00    -0.365 N 
HETATM    8  N   UNL     1      42.366 -13.571   4.529  1.00  0.00    -0.181 NA
HETATM    9  C   UNL     1      42.256 -13.455   3.200  1.00  0.00     0.160 A 
HETATM   10  H   UNL     1      41.058 -17.310   2.803  1.00  0.00     0.161 HD
ENDROOT
BRANCH   1  11
HETATM   11  C   UNL     1      41.613 -14.967   1.163  1.00  0.00     0.257 C 
HETATM   12  N   UNL     1      41.746 -13.916   0.284  1.00  0.00    -0.352 N 
HETATM   13  H   UNL     1      42.036 -13.006   0.606  1.00  0.00     0.163 HD
HETATM   14  O   UNL     1      41.333 -16.103   0.788  1.00  0.00    -0.267 OA
BRANCH  12  15
HETATM   15  C   UNL     1      41.607 -14.105  -1.142  1.00  0.00     0.161 C 
BRANCH  15  16
HETATM   16  C   UNL     1      41.952 -12.859  -1.917  1.00  0.00    -0.040 A 
HETATM   17  C   UNL     1      41.477 -12.691  -3.224  1.00  0.00     0.011 A 
HETATM   18  C   UNL     1      41.732 -11.508  -3.924  1.00  0.00     0.037 A 
HETATM   19  C   UNL     1      42.453 -10.469  -3.331  1.00  0.00     0.068 A 
HETATM   20  C   UNL     1      42.927 -10.627  -2.031  1.00  0.00     0.037 A 
HETATM   21  C   UNL     1      42.669 -11.808  -1.326  1.00  0.00     0.011 A 
BRANCH  19  22
HETATM   22  O   UNL     1      42.618  -9.364  -4.119  1.00  0.00    -0.356 OA
HETATM   23  C   UNL     1      42.569  -9.569  -5.525  1.00  0.00     0.210 C 
ENDBRANCH  19  22
ENDBRANCH  15  16
ENDBRANCH  12  15
ENDBRANCH   1  11
BRANCH   4  24
HETATM   24  C   UNL     1      43.574 -15.650   6.479  1.00  0.00     0.409 C 
HETATM   25  F   UNL     1      44.175 -14.530   6.922  1.00  0.00    -0.169 F 
HETATM   26  F   UNL     1      43.700 -16.586   7.449  1.00  0.00    -0.169 F 
HETATM   27  F   UNL     1      44.302 -16.105   5.424  1.00  0.00    -0.169 F 
ENDBRANCH   4  24
BRANCH   6  28
HETATM   28  C   UNL     1      42.649 -18.511   4.787  1.00  0.00    -0.035 A 
HETATM   29  C   UNL     1      43.120 -19.146   5.951  1.00  0.00     0.009 A 
HETATM   30  C   UNL     1      44.241 -19.979   5.915  1.00  0.00     0.001 A 
HETATM   31  C   UNL     1      44.906 -20.204   4.714  1.00  0.00     0.000 A 
HETATM   32  C   UNL     1      44.447 -19.600   3.547  1.00  0.00     0.001 A 
HETATM   33  C   UNL     1      43.328 -18.767   3.582  1.00  0.00     0.009 A 
ENDBRANCH   6  28
TORSDOF 6
ENDMDL
MODEL 7
REMARK VINA RESULT:      -7.9      2.013      3.371
REMARK  6 active torsions:
REMARK  status: ('A' for Active; 'I' for Inactive)
REMARK    1  A    between atoms: O_2  and  C_3 
REMARK    2  A    between atoms: C_6  and  C_7 
REMARK    3  A    between atoms: C_7  and  N_8 
REMARK       I    between atoms: N_8  and  C_9 
REMARK    4  A    between atoms: C_9  and  C_10 
REMARK    5  A    between atoms: C_13  and  C_14 
REMARK    6  A    between atoms: C_19  and  C_20 
ROOT
HETATM    1  C   UNL     1      43.252 -14.551   6.389  1.00  0.00     0.096 A 
HETATM    2  C   UNL     1      42.511 -15.531   5.757  1.00  0.00     0.138 A 
HETATM    3  N   UNL     1      43.261 -16.673   5.796  1.00  0.00    -0.240 N 
HETATM    4  C   UNL     1      42.885 -17.923   5.163  1.00  0.00     0.221 C 
HETATM    5  C   UNL     1      41.376 -17.935   4.842  1.00  0.00     0.066 C 
HETATM    6  C   UNL     1      40.834 -16.595   4.305  1.00  0.00     0.118 C 
HETATM    7  N   UNL     1      41.290 -15.515   5.170  1.00  0.00    -0.365 N 
HETATM    8  N   UNL     1      44.388 -16.551   6.517  1.00  0.00    -0.181 NA
HETATM    9  C   UNL     1      44.394 -15.255   6.848  1.00  0.00     0.160 A 
HETATM   10  H   UNL     1      40.816 -14.615   5.046  1.00  0.00     0.161 HD
ENDROOT
BRANCH   1  11
HETATM   11  C   UNL     1      42.870 -13.154   6.508  1.00  0.00     0.257 C 
HETATM   12  N   UNL     1      43.205 -12.542   7.694  1.00  0.00    -0.352 N 
HETATM   13  H   UNL     1      43.731 -13.034   8.400  1.00  0.00     0.163 HD
HETATM   14  O   UNL     1      42.294 -12.557   5.601  1.00  0.00    -0.267 OA
BRANCH  12  15
HETATM   15  C   UNL     1      42.935 -11.140   7.920  1.00  0.00     0.161 C 
BRANCH  15  16
HETATM   16  C   UNL     1      43.071 -10.762   9.373  1.00  0.00    -0.040 A 
HETATM   17  C   UNL     1      44.246 -11.068  10.072  1.00  0.00     0.011 A 
HETATM   18  C   UNL     1      44.408 -10.658  11.398  1.00  0.00     0.037 A 
HETATM   19  C   UNL     1      43.411  -9.928  12.047  1.00  0.00     0.068 A 
HETATM   20  C   UNL     1      42.239  -9.618  11.359  1.00  0.00     0.037 A 
HETATM   21  C   UNL     1      42.076 -10.022  10.029  1.00  0.00     0.011 A 
BRANCH  19  22
HETATM   22  O   UNL     1      43.703  -9.578  13.336  1.00  0.00    -0.356 OA
HETATM   23  C   UNL     1      42.653  -8.988  14.092  1.00  0.00     0.210 C 
ENDBRANCH  19  22
ENDBRANCH  15  16
ENDBRANCH  12  15
ENDBRANCH   1  11
BRANCH   4  24
HETATM   24  C   UNL     1      43.765 -18.182   3.960  1.00  0.00     0.409 C 
HETATM   25  F   UNL     1      43.215 -18.996   3.041  1.00  0.00    -0.169 F 
HETATM   26  F   UNL     1      44.109 -17.035   3.329  1.00  0.00    -0.169 F 
HETATM   27  F   UNL     1      44.934 -18.755   4.354  1.00  0.00    -0.169 F 
ENDBRANCH   4  24
BRANCH   6  28
HETATM   28  C   UNL     1      41.086 -16.325   2.829  1.00  0.00    -0.035 A 
HETATM   29  C   UNL     1      41.601 -15.078   2.431  1.00  0.00     0.009 A 
HETATM   30  C   UNL     1      41.869 -14.803   1.087  1.00  0.00     0.001 A 
HETATM   31  C   UNL     1      41.640 -15.774   0.117  1.00  0.00     0.000 A 
HETATM   32  C   UNL     1      41.147 -17.021   0.490  1.00  0.00     0.001 A 
HETATM   33  C   UNL     1      40.878 -17.296   1.832  1.00  0.00     0.009 A 
ENDBRANCH   6  28
TORSDOF 6
ENDMDL
MODEL 8
REMARK VINA RESULT:      -7.9      3.828      7.584
REMARK  6 active torsions:
REMARK  status: ('A' for Active; 'I' for Inactive)
REMARK    1  A    between atoms: O_2  and  C_3 
REMARK    2  A    between atoms: C_6  and  C_7 
REMARK    3  A    between atoms: C_7  and  N_8 
REMARK       I    between atoms: N_8  and  C_9 
REMARK    4  A    between atoms: C_9  and  C_10 
REMARK    5  A    between atoms: C_13  and  C_14 
REMARK    6  A    between atoms: C_19  and  C_20 
ROOT
HETATM    1  C   UNL     1      42.978 -14.075   5.376  1.00  0.00     0.096 A 
HETATM    2  C   UNL     1      42.621 -15.410   5.379  1.00  0.00     0.138 A 
HETATM    3  N   UNL     1      43.376 -16.012   6.348  1.00  0.00    -0.240 N 
HETATM    4  C   UNL     1      43.374 -17.436   6.621  1.00  0.00     0.221 C 
HETATM    5  C   UNL     1      42.121 -18.102   6.015  1.00  0.00     0.066 C 
HETATM    6  C   UNL     1      41.739 -17.576   4.617  1.00  0.00     0.118 C 
HETATM    7  N   UNL     1      41.736 -16.120   4.640  1.00  0.00    -0.365 N 
HETATM    8  N   UNL     1      44.113 -15.150   7.068  1.00  0.00    -0.181 NA
HETATM    9  C   UNL     1      43.893 -13.981   6.455  1.00  0.00     0.160 A 
HETATM   10  H   UNL     1      41.285 -15.663   3.841  1.00  0.00     0.161 HD
ENDROOT
BRANCH   1  11
HETATM   11  C   UNL     1      42.479 -13.075   4.447  1.00  0.00     0.257 C 
HETATM   12  N   UNL     1      42.624 -13.376   3.112  1.00  0.00    -0.352 N 
HETATM   13  H   UNL     1      43.003 -14.263   2.819  1.00  0.00     0.163 HD
HETATM   14  O   UNL     1      41.952 -12.033   4.831  1.00  0.00    -0.267 OA
BRANCH  12  15
HETATM   15  C   UNL     1      42.119 -12.496   2.083  1.00  0.00     0.161 C 
BRANCH  15  16
HETATM   16  C   UNL     1      41.781 -13.238   0.814  1.00  0.00    -0.040 A 
HETATM   17  C   UNL     1      42.049 -12.658  -0.432  1.00  0.00     0.011 A 
HETATM   18  C   UNL     1      41.804 -13.368  -1.611  1.00  0.00     0.037 A 
HETATM   19  C   UNL     1      41.301 -14.669  -1.569  1.00  0.00     0.068 A 
HETATM   20  C   UNL     1      41.032 -15.254  -0.333  1.00  0.00     0.037 A 
HETATM   21  C   UNL     1      41.281 -14.548   0.849  1.00  0.00     0.011 A 
BRANCH  19  22
HETATM   22  O   UNL     1      41.122 -15.254  -2.792  1.00  0.00    -0.356 OA
HETATM   23  C   UNL     1      39.893 -14.986  -3.455  1.00  0.00     0.210 C 
ENDBRANCH  19  22
ENDBRANCH  15  16
ENDBRANCH  12  15
ENDBRANCH   1  11
BRANCH   4  24
HETATM   24  C   UNL     1      44.675 -18.056   6.161  1.00  0.00     0.409 C 
HETATM   25  F   UNL     1      44.639 -19.397   6.056  1.00  0.00    -0.169 F 
HETATM   26  F   UNL     1      45.070 -17.569   4.961  1.00  0.00    -0.169 F 
HETATM   27  F   UNL     1      45.671 -17.749   7.035  1.00  0.00    -0.169 F 
ENDBRANCH   4  24
BRANCH   6  28
HETATM   28  C   UNL     1      42.535 -18.153   3.456  1.00  0.00    -0.035 A 
HETATM   29  C   UNL     1      42.921 -17.313   2.395  1.00  0.00     0.009 A 
HETATM   30  C   UNL     1      43.673 -17.802   1.324  1.00  0.00     0.001 A 
HETATM   31  C   UNL     1      44.067 -19.137   1.299  1.00  0.00     0.000 A 
HETATM   32  C   UNL     1      43.712 -19.982   2.347  1.00  0.00     0.001 A 
HETATM   33  C   UNL     1      42.959 -19.493   3.416  1.00  0.00     0.009 A 
ENDBRANCH   6  28
TORSDOF 6
ENDMDL
MODEL 9
REMARK VINA RESULT:      -7.8      4.770     10.347
REMARK  6 active torsions:
REMARK  status: ('A' for Active; 'I' for Inactive)
REMARK    1  A    between atoms: O_2  and  C_3 
REMARK    2  A    between atoms: C_6  and  C_7 
REMARK    3  A    between atoms: C_7  and  N_8 
REMARK       I    between atoms: N_8  and  C_9 
REMARK    4  A    between atoms: C_9  and  C_10 
REMARK    5  A    between atoms: C_13  and  C_14 
REMARK    6  A    between atoms: C_19  and  C_20 
ROOT
HETATM    1  C   UNL     1      42.345 -10.673   8.861  1.00  0.00     0.096 A 
HETATM    2  C   UNL     1      41.551 -10.783   9.986  1.00  0.00     0.138 A 
HETATM    3  N   UNL     1      40.540  -9.874   9.840  1.00  0.00    -0.240 N 
HETATM    4  C   UNL     1      39.529  -9.605  10.845  1.00  0.00     0.221 C 
HETATM    5  C   UNL     1      39.467 -10.753  11.873  1.00  0.00     0.066 C 
HETATM    6  C   UNL     1      40.846 -11.309  12.284  1.00  0.00     0.118 C 
HETATM    7  N   UNL     1      41.630 -11.572  11.085  1.00  0.00    -0.365 N 
HETATM    8  N   UNL     1      40.538  -9.260   8.646  1.00  0.00    -0.181 NA
HETATM    9  C   UNL     1      41.652  -9.724   8.068  1.00  0.00     0.160 A 
HETATM   10  H   UNL     1      42.469 -12.145  11.219  1.00  0.00     0.161 HD
ENDROOT
BRANCH   1  11
HETATM   11  C   UNL     1      43.583 -11.399   8.632  1.00  0.00     0.257 C 
HETATM   12  N   UNL     1      43.471 -12.547   7.881  1.00  0.00    -0.352 N 
HETATM   13  H   UNL     1      42.587 -12.819   7.479  1.00  0.00     0.163 HD
HETATM   14  O   UNL     1      44.661 -11.005   9.072  1.00  0.00    -0.267 OA
BRANCH  12  15
HETATM   15  C   UNL     1      44.632 -13.332   7.530  1.00  0.00     0.161 C 
BRANCH  15  16
HETATM   16  C   UNL     1      44.288 -14.476   6.609  1.00  0.00    -0.040 A 
HETATM   17  C   UNL     1      44.467 -15.798   7.033  1.00  0.00     0.011 A 
HETATM   18  C   UNL     1      44.084 -16.863   6.213  1.00  0.00     0.037 A 
HETATM   19  C   UNL     1      43.508 -16.630   4.963  1.00  0.00     0.068 A 
HETATM   20  C   UNL     1      43.326 -15.317   4.533  1.00  0.00     0.037 A 
HETATM   21  C   UNL     1      43.702 -14.249   5.354  1.00  0.00     0.011 A 
BRANCH  19  22
HETATM   22  O   UNL     1      43.167 -17.758   4.269  1.00  0.00    -0.356 OA
HETATM   23  C   UNL     1      44.063 -18.859   4.360  1.00  0.00     0.210 C 
ENDBRANCH  19  22
ENDBRANCH  15  16
ENDBRANCH  12  15
ENDBRANCH   1  11
BRANCH   4  24
HETATM   24  C   UNL     1      39.763  -8.245  11.466  1.00  0.00     0.409 C 
HETATM   25  F   UNL     1      41.050  -7.853  11.465  1.00  0.00    -0.169 F 
HETATM   26  F   UNL     1      39.046  -7.277  10.847  1.00  0.00    -0.169 F 
HETATM   27  F   UNL     1      39.346  -8.247  12.760  1.00  0.00    -0.169 F 
ENDBRANCH   4  24
BRANCH   6  28
HETATM   28  C   UNL     1      41.601 -10.496  13.325  1.00  0.00    -0.035 A 
HETATM   29  C   UNL     1      42.848  -9.936  12.995  1.00  0.00     0.009 A 
HETATM   30  C   UNL     1      43.559  -9.163  13.917  1.00  0.00     0.001 A 
HETATM   31  C   UNL     1      43.031  -8.924  15.182  1.00  0.00     0.000 A 
HETATM   32  C   UNL     1      41.789  -9.453  15.524  1.00  0.00     0.001 A 
HETATM   33  C   UNL     1      41.080 -10.226  14.603  1.00  0.00     0.009 A 
ENDBRANCH   6  28
TORSDOF 6
ENDMDL
MODEL 10
REMARK VINA RESULT:      -7.8      6.022      8.101
REMARK  6 active torsions:
REMARK  status: ('A' for Active; 'I' for Inactive)
REMARK    1  A    between atoms: O_2  and  C_3 
REMARK    2  A    between atoms: C_6  and  C_7 
REMARK    3  A    between atoms: C_7  and  N_8 
REMARK       I    between atoms: N_8  and  C_9 
REMARK    4  A    between atoms: C_9  and  C_10 
REMARK    5  A    between atoms: C_13  and  C_14 
REMARK    6  A    between atoms: C_19  and  C_20 
ROOT
HETATM    1  C   UNL     1      41.481 -15.635   1.923  1.00  0.00     0.096 A 
HETATM    2  C   UNL     1      41.230 -14.316   1.599  1.00  0.00     0.138 A 
HETATM    3  N   UNL     1      39.871 -14.190   1.505  1.00  0.00    -0.240 N 
HETATM    4  C   UNL     1      39.187 -12.979   1.096  1.00  0.00     0.221 C 
HETATM    5  C   UNL     1      40.124 -11.759   1.218  1.00  0.00     0.066 C 
HETATM    6  C   UNL     1      41.573 -12.028   0.762  1.00  0.00     0.118 C 
HETATM    7  N   UNL     1      42.047 -13.258   1.383  1.00  0.00    -0.365 N 
HETATM    8  N   UNL     1      39.203 -15.298   1.866  1.00  0.00    -0.181 NA
HETATM    9  C   UNL     1      40.184 -16.181   2.088  1.00  0.00     0.160 A 
HETATM   10  H   UNL     1      43.058 -13.420   1.334  1.00  0.00     0.161 HD
ENDROOT
BRANCH   1  11
HETATM   11  C   UNL     1      42.800 -16.233   2.045  1.00  0.00     0.257 C 
HETATM   12  N   UNL     1      42.895 -17.551   1.661  1.00  0.00    -0.352 N 
HETATM   13  H   UNL     1      42.102 -18.036   1.272  1.00  0.00     0.163 HD
HETATM   14  O   UNL     1      43.769 -15.597   2.454  1.00  0.00    -0.267 OA
BRANCH  12  15
HETATM   15  C   UNL     1      44.161 -18.250   1.677  1.00  0.00     0.161 C 
BRANCH  15  16
HETATM   16  C   UNL     1      44.285 -19.175   2.861  1.00  0.00    -0.040 A 
HETATM   17  C   UNL     1      44.052 -18.694   4.156  1.00  0.00     0.011 A 
HETATM   18  C   UNL     1      44.096 -19.561   5.252  1.00  0.00     0.037 A 
HETATM   19  C   UNL     1      44.361 -20.920   5.076  1.00  0.00     0.068 A 
HETATM   20  C   UNL     1      44.592 -21.407   3.792  1.00  0.00     0.037 A 
HETATM   21  C   UNL     1      44.544 -20.543   2.692  1.00  0.00     0.011 A 
BRANCH  19  22
HETATM   22  O   UNL     1      44.360 -21.657   6.229  1.00  0.00    -0.356 OA
HETATM   23  C   UNL     1      43.598 -21.145   7.314  1.00  0.00     0.210 C 
ENDBRANCH  19  22
ENDBRANCH  15  16
ENDBRANCH  12  15
ENDBRANCH   1  11
BRANCH   4  24
HETATM   24  C   UNL     1      38.596 -13.156  -0.285  1.00  0.00     0.409 C 
HETATM   25  F   UNL     1      38.564 -12.029  -1.019  1.00  0.00    -0.169 F 
HETATM   26  F   UNL     1      39.265 -14.087  -1.005  1.00  0.00    -0.169 F 
HETATM   27  F   UNL     1      37.317 -13.608  -0.189  1.00  0.00    -0.169 F 
ENDBRANCH   4  24
BRANCH   6  28
HETATM   28  C   UNL     1      41.810 -11.986  -0.740  1.00  0.00    -0.035 A 
HETATM   29  C   UNL     1      41.647 -10.774  -1.434  1.00  0.00     0.009 A 
HETATM   30  C   UNL     1      41.879 -10.692  -2.809  1.00  0.00     0.001 A 
HETATM   31  C   UNL     1      42.292 -11.817  -3.516  1.00  0.00     0.000 A 
HETATM   32  C   UNL     1      42.478 -13.024  -2.846  1.00  0.00     0.001 A 
HETATM   33  C   UNL     1      42.244 -13.106  -1.472  1.00  0.00     0.009 A 
ENDBRANCH   6  28
TORSDOF 6
ENDMDL
