MODEL 1
REMARK VINA RESULT:      -9.3      0.000      0.000
REMARK  7 active torsions:
REMARK  status: ('A' for Active; 'I' for Inactive)
REMARK    1  A    between atoms: C_3  and  O_4 
REMARK    2  A    between atoms: O_4  and  C_5 
REMARK    3  A    between atoms: C_5  and  C_6 
REMARK    4  A    between atoms: C_7  and  C_8 
REMARK    5  A    between atoms: C_8  and  N_9 
REMARK       I    between atoms: N_9  and  C_10 
REMARK    6  A    between atoms: C_10  and  C_11 
REMARK    7  A    between atoms: C_15  and  C_16 
ROOT
HETATM    1  N   UNL     1      44.670 -12.936   8.652  1.00  0.00    -0.345 N 
HETATM    2  C   UNL     1      45.069 -11.781   9.277  1.00  0.00     0.270 C 
HETATM    3  O   UNL     1      45.981 -11.076   8.860  1.00  0.00    -0.266 OA
HETATM    4  H   UNL     1      43.843 -13.413   8.972  1.00  0.00     0.163 HD
ENDROOT
BRANCH   1   5
HETATM    5  C   UNL     1      45.248 -13.369   7.404  1.00  0.00     0.217 C 
BRANCH   5   6
HETATM    6  C   UNL     1      44.640 -14.634   6.985  1.00  0.00    -0.085 C 
HETATM    7  C   UNL     1      44.119 -15.660   6.635  1.00  0.00    -0.078 C 
BRANCH   7   8
HETATM    8  C   UNL     1      43.457 -16.897   6.196  1.00  0.00     0.269 C 
BRANCH   8   9
HETATM    9  O   UNL     1      43.629 -17.033   4.789  1.00  0.00    -0.339 OA
BRANCH   9  10
HETATM   10  C   UNL     1      44.015 -18.259   4.311  1.00  0.00     0.075 A 
HETATM   11  C   UNL     1      43.649 -18.539   2.982  1.00  0.00    -0.029 A 
HETATM   12  C   UNL     1      42.859 -17.554   2.165  1.00  0.00     0.051 C 
HETATM   13  C   UNL     1      43.981 -19.783   2.422  1.00  0.00     0.009 A 
HETATM   14  C   UNL     1      44.685 -20.729   3.162  1.00  0.00     0.001 A 
HETATM   15  C   UNL     1      45.054 -20.447   4.474  1.00  0.00     0.003 A 
HETATM   16  C   UNL     1      44.717 -19.219   5.049  1.00  0.00     0.037 A 
ENDBRANCH   9  10
ENDBRANCH   8   9
ENDBRANCH   7   8
ENDBRANCH   5   6
ENDBRANCH   1   5
BRANCH   2  17
HETATM   17  C   UNL     1      44.344 -11.451  10.474  1.00  0.00     0.120 A 
HETATM   18  N   UNL     1      43.616 -12.390  11.147  1.00  0.00    -0.272 N 
HETATM   19  H   UNL     1      43.515 -13.371  10.899  1.00  0.00     0.189 HD
HETATM   20  N   UNL     1      42.984 -11.926  12.233  1.00  0.00    -0.174 NA
HETATM   21  C   UNL     1      43.299 -10.621  12.282  1.00  0.00     0.089 A 
HETATM   22  C   UNL     1      44.160 -10.288  11.197  1.00  0.00     0.071 A 
BRANCH  21  23
HETATM   23  C   UNL     1      42.773  -9.743  13.337  1.00  0.00    -0.006 A 
HETATM   24  C   UNL     1      42.608  -8.368  13.101  1.00  0.00     0.014 A 
HETATM   25  C   UNL     1      42.118  -7.519  14.096  1.00  0.00     0.001 A 
HETATM   26  C   UNL     1      41.784  -8.032  15.346  1.00  0.00     0.000 A 
HETATM   27  C   UNL     1      41.939  -9.393  15.600  1.00  0.00     0.001 A 
HETATM   28  C   UNL     1      42.430 -10.243  14.602  1.00  0.00     0.014 A 
ENDBRANCH  21  23
ENDBRANCH   2  17
TORSDOF 7
ENDMDL
MODEL 2
REMARK VINA RESULT:      -9.2      1.357      1.727
REMARK  7 active torsions:
REMARK  status: ('A' for Active; 'I' for Inactive)
REMARK    1  A    between atoms: C_3  and  O_4 
REMARK    2  A    between atoms: O_4  and  C_5 
REMARK    3  A    between atoms: C_5  and  C_6 
REMARK    4  A    between atoms: C_7  and  C_8 
REMARK    5  A    between atoms: C_8  and  N_9 
REMARK       I    between atoms: N_9  and  C_10 
REMARK    6  A    between atoms: C_10  and  C_11 
REMARK    7  A    between atoms: C_15  and  C_16 
ROOT
HETATM    1  N   UNL     1      44.074 -13.444   7.624  1.00  0.00    -0.345 N 
HETATM    2  C   UNL     1      44.806 -12.766   8.567  1.00  0.00     0.270 C 
HETATM    3  O   UNL     1      46.032 -12.764   8.587  1.00  0.00    -0.266 OA
HETATM    4  H   UNL     1      43.076 -13.317   7.586  1.00  0.00     0.163 HD
ENDROOT
BRANCH   1   5
HETATM    5  C   UNL     1      44.699 -14.146   6.532  1.00  0.00     0.217 C 
BRANCH   5   6
HETATM    6  C   UNL     1      44.536 -15.591   6.710  1.00  0.00    -0.085 C 
HETATM    7  C   UNL     1      44.377 -16.773   6.866  1.00  0.00    -0.078 C 
BRANCH   7   8
HETATM    8  C   UNL     1      44.153 -18.212   7.064  1.00  0.00     0.269 C 
BRANCH   8   9
HETATM    9  O   UNL     1      43.088 -18.631   6.216  1.00  0.00    -0.339 OA
BRANCH   9  10
HETATM   10  C   UNL     1      43.400 -18.974   4.925  1.00  0.00     0.075 A 
HETATM   11  C   UNL     1      42.621 -18.361   3.926  1.00  0.00    -0.029 A 
HETATM   12  C   UNL     1      41.503 -17.417   4.276  1.00  0.00     0.051 C 
HETATM   13  C   UNL     1      42.855 -18.676   2.579  1.00  0.00     0.009 A 
HETATM   14  C   UNL     1      43.862 -19.570   2.223  1.00  0.00     0.001 A 
HETATM   15  C   UNL     1      44.637 -20.168   3.212  1.00  0.00     0.003 A 
HETATM   16  C   UNL     1      44.405 -19.875   4.559  1.00  0.00     0.037 A 
ENDBRANCH   9  10
ENDBRANCH   8   9
ENDBRANCH   7   8
ENDBRANCH   5   6
ENDBRANCH   1   5
BRANCH   2  17
HETATM   17  C   UNL     1      44.032 -12.056   9.550  1.00  0.00     0.120 A 
HETATM   18  N   UNL     1      42.858 -11.441   9.221  1.00  0.00    -0.272 N 
HETATM   19  H   UNL     1      42.420 -11.422   8.304  1.00  0.00     0.189 HD
HETATM   20  N   UNL     1      42.263 -10.807  10.239  1.00  0.00    -0.174 NA
HETATM   21  C   UNL     1      43.077 -11.002  11.289  1.00  0.00     0.089 A 
HETATM   22  C   UNL     1      44.197 -11.791  10.896  1.00  0.00     0.071 A 
BRANCH  21  23
HETATM   23  C   UNL     1      42.777 -10.435  12.611  1.00  0.00    -0.006 A 
HETATM   24  C   UNL     1      41.645 -10.861  13.327  1.00  0.00     0.014 A 
HETATM   25  C   UNL     1      41.340 -10.324  14.581  1.00  0.00     0.001 A 
HETATM   26  C   UNL     1      42.164  -9.352  15.140  1.00  0.00     0.000 A 
HETATM   27  C   UNL     1      43.292  -8.917  14.447  1.00  0.00     0.001 A 
HETATM   28  C   UNL     1      43.596  -9.455  13.191  1.00  0.00     0.014 A 
ENDBRANCH  21  23
ENDBRANCH   2  17
TORSDOF 7
ENDMDL
MODEL 3
REMARK VINA RESULT:      -8.6      1.728      2.513
REMARK  7 active torsions:
REMARK  status: ('A' for Active; 'I' for Inactive)
REMARK    1  A    between atoms: C_3  and  O_4 
REMARK    2  A    between atoms: O_4  and  C_5 
REMARK    3  A    between atoms: C_5  and  C_6 
REMARK    4  A    between atoms: C_7  and  C_8 
REMARK    5  A    between atoms: C_8  and  N_9 
REMARK       I    between atoms: N_9  and  C_10 
REMARK    6  A    between atoms: C_10  and  C_11 
REMARK    7  A    between atoms: C_15  and  C_16 
ROOT
HETATM    1  N   UNL     1      44.031 -13.660   7.833  1.00  0.00    -0.345 N 
HETATM    2  C   UNL     1      44.792 -12.678   8.416  1.00  0.00     0.270 C 
HETATM    3  O   UNL     1      46.003 -12.581   8.248  1.00  0.00    -0.266 OA
HETATM    4  H   UNL     1      43.028 -13.623   7.912  1.00  0.00     0.163 HD
ENDROOT
BRANCH   1   5
HETATM    5  C   UNL     1      44.593 -14.614   6.910  1.00  0.00     0.217 C 
BRANCH   5   6
HETATM    6  C   UNL     1      43.927 -14.500   5.610  1.00  0.00    -0.085 C 
HETATM    7  C   UNL     1      43.403 -14.396   4.533  1.00  0.00    -0.078 C 
BRANCH   7   8
HETATM    8  C   UNL     1      42.790 -14.263   3.203  1.00  0.00     0.269 C 
BRANCH   8   9
HETATM    9  O   UNL     1      41.946 -15.387   2.973  1.00  0.00    -0.339 OA
BRANCH   9  10
HETATM   10  C   UNL     1      42.537 -16.552   2.558  1.00  0.00     0.075 A 
HETATM   11  C   UNL     1      42.321 -17.672   3.382  1.00  0.00    -0.029 A 
HETATM   12  C   UNL     1      41.514 -17.568   4.647  1.00  0.00     0.051 C 
HETATM   13  C   UNL     1      42.914 -18.900   3.047  1.00  0.00     0.009 A 
HETATM   14  C   UNL     1      43.693 -19.023   1.899  1.00  0.00     0.001 A 
HETATM   15  C   UNL     1      43.898 -17.916   1.081  1.00  0.00     0.003 A 
HETATM   16  C   UNL     1      43.326 -16.684   1.411  1.00  0.00     0.037 A 
ENDBRANCH   9  10
ENDBRANCH   8   9
ENDBRANCH   7   8
ENDBRANCH   5   6
ENDBRANCH   1   5
BRANCH   2  17
HETATM   17  C   UNL     1      44.069 -11.760   9.256  1.00  0.00     0.120 A 
HETATM   18  N   UNL     1      42.917 -11.163   8.831  1.00  0.00    -0.272 N 
HETATM   19  H   UNL     1      42.462 -11.297   7.932  1.00  0.00     0.189 HD
HETATM   20  N   UNL     1      42.370 -10.323   9.718  1.00  0.00    -0.174 NA
HETATM   21  C   UNL     1      43.196 -10.356  10.777  1.00  0.00     0.089 A 
HETATM   22  C   UNL     1      44.272 -11.256  10.526  1.00  0.00     0.071 A 
BRANCH  21  23
HETATM   23  C   UNL     1      42.947  -9.537  11.972  1.00  0.00    -0.006 A 
HETATM   24  C   UNL     1      43.225 -10.045  13.252  1.00  0.00     0.014 A 
HETATM   25  C   UNL     1      42.984  -9.282  14.399  1.00  0.00     0.001 A 
HETATM   26  C   UNL     1      42.462  -7.998  14.283  1.00  0.00     0.000 A 
HETATM   27  C   UNL     1      42.180  -7.475  13.022  1.00  0.00     0.001 A 
HETATM   28  C   UNL     1      42.421  -8.240  11.874  1.00  0.00     0.014 A 
ENDBRANCH  21  23
ENDBRANCH   2  17
TORSDOF 7
ENDMDL
MODEL 4
REMARK VINA RESULT:      -8.5      7.288     10.093
REMARK  7 active torsions:
REMARK  status: ('A' for Active; 'I' for Inactive)
REMARK    1  A    between atoms: C_3  and  O_4 
REMARK    2  A    between atoms: O_4  and  C_5 
REMARK    3  A    between atoms: C_5  and  C_6 
REMARK    4  A    between atoms: C_7  and  C_8 
REMARK    5  A    between atoms: C_8  and  N_9 
REMARK       I    between atoms: N_9  and  C_10 
REMARK    6  A    between atoms: C_10  and  C_11 
REMARK    7  A    between atoms: C_15  and  C_16 
ROOT
HETATM    1  N   UNL     1      40.670 -16.451   4.823  1.00  0.00    -0.345 N 
HETATM    2  C   UNL     1      41.077 -15.237   4.328  1.00  0.00     0.270 C 
HETATM    3  O   UNL     1      41.627 -14.385   5.017  1.00  0.00    -0.266 OA
HETATM    4  H   UNL     1      40.329 -17.156   4.189  1.00  0.00     0.163 HD
ENDROOT
BRANCH   1   5
HETATM    5  C   UNL     1      40.931 -16.848   6.183  1.00  0.00     0.217 C 
BRANCH   5   6
HETATM    6  C   UNL     1      42.101 -17.729   6.229  1.00  0.00    -0.085 C 
HETATM    7  C   UNL     1      43.076 -18.431   6.265  1.00  0.00    -0.078 C 
BRANCH   7   8
HETATM    8  C   UNL     1      44.287 -19.263   6.309  1.00  0.00     0.269 C 
BRANCH   8   9
HETATM    9  O   UNL     1      44.959 -19.162   5.056  1.00  0.00    -0.339 OA
BRANCH   9  10
HETATM   10  C   UNL     1      44.657 -20.095   4.097  1.00  0.00     0.075 A 
HETATM   11  C   UNL     1      44.115 -19.586   2.902  1.00  0.00    -0.029 A 
HETATM   12  C   UNL     1      43.861 -18.115   2.723  1.00  0.00     0.051 C 
HETATM   13  C   UNL     1      43.751 -20.474   1.877  1.00  0.00     0.009 A 
HETATM   14  C   UNL     1      43.943 -21.845   2.024  1.00  0.00     0.001 A 
HETATM   15  C   UNL     1      44.489 -22.345   3.203  1.00  0.00     0.003 A 
HETATM   16  C   UNL     1      44.841 -21.474   4.238  1.00  0.00     0.037 A 
ENDBRANCH   9  10
ENDBRANCH   8   9
ENDBRANCH   7   8
ENDBRANCH   5   6
ENDBRANCH   1   5
BRANCH   2  17
HETATM   17  C   UNL     1      40.805 -15.022   2.932  1.00  0.00     0.120 A 
HETATM   18  N   UNL     1      39.546 -15.167   2.423  1.00  0.00    -0.272 N 
HETATM   19  H   UNL     1      38.708 -15.418   2.939  1.00  0.00     0.189 HD
HETATM   20  N   UNL     1      39.456 -14.949   1.104  1.00  0.00    -0.174 NA
HETATM   21  C   UNL     1      40.708 -14.653   0.718  1.00  0.00     0.089 A 
HETATM   22  C   UNL     1      41.583 -14.681   1.843  1.00  0.00     0.071 A 
BRANCH  21  23
HETATM   23  C   UNL     1      41.032 -14.367  -0.687  1.00  0.00    -0.006 A 
HETATM   24  C   UNL     1      40.566 -15.211  -1.710  1.00  0.00     0.014 A 
HETATM   25  C   UNL     1      40.874 -14.958  -3.049  1.00  0.00     0.001 A 
HETATM   26  C   UNL     1      41.652 -13.855  -3.388  1.00  0.00     0.000 A 
HETATM   27  C   UNL     1      42.122 -13.005  -2.389  1.00  0.00     0.001 A 
HETATM   28  C   UNL     1      41.814 -13.260  -1.047  1.00  0.00     0.014 A 
ENDBRANCH  21  23
ENDBRANCH   2  17
TORSDOF 7
ENDMDL
MODEL 5
REMARK VINA RESULT:      -8.4      3.193     11.329
REMARK  7 active torsions:
REMARK  status: ('A' for Active; 'I' for Inactive)
REMARK    1  A    between atoms: C_3  and  O_4 
REMARK    2  A    between atoms: O_4  and  C_5 
REMARK    3  A    between atoms: C_5  and  C_6 
REMARK    4  A    between atoms: C_7  and  C_8 
REMARK    5  A    between atoms: C_8  and  N_9 
REMARK       I    between atoms: N_9  and  C_10 
REMARK    6  A    between atoms: C_10  and  C_11 
REMARK    7  A    between atoms: C_15  and  C_16 
ROOT
HETATM    1  N   UNL     1      40.113 -13.612   6.618  1.00  0.00    -0.345 N 
HETATM    2  C   UNL     1      40.265 -14.234   5.404  1.00  0.00     0.270 C 
HETATM    3  O   UNL     1      39.633 -13.913   4.404  1.00  0.00    -0.266 OA
HETATM    4  H   UNL     1      40.739 -13.839   7.373  1.00  0.00     0.163 HD
ENDROOT
BRANCH   1   5
HETATM    5  C   UNL     1      39.248 -12.472   6.789  1.00  0.00     0.217 C 
BRANCH   5   6
HETATM    6  C   UNL     1      39.524 -11.825   8.074  1.00  0.00    -0.085 C 
HETATM    7  C   UNL     1      39.765 -11.276   9.116  1.00  0.00    -0.078 C 
BRANCH   7   8
HETATM    8  C   UNL     1      40.071 -10.579  10.374  1.00  0.00     0.269 C 
BRANCH   8   9
HETATM    9  O   UNL     1      41.177 -11.225  10.998  1.00  0.00    -0.339 OA
BRANCH   9  10
HETATM   10  C   UNL     1      41.664 -10.676  12.156  1.00  0.00     0.075 A 
HETATM   11  C   UNL     1      42.959 -10.132  12.075  1.00  0.00    -0.029 A 
HETATM   12  C   UNL     1      43.752 -10.188  10.798  1.00  0.00     0.051 C 
HETATM   13  C   UNL     1      43.546  -9.573  13.221  1.00  0.00     0.009 A 
HETATM   14  C   UNL     1      42.850  -9.534  14.427  1.00  0.00     0.001 A 
HETATM   15  C   UNL     1      41.565 -10.064  14.503  1.00  0.00     0.003 A 
HETATM   16  C   UNL     1      40.975 -10.637  13.373  1.00  0.00     0.037 A 
ENDBRANCH   9  10
ENDBRANCH   8   9
ENDBRANCH   7   8
ENDBRANCH   5   6
ENDBRANCH   1   5
BRANCH   2  17
HETATM   17  C   UNL     1      41.219 -15.310   5.382  1.00  0.00     0.120 A 
HETATM   18  N   UNL     1      42.090 -15.509   6.415  1.00  0.00    -0.272 N 
HETATM   19  H   UNL     1      42.154 -14.961   7.268  1.00  0.00     0.189 HD
HETATM   20  N   UNL     1      42.928 -16.539   6.240  1.00  0.00    -0.174 NA
HETATM   21  C   UNL     1      42.607 -17.044   5.037  1.00  0.00     0.089 A 
HETATM   22  C   UNL     1      41.530 -16.301   4.471  1.00  0.00     0.071 A 
BRANCH  21  23
HETATM   23  C   UNL     1      43.327 -18.191   4.468  1.00  0.00    -0.006 A 
HETATM   24  C   UNL     1      43.342 -18.402   3.079  1.00  0.00     0.014 A 
HETATM   25  C   UNL     1      44.014 -19.495   2.523  1.00  0.00     0.001 A 
HETATM   26  C   UNL     1      44.683 -20.394   3.348  1.00  0.00     0.000 A 
HETATM   27  C   UNL     1      44.680 -20.201   4.728  1.00  0.00     0.001 A 
HETATM   28  C   UNL     1      44.007 -19.108   5.285  1.00  0.00     0.014 A 
ENDBRANCH  21  23
ENDBRANCH   2  17
TORSDOF 7
ENDMDL
MODEL 6
REMARK VINA RESULT:      -8.4      7.801     10.560
REMARK  7 active torsions:
REMARK  status: ('A' for Active; 'I' for Inactive)
REMARK    1  A    between atoms: C_3  and  O_4 
REMARK    2  A    between atoms: O_4  and  C_5 
REMARK    3  A    between atoms: C_5  and  C_6 
REMARK    4  A    between atoms: C_7  and  C_8 
REMARK    5  A    between atoms: C_8  and  N_9 
REMARK       I    between atoms: N_9  and  C_10 
REMARK    6  A    between atoms: C_10  and  C_11 
REMARK    7  A    between atoms: C_15  and  C_16 
ROOT
HETATM    1  N   UNL     1      41.122 -15.525   3.242  1.00  0.00    -0.345 N 
HETATM    2  C   UNL     1      40.602 -16.067   2.094  1.00  0.00     0.270 C 
HETATM    3  O   UNL     1      39.912 -17.081   2.085  1.00  0.00    -0.266 OA
HETATM    4  H   UNL     1      41.583 -14.630   3.204  1.00  0.00     0.163 HD
ENDROOT
BRANCH   1   5
HETATM    5  C   UNL     1      40.829 -16.069   4.544  1.00  0.00     0.217 C 
BRANCH   5   6
HETATM    6  C   UNL     1      41.933 -16.924   4.986  1.00  0.00    -0.085 C 
HETATM    7  C   UNL     1      42.824 -17.648   5.347  1.00  0.00    -0.078 C 
BRANCH   7   8
HETATM    8  C   UNL     1      43.894 -18.557   5.781  1.00  0.00     0.269 C 
BRANCH   8   9
HETATM    9  O   UNL     1      44.761 -18.803   4.677  1.00  0.00    -0.339 OA
BRANCH   9  10
HETATM   10  C   UNL     1      44.631 -20.000   4.021  1.00  0.00     0.075 A 
HETATM   11  C   UNL     1      44.237 -19.917   2.673  1.00  0.00    -0.029 A 
HETATM   12  C   UNL     1      43.953 -18.591   2.022  1.00  0.00     0.051 C 
HETATM   13  C   UNL     1      44.054 -21.096   1.934  1.00  0.00     0.009 A 
HETATM   14  C   UNL     1      44.277 -22.341   2.516  1.00  0.00     0.001 A 
HETATM   15  C   UNL     1      44.676 -22.421   3.847  1.00  0.00     0.003 A 
HETATM   16  C   UNL     1      44.848 -21.256   4.599  1.00  0.00     0.037 A 
ENDBRANCH   9  10
ENDBRANCH   8   9
ENDBRANCH   7   8
ENDBRANCH   5   6
ENDBRANCH   1   5
BRANCH   2  17
HETATM   17  C   UNL     1      40.929 -15.365   0.882  1.00  0.00     0.120 A 
HETATM   18  N   UNL     1      40.902 -15.991  -0.332  1.00  0.00    -0.272 N 
HETATM   19  H   UNL     1      40.655 -16.961  -0.508  1.00  0.00     0.189 HD
HETATM   20  N   UNL     1      41.248 -15.211  -1.364  1.00  0.00    -0.174 NA
HETATM   21  C   UNL     1      41.523 -14.016  -0.815  1.00  0.00     0.089 A 
HETATM   22  C   UNL     1      41.325 -14.073   0.596  1.00  0.00     0.071 A 
BRANCH  21  23
HETATM   23  C   UNL     1      41.967 -12.878  -1.632  1.00  0.00    -0.006 A 
HETATM   24  C   UNL     1      41.777 -12.886  -3.024  1.00  0.00     0.014 A 
HETATM   25  C   UNL     1      42.202 -11.815  -3.815  1.00  0.00     0.001 A 
HETATM   26  C   UNL     1      42.825 -10.719  -3.227  1.00  0.00     0.000 A 
HETATM   27  C   UNL     1      43.023 -10.692  -1.848  1.00  0.00     0.001 A 
HETATM   28  C   UNL     1      42.596 -11.765  -1.055  1.00  0.00     0.014 A 
ENDBRANCH  21  23
ENDBRANCH   2  17
TORSDOF 7
ENDMDL
MODEL 7
REMARK VINA RESULT:      -8.3      3.482     11.127
REMARK  7 active torsions:
REMARK  status: ('A' for Active; 'I' for Inactive)
REMARK    1  A    between atoms: C_3  and  O_4 
REMARK    2  A    between atoms: O_4  and  C_5 
REMARK    3  A    between atoms: C_5  and  C_6 
REMARK    4  A    between atoms: C_7  and  C_8 
REMARK    5  A    between atoms: C_8  and  N_9 
REMARK       I    between atoms: N_9  and  C_10 
REMARK    6  A    between atoms: C_10  and  C_11 
REMARK    7  A    between atoms: C_15  and  C_16 
ROOT
HETATM    1  N   UNL     1      39.684 -13.983   5.999  1.00  0.00    -0.345 N 
HETATM    2  C   UNL     1      40.047 -14.394   4.741  1.00  0.00     0.270 C 
HETATM    3  O   UNL     1      39.808 -13.743   3.730  1.00  0.00    -0.266 OA
HETATM    4  H   UNL     1      40.007 -14.499   6.802  1.00  0.00     0.163 HD
ENDROOT
BRANCH   1   5
HETATM    5  C   UNL     1      39.057 -12.707   6.234  1.00  0.00     0.217 C 
BRANCH   5   6
HETATM    6  C   UNL     1      40.052 -11.744   6.712  1.00  0.00    -0.085 C 
HETATM    7  C   UNL     1      40.851 -10.943   7.120  1.00  0.00    -0.078 C 
BRANCH   7   8
HETATM    8  C   UNL     1      41.805  -9.953   7.639  1.00  0.00     0.269 C 
BRANCH   8   9
HETATM    9  O   UNL     1      42.856 -10.639   8.313  1.00  0.00    -0.339 OA
BRANCH   9  10
HETATM   10  C   UNL     1      43.017 -10.398   9.653  1.00  0.00     0.075 A 
HETATM   11  C   UNL     1      44.237 -10.826  10.207  1.00  0.00    -0.029 A 
HETATM   12  C   UNL     1      45.272 -11.527   9.371  1.00  0.00     0.051 C 
HETATM   13  C   UNL     1      44.473 -10.643  11.579  1.00  0.00     0.009 A 
HETATM   14  C   UNL     1      43.522 -10.026  12.387  1.00  0.00     0.001 A 
HETATM   15  C   UNL     1      42.319  -9.596  11.835  1.00  0.00     0.003 A 
HETATM   16  C   UNL     1      42.065  -9.784  10.474  1.00  0.00     0.037 A 
ENDBRANCH   9  10
ENDBRANCH   8   9
ENDBRANCH   7   8
ENDBRANCH   5   6
ENDBRANCH   1   5
BRANCH   2  17
HETATM   17  C   UNL     1      40.728 -15.660   4.682  1.00  0.00     0.120 A 
HETATM   18  N   UNL     1      40.588 -16.589   5.673  1.00  0.00    -0.272 N 
HETATM   19  H   UNL     1      40.016 -16.503   6.508  1.00  0.00     0.189 HD
HETATM   20  N   UNL     1      41.298 -17.709   5.484  1.00  0.00    -0.174 NA
HETATM   21  C   UNL     1      41.943 -17.515   4.322  1.00  0.00     0.089 A 
HETATM   22  C   UNL     1      41.603 -16.240   3.784  1.00  0.00     0.071 A 
BRANCH  21  23
HETATM   23  C   UNL     1      42.856 -18.527   3.772  1.00  0.00    -0.006 A 
HETATM   24  C   UNL     1      43.812 -19.145   4.596  1.00  0.00     0.014 A 
HETATM   25  C   UNL     1      44.694 -20.102   4.085  1.00  0.00     0.001 A 
HETATM   26  C   UNL     1      44.633 -20.457   2.741  1.00  0.00     0.000 A 
HETATM   27  C   UNL     1      43.692 -19.856   1.907  1.00  0.00     0.001 A 
HETATM   28  C   UNL     1      42.809 -18.898   2.419  1.00  0.00     0.014 A 
ENDBRANCH  21  23
ENDBRANCH   2  17
TORSDOF 7
ENDMDL
MODEL 8
REMARK VINA RESULT:      -8.2      2.227      2.806
REMARK  7 active torsions:
REMARK  status: ('A' for Active; 'I' for Inactive)
REMARK    1  A    between atoms: C_3  and  O_4 
REMARK    2  A    between atoms: O_4  and  C_5 
REMARK    3  A    between atoms: C_5  and  C_6 
REMARK    4  A    between atoms: C_7  and  C_8 
REMARK    5  A    between atoms: C_8  and  N_9 
REMARK       I    between atoms: N_9  and  C_10 
REMARK    6  A    between atoms: C_10  and  C_11 
REMARK    7  A    between atoms: C_15  and  C_16 
ROOT
HETATM    1  N   UNL     1      41.992 -12.345   6.575  1.00  0.00    -0.345 N 
HETATM    2  C   UNL     1      41.950 -11.096   7.140  1.00  0.00     0.270 C 
HETATM    3  O   UNL     1      41.604 -10.094   6.523  1.00  0.00    -0.266 OA
HETATM    4  H   UNL     1      42.171 -13.147   7.157  1.00  0.00     0.163 HD
ENDROOT
BRANCH   1   5
HETATM    5  C   UNL     1      41.556 -12.587   5.223  1.00  0.00     0.217 C 
BRANCH   5   6
HETATM    6  C   UNL     1      41.696 -14.010   4.901  1.00  0.00    -0.085 C 
HETATM    7  C   UNL     1      41.792 -15.183   4.655  1.00  0.00    -0.078 C 
BRANCH   7   8
HETATM    8  C   UNL     1      41.885 -16.623   4.374  1.00  0.00     0.269 C 
BRANCH   8   9
HETATM    9  O   UNL     1      43.261 -16.985   4.288  1.00  0.00    -0.339 OA
BRANCH   9  10
HETATM   10  C   UNL     1      43.564 -18.200   3.729  1.00  0.00     0.075 A 
HETATM   11  C   UNL     1      44.408 -19.028   4.493  1.00  0.00    -0.029 A 
HETATM   12  C   UNL     1      44.954 -18.576   5.820  1.00  0.00     0.051 C 
HETATM   13  C   UNL     1      44.792 -20.278   3.984  1.00  0.00     0.009 A 
HETATM   14  C   UNL     1      44.329 -20.713   2.744  1.00  0.00     0.001 A 
HETATM   15  C   UNL     1      43.487 -19.896   1.995  1.00  0.00     0.003 A 
HETATM   16  C   UNL     1      43.109 -18.642   2.483  1.00  0.00     0.037 A 
ENDBRANCH   9  10
ENDBRANCH   8   9
ENDBRANCH   7   8
ENDBRANCH   5   6
ENDBRANCH   1   5
BRANCH   2  17
HETATM   17  C   UNL     1      42.350 -11.033   8.520  1.00  0.00     0.120 A 
HETATM   18  N   UNL     1      43.443 -11.715   8.975  1.00  0.00    -0.272 N 
HETATM   19  H   UNL     1      44.065 -12.300   8.425  1.00  0.00     0.189 HD
HETATM   20  N   UNL     1      43.677 -11.571  10.286  1.00  0.00    -0.174 NA
HETATM   21  C   UNL     1      42.695 -10.765  10.724  1.00  0.00     0.089 A 
HETATM   22  C   UNL     1      41.846 -10.400   9.640  1.00  0.00     0.071 A 
BRANCH  21  23
HETATM   23  C   UNL     1      42.591 -10.381  12.139  1.00  0.00    -0.006 A 
HETATM   24  C   UNL     1      41.541 -10.874  12.934  1.00  0.00     0.014 A 
HETATM   25  C   UNL     1      41.423 -10.510  14.278  1.00  0.00     0.001 A 
HETATM   26  C   UNL     1      42.353  -9.647  14.850  1.00  0.00     0.000 A 
HETATM   27  C   UNL     1      43.401  -9.149  14.080  1.00  0.00     0.001 A 
HETATM   28  C   UNL     1      43.519  -9.513  12.733  1.00  0.00     0.014 A 
ENDBRANCH  21  23
ENDBRANCH   2  17
TORSDOF 7
ENDMDL
MODEL 9
REMARK VINA RESULT:      -8.2      2.827     11.263
REMARK  7 active torsions:
REMARK  status: ('A' for Active; 'I' for Inactive)
REMARK    1  A    between atoms: C_3  and  O_4 
REMARK    2  A    between atoms: O_4  and  C_5 
REMARK    3  A    between atoms: C_5  and  C_6 
REMARK    4  A    between atoms: C_7  and  C_8 
REMARK    5  A    between atoms: C_8  and  N_9 
REMARK       I    between atoms: N_9  and  C_10 
REMARK    6  A    between atoms: C_10  and  C_11 
REMARK    7  A    between atoms: C_15  and  C_16 
ROOT
HETATM    1  N   UNL     1      41.942 -12.940   5.790  1.00  0.00    -0.345 N 
HETATM    2  C   UNL     1      41.182 -14.081   5.737  1.00  0.00     0.270 C 
HETATM    3  O   UNL     1      39.957 -14.073   5.793  1.00  0.00    -0.266 OA
HETATM    4  H   UNL     1      42.933 -12.995   5.623  1.00  0.00     0.163 HD
ENDROOT
BRANCH   1   5
HETATM    5  C   UNL     1      41.346 -11.628   5.839  1.00  0.00     0.217 C 
BRANCH   5   6
HETATM    6  C   UNL     1      41.530 -11.046   7.171  1.00  0.00    -0.085 C 
HETATM    7  C   UNL     1      41.683 -10.545   8.253  1.00  0.00    -0.078 C 
BRANCH   7   8
HETATM    8  C   UNL     1      41.865  -9.904   9.563  1.00  0.00     0.269 C 
BRANCH   8   9
HETATM    9  O   UNL     1      42.120 -10.914  10.536  1.00  0.00    -0.339 OA
BRANCH   9  10
HETATM   10  C   UNL     1      42.347 -10.510  11.827  1.00  0.00     0.075 A 
HETATM   11  C   UNL     1      41.358 -10.868  12.761  1.00  0.00    -0.029 A 
HETATM   12  C   UNL     1      40.123 -11.619  12.343  1.00  0.00     0.051 C 
HETATM   13  C   UNL     1      41.497 -10.471  14.100  1.00  0.00     0.009 A 
HETATM   14  C   UNL     1      42.613  -9.747  14.513  1.00  0.00     0.001 A 
HETATM   15  C   UNL     1      43.595  -9.402  13.589  1.00  0.00     0.003 A 
HETATM   16  C   UNL     1      43.461  -9.778  12.250  1.00  0.00     0.037 A 
ENDBRANCH   9  10
ENDBRANCH   8   9
ENDBRANCH   7   8
ENDBRANCH   5   6
ENDBRANCH   1   5
BRANCH   2  17
HETATM   17  C   UNL     1      41.926 -15.307   5.618  1.00  0.00     0.120 A 
HETATM   18  N   UNL     1      42.573 -15.852   6.690  1.00  0.00    -0.272 N 
HETATM   19  H   UNL     1      42.596 -15.484   7.636  1.00  0.00     0.189 HD
HETATM   20  N   UNL     1      43.235 -16.984   6.417  1.00  0.00    -0.174 NA
HETATM   21  C   UNL     1      43.025 -17.199   5.108  1.00  0.00     0.089 A 
HETATM   22  C   UNL     1      42.199 -16.169   4.573  1.00  0.00     0.071 A 
BRANCH  21  23
HETATM   23  C   UNL     1      43.615 -18.353   4.414  1.00  0.00    -0.006 A 
HETATM   24  C   UNL     1      44.523 -19.194   5.078  1.00  0.00     0.014 A 
HETATM   25  C   UNL     1      45.099 -20.289   4.429  1.00  0.00     0.001 A 
HETATM   26  C   UNL     1      44.776 -20.561   3.103  1.00  0.00     0.000 A 
HETATM   27  C   UNL     1      43.876 -19.739   2.427  1.00  0.00     0.001 A 
HETATM   28  C   UNL     1      43.299 -18.642   3.078  1.00  0.00     0.014 A 
ENDBRANCH  21  23
ENDBRANCH   2  17
TORSDOF 7
ENDMDL
MODEL 10
REMARK VINA RESULT:      -7.9      5.570      8.065
REMARK  7 active torsions:
REMARK  status: ('A' for Active; 'I' for Inactive)
REMARK    1  A    between atoms: C_3  and  O_4 
REMARK    2  A    between atoms: O_4  and  C_5 
REMARK    3  A    between atoms: C_5  and  C_6 
REMARK    4  A    between atoms: C_7  and  C_8 
REMARK    5  A    between atoms: C_8  and  N_9 
REMARK       I    between atoms: N_9  and  C_10 
REMARK    6  A    between atoms: C_10  and  C_11 
REMARK    7  A    between atoms: C_15  and  C_16 
ROOT
HETATM    1  N   UNL     1      43.167 -14.194   6.344  1.00  0.00    -0.345 N 
HETATM    2  C   UNL     1      43.234 -13.727   5.055  1.00  0.00     0.270 C 
HETATM    3  O   UNL     1      44.282 -13.655   4.424  1.00  0.00    -0.266 OA
HETATM    4  H   UNL     1      42.267 -14.340   6.773  1.00  0.00     0.163 HD
ENDROOT
BRANCH   1   5
HETATM    5  C   UNL     1      44.324 -14.710   7.031  1.00  0.00     0.217 C 
BRANCH   5   6
HETATM    6  C   UNL     1      44.446 -16.150   6.788  1.00  0.00    -0.085 C 
HETATM    7  C   UNL     1      44.522 -17.334   6.597  1.00  0.00    -0.078 C 
BRANCH   7   8
HETATM    8  C   UNL     1      44.584 -18.786   6.371  1.00  0.00     0.269 C 
BRANCH   8   9
HETATM    9  O   UNL     1      43.405 -19.192   5.683  1.00  0.00    -0.339 OA
BRANCH   9  10
HETATM   10  C   UNL     1      43.293 -18.854   4.359  1.00  0.00     0.075 A 
HETATM   11  C   UNL     1      42.215 -18.010   4.034  1.00  0.00    -0.029 A 
HETATM   12  C   UNL     1      41.242 -17.546   5.083  1.00  0.00     0.051 C 
HETATM   13  C   UNL     1      42.009 -17.636   2.696  1.00  0.00     0.009 A 
HETATM   14  C   UNL     1      42.874 -18.075   1.696  1.00  0.00     0.001 A 
HETATM   15  C   UNL     1      43.945 -18.902   2.021  1.00  0.00     0.003 A 
HETATM   16  C   UNL     1      44.152 -19.294   3.346  1.00  0.00     0.037 A 
ENDBRANCH   9  10
ENDBRANCH   8   9
ENDBRANCH   7   8
ENDBRANCH   5   6
ENDBRANCH   1   5
BRANCH   2  17
HETATM   17  C   UNL     1      41.979 -13.315   4.487  1.00  0.00     0.120 A 
HETATM   18  N   UNL     1      41.130 -12.485   5.163  1.00  0.00    -0.272 N 
HETATM   19  H   UNL     1      41.282 -12.083   6.084  1.00  0.00     0.189 HD
HETATM   20  N   UNL     1      39.994 -12.205   4.511  1.00  0.00    -0.174 NA
HETATM   21  C   UNL     1      40.087 -12.882   3.354  1.00  0.00     0.089 A 
HETATM   22  C   UNL     1      41.326 -13.584   3.300  1.00  0.00     0.071 A 
BRANCH  21  23
HETATM   23  C   UNL     1      39.009 -12.848   2.355  1.00  0.00    -0.006 A 
HETATM   24  C   UNL     1      38.299 -11.660   2.116  1.00  0.00     0.014 A 
HETATM   25  C   UNL     1      37.265 -11.614   1.177  1.00  0.00     0.001 A 
HETATM   26  C   UNL     1      36.925 -12.758   0.461  1.00  0.00     0.000 A 
HETATM   27  C   UNL     1      37.618 -13.946   0.682  1.00  0.00     0.001 A 
HETATM   28  C   UNL     1      38.653 -13.991   1.623  1.00  0.00     0.014 A 
ENDBRANCH  21  23
ENDBRANCH   2  17
TORSDOF 7
ENDMDL
