MODEL 1
REMARK VINA RESULT:      -9.2      0.000      0.000
REMARK  4 active torsions:
REMARK  status: ('A' for Active; 'I' for Inactive)
REMARK    1  A    between atoms: C_5  and  C_6 
REMARK    2  A    between atoms: C_6  and  N_7 
REMARK       I    between atoms: N_7  and  C_8 
REMARK    3  A    between atoms: C_8  and  C_10 
REMARK    4  A    between atoms: C_16  and  C_20 
ROOT
HETATM    1  C   UNL     1      42.562 -15.017   2.599  1.00  0.00     0.059 A 
HETATM    2  C   UNL     1      42.672 -14.770   3.957  1.00  0.00     0.106 A 
HETATM    3  N   UNL     1      43.058 -15.918   4.585  1.00  0.00    -0.364 N 
HETATM    4  H   UNL     1      43.206 -16.017   5.580  1.00  0.00     0.165 HD
HETATM    5  C   UNL     1      43.237 -16.923   3.663  1.00  0.00     0.044 A 
HETATM    6  C   UNL     1      43.634 -18.255   3.859  1.00  0.00     0.042 A 
HETATM    7  C   UNL     1      43.783 -19.082   2.736  1.00  0.00    -0.021 A 
HETATM    8  C   UNL     1      43.542 -18.558   1.462  1.00  0.00     0.013 A 
HETATM    9  C   UNL     1      43.143 -17.224   1.283  1.00  0.00     0.016 A 
HETATM   10  C   UNL     1      42.963 -16.385   2.403  1.00  0.00     0.008 A 
ENDROOT
BRANCH   1  11
HETATM   11  C   UNL     1      42.130 -14.001   1.641  1.00  0.00     0.254 C 
HETATM   12  N   UNL     1      41.081 -14.376   0.835  1.00  0.00    -0.353 N 
HETATM   13  H   UNL     1      40.626 -15.259   1.007  1.00  0.00     0.163 HD
HETATM   14  O   UNL     1      42.630 -12.881   1.606  1.00  0.00    -0.268 OA
BRANCH  12  15
HETATM   15  C   UNL     1      40.508 -13.479  -0.136  1.00  0.00     0.161 C 
BRANCH  15  16
HETATM   16  C   UNL     1      40.108 -14.214  -1.390  1.00  0.00    -0.037 A 
HETATM   17  C   UNL     1      40.962 -15.185  -1.942  1.00  0.00     0.012 A 
HETATM   18  C   UNL     1      40.597 -15.882  -3.098  1.00  0.00     0.046 A 
HETATM   19  C   UNL     1      39.371 -15.615  -3.698  1.00  0.00     0.154 A 
HETATM   20  F   UNL     1      39.023 -16.282  -4.807  1.00  0.00    -0.203 F 
HETATM   21  C   UNL     1      38.513 -14.668  -3.152  1.00  0.00     0.155 A 
HETATM   22  C   UNL     1      38.871 -13.968  -2.003  1.00  0.00     0.054 A 
HETATM   23  F   UNL     1      37.330 -14.418  -3.729  1.00  0.00    -0.203 F 
ENDBRANCH  15  16
ENDBRANCH  12  15
ENDBRANCH   1  11
BRANCH   7  24
HETATM   24  C   UNL     1      44.191 -20.468   2.911  1.00  0.00     0.010 A 
HETATM   25  C   UNL     1      44.126 -21.569   2.025  1.00  0.00     0.152 A 
HETATM   26  N   UNL     1      44.590 -22.699   2.567  1.00  0.00    -0.187 NA
HETATM   27  N   UNL     1      44.950 -22.328   3.805  1.00  0.00    -0.289 N 
HETATM   28  H   UNL     1      45.336 -23.032   4.425  1.00  0.00     0.188 HD
HETATM   29  C   UNL     1      44.733 -21.005   4.060  1.00  0.00     0.123 A 
ENDBRANCH   7  24
TORSDOF 4
ENDMDL
MODEL 2
REMARK VINA RESULT:      -8.9      0.657      1.326
REMARK  4 active torsions:
REMARK  status: ('A' for Active; 'I' for Inactive)
REMARK    1  A    between atoms: C_5  and  C_6 
REMARK    2  A    between atoms: C_6  and  N_7 
REMARK       I    between atoms: N_7  and  C_8 
REMARK    3  A    between atoms: C_8  and  C_10 
REMARK    4  A    between atoms: C_16  and  C_20 
ROOT
HETATM    1  C   UNL     1      42.569 -14.832   2.697  1.00  0.00     0.059 A 
HETATM    2  C   UNL     1      42.760 -14.624   4.053  1.00  0.00     0.106 A 
HETATM    3  N   UNL     1      43.159 -15.796   4.628  1.00  0.00    -0.364 N 
HETATM    4  H   UNL     1      43.361 -15.924   5.610  1.00  0.00     0.165 HD
HETATM    5  C   UNL     1      43.267 -16.777   3.671  1.00  0.00     0.044 A 
HETATM    6  C   UNL     1      43.650 -18.121   3.809  1.00  0.00     0.042 A 
HETATM    7  C   UNL     1      43.721 -18.920   2.657  1.00  0.00    -0.021 A 
HETATM    8  C   UNL     1      43.419 -18.357   1.413  1.00  0.00     0.013 A 
HETATM    9  C   UNL     1      43.035 -17.012   1.292  1.00  0.00     0.016 A 
HETATM   10  C   UNL     1      42.934 -16.201   2.443  1.00  0.00     0.008 A 
ENDROOT
BRANCH   1  11
HETATM   11  C   UNL     1      42.103 -13.783   1.792  1.00  0.00     0.254 C 
HETATM   12  N   UNL     1      40.899 -14.040   1.181  1.00  0.00    -0.353 N 
HETATM   13  H   UNL     1      40.381 -14.860   1.453  1.00  0.00     0.163 HD
HETATM   14  O   UNL     1      42.716 -12.731   1.641  1.00  0.00    -0.268 OA
BRANCH  12  15
HETATM   15  C   UNL     1      40.279 -13.092   0.291  1.00  0.00     0.161 C 
BRANCH  15  16
HETATM   16  C   UNL     1      39.818 -13.759  -0.981  1.00  0.00    -0.037 A 
HETATM   17  C   UNL     1      38.569 -13.432  -1.538  1.00  0.00     0.012 A 
HETATM   18  C   UNL     1      38.138 -14.035  -2.722  1.00  0.00     0.046 A 
HETATM   19  C   UNL     1      38.959 -14.959  -3.359  1.00  0.00     0.154 A 
HETATM   20  F   UNL     1      38.543 -15.537  -4.494  1.00  0.00    -0.203 F 
HETATM   21  C   UNL     1      40.202 -15.278  -2.825  1.00  0.00     0.155 A 
HETATM   22  C   UNL     1      40.638 -14.683  -1.644  1.00  0.00     0.054 A 
HETATM   23  F   UNL     1      40.994 -16.163  -3.445  1.00  0.00    -0.203 F 
ENDBRANCH  15  16
ENDBRANCH  12  15
ENDBRANCH   1  11
BRANCH   7  24
HETATM   24  C   UNL     1      44.112 -20.316   2.773  1.00  0.00     0.010 A 
HETATM   25  C   UNL     1      44.011 -21.384   1.849  1.00  0.00     0.152 A 
HETATM   26  N   UNL     1      44.470 -22.539   2.339  1.00  0.00    -0.187 NA
HETATM   27  N   UNL     1      44.864 -22.218   3.581  1.00  0.00    -0.289 N 
HETATM   28  H   UNL     1      45.252 -22.950   4.166  1.00  0.00     0.188 HD
HETATM   29  C   UNL     1      44.671 -20.902   3.889  1.00  0.00     0.123 A 
ENDBRANCH   7  24
TORSDOF 4
ENDMDL
MODEL 3
REMARK VINA RESULT:      -8.8      3.805      7.954
REMARK  4 active torsions:
REMARK  status: ('A' for Active; 'I' for Inactive)
REMARK    1  A    between atoms: C_5  and  C_6 
REMARK    2  A    between atoms: C_6  and  N_7 
REMARK       I    between atoms: N_7  and  C_8 
REMARK    3  A    between atoms: C_8  and  C_10 
REMARK    4  A    between atoms: C_16  and  C_20 
ROOT
HETATM    1  C   UNL     1      41.090 -15.959   3.995  1.00  0.00     0.059 A 
HETATM    2  C   UNL     1      40.232 -14.916   4.300  1.00  0.00     0.106 A 
HETATM    3  N   UNL     1      39.920 -14.249   3.151  1.00  0.00    -0.364 N 
HETATM    4  H   UNL     1      39.316 -13.441   3.091  1.00  0.00     0.165 HD
HETATM    5  C   UNL     1      40.533 -14.850   2.076  1.00  0.00     0.044 A 
HETATM    6  C   UNL     1      40.487 -14.508   0.715  1.00  0.00     0.042 A 
HETATM    7  C   UNL     1      41.177 -15.314  -0.202  1.00  0.00    -0.021 A 
HETATM    8  C   UNL     1      41.881 -16.431   0.260  1.00  0.00     0.013 A 
HETATM    9  C   UNL     1      41.920 -16.758   1.625  1.00  0.00     0.016 A 
HETATM   10  C   UNL     1      41.252 -15.944   2.565  1.00  0.00     0.008 A 
ENDROOT
BRANCH   1  11
HETATM   11  C   UNL     1      41.647 -16.850   5.010  1.00  0.00     0.254 C 
HETATM   12  N   UNL     1      42.916 -17.307   4.746  1.00  0.00    -0.353 N 
HETATM   13  H   UNL     1      43.408 -16.940   3.946  1.00  0.00     0.163 HD
HETATM   14  O   UNL     1      41.044 -17.119   6.045  1.00  0.00    -0.268 OA
BRANCH  12  15
HETATM   15  C   UNL     1      43.625 -18.162   5.663  1.00  0.00     0.161 C 
BRANCH  15  16
HETATM   16  C   UNL     1      44.006 -19.467   5.010  1.00  0.00    -0.037 A 
HETATM   17  C   UNL     1      44.363 -20.575   5.799  1.00  0.00     0.012 A 
HETATM   18  C   UNL     1      44.706 -21.792   5.204  1.00  0.00     0.046 A 
HETATM   19  C   UNL     1      44.683 -21.907   3.819  1.00  0.00     0.154 A 
HETATM   20  F   UNL     1      45.014 -23.075   3.251  1.00  0.00    -0.203 F 
HETATM   21  C   UNL     1      44.317 -20.823   3.030  1.00  0.00     0.155 A 
HETATM   22  C   UNL     1      43.976 -19.606   3.615  1.00  0.00     0.054 A 
HETATM   23  F   UNL     1      44.289 -20.940   1.696  1.00  0.00    -0.203 F 
ENDBRANCH  15  16
ENDBRANCH  12  15
ENDBRANCH   1  11
BRANCH   7  24
HETATM   24  C   UNL     1      41.148 -14.981  -1.618  1.00  0.00     0.010 A 
HETATM   25  C   UNL     1      40.604 -15.680  -2.721  1.00  0.00     0.152 A 
HETATM   26  N   UNL     1      40.795 -15.047  -3.883  1.00  0.00    -0.187 NA
HETATM   27  N   UNL     1      41.467 -13.941  -3.529  1.00  0.00    -0.289 N 
HETATM   28  H   UNL     1      41.737 -13.289  -4.258  1.00  0.00     0.188 HD
HETATM   29  C   UNL     1      41.703 -13.854  -2.187  1.00  0.00     0.123 A 
ENDBRANCH   7  24
TORSDOF 4
ENDMDL
MODEL 4
REMARK VINA RESULT:      -8.8      2.976      3.565
REMARK  4 active torsions:
REMARK  status: ('A' for Active; 'I' for Inactive)
REMARK    1  A    between atoms: C_5  and  C_6 
REMARK    2  A    between atoms: C_6  and  N_7 
REMARK       I    between atoms: N_7  and  C_8 
REMARK    3  A    between atoms: C_8  and  C_10 
REMARK    4  A    between atoms: C_16  and  C_20 
ROOT
HETATM    1  C   UNL     1      43.435 -15.544   5.383  1.00  0.00     0.059 A 
HETATM    2  C   UNL     1      43.894 -15.654   6.685  1.00  0.00     0.106 A 
HETATM    3  N   UNL     1      44.294 -16.940   6.905  1.00  0.00    -0.364 N 
HETATM    4  H   UNL     1      44.665 -17.294   7.776  1.00  0.00     0.165 HD
HETATM    5  C   UNL     1      44.137 -17.685   5.760  1.00  0.00     0.044 A 
HETATM    6  C   UNL     1      44.425 -19.040   5.529  1.00  0.00     0.042 A 
HETATM    7  C   UNL     1      44.210 -19.561   4.245  1.00  0.00    -0.021 A 
HETATM    8  C   UNL     1      43.728 -18.722   3.236  1.00  0.00     0.013 A 
HETATM    9  C   UNL     1      43.443 -17.370   3.483  1.00  0.00     0.016 A 
HETATM   10  C   UNL     1      43.628 -16.834   4.776  1.00  0.00     0.008 A 
ENDROOT
BRANCH   1  11
HETATM   11  C   UNL     1      42.897 -14.301   4.835  1.00  0.00     0.254 C 
HETATM   12  N   UNL     1      41.525 -14.217   4.829  1.00  0.00    -0.353 N 
HETATM   13  H   UNL     1      40.991 -14.948   5.273  1.00  0.00     0.163 HD
HETATM   14  O   UNL     1      43.622 -13.382   4.466  1.00  0.00    -0.268 OA
BRANCH  12  15
HETATM   15  C   UNL     1      40.835 -13.043   4.360  1.00  0.00     0.161 C 
BRANCH  15  16
HETATM   16  C   UNL     1      39.880 -13.381   3.243  1.00  0.00    -0.037 A 
HETATM   17  C   UNL     1      39.757 -14.708   2.796  1.00  0.00     0.012 A 
HETATM   18  C   UNL     1      38.866 -15.034   1.769  1.00  0.00     0.046 A 
HETATM   19  C   UNL     1      38.090 -14.035   1.193  1.00  0.00     0.154 A 
HETATM   20  F   UNL     1      37.238 -14.349   0.208  1.00  0.00    -0.203 F 
HETATM   21  C   UNL     1      38.194 -12.722   1.637  1.00  0.00     0.155 A 
HETATM   22  C   UNL     1      39.080 -12.389   2.658  1.00  0.00     0.054 A 
HETATM   23  F   UNL     1      37.439 -11.762   1.085  1.00  0.00    -0.203 F 
ENDBRANCH  15  16
ENDBRANCH  12  15
ENDBRANCH   1  11
BRANCH   7  24
HETATM   24  C   UNL     1      44.496 -20.963   3.980  1.00  0.00     0.010 A 
HETATM   25  C   UNL     1      44.468 -21.700   2.772  1.00  0.00     0.152 A 
HETATM   26  N   UNL     1      44.782 -22.987   2.941  1.00  0.00    -0.187 NA
HETATM   27  N   UNL     1      45.009 -23.083   4.260  1.00  0.00    -0.289 N 
HETATM   28  H   UNL     1      45.265 -23.988   4.640  1.00  0.00     0.188 HD
HETATM   29  C   UNL     1      44.852 -21.901   4.926  1.00  0.00     0.123 A 
ENDBRANCH   7  24
TORSDOF 4
ENDMDL
MODEL 5
REMARK VINA RESULT:      -8.7      2.406      2.806
REMARK  4 active torsions:
REMARK  status: ('A' for Active; 'I' for Inactive)
REMARK    1  A    between atoms: C_5  and  C_6 
REMARK    2  A    between atoms: C_6  and  N_7 
REMARK       I    between atoms: N_7  and  C_8 
REMARK    3  A    between atoms: C_8  and  C_10 
REMARK    4  A    between atoms: C_16  and  C_20 
ROOT
HETATM    1  C   UNL     1      42.820 -15.371   3.301  1.00  0.00     0.059 A 
HETATM    2  C   UNL     1      42.603 -15.248   4.663  1.00  0.00     0.106 A 
HETATM    3  N   UNL     1      42.842 -16.452   5.259  1.00  0.00    -0.364 N 
HETATM    4  H   UNL     1      42.751 -16.641   6.248  1.00  0.00     0.165 HD
HETATM    5  C   UNL     1      43.246 -17.371   4.320  1.00  0.00     0.044 A 
HETATM    6  C   UNL     1      43.602 -18.719   4.484  1.00  0.00     0.042 A 
HETATM    7  C   UNL     1      44.023 -19.444   3.358  1.00  0.00    -0.021 A 
HETATM    8  C   UNL     1      44.084 -18.805   2.116  1.00  0.00     0.013 A 
HETATM    9  C   UNL     1      43.723 -17.456   1.967  1.00  0.00     0.016 A 
HETATM   10  C   UNL     1      43.273 -16.720   3.084  1.00  0.00     0.008 A 
ENDROOT
BRANCH   1  11
HETATM   11  C   UNL     1      42.615 -14.269   2.363  1.00  0.00     0.254 C 
HETATM   12  N   UNL     1      41.764 -14.548   1.320  1.00  0.00    -0.353 N 
HETATM   13  H   UNL     1      41.275 -15.429   1.314  1.00  0.00     0.163 HD
HETATM   14  O   UNL     1      43.120 -13.164   2.533  1.00  0.00    -0.268 OA
BRANCH  12  15
HETATM   15  C   UNL     1      41.423 -13.559   0.330  1.00  0.00     0.161 C 
BRANCH  15  16
HETATM   16  C   UNL     1      39.964 -13.187   0.409  1.00  0.00    -0.037 A 
HETATM   17  C   UNL     1      39.558 -11.863   0.170  1.00  0.00     0.012 A 
HETATM   18  C   UNL     1      38.207 -11.509   0.229  1.00  0.00     0.046 A 
HETATM   19  C   UNL     1      37.258 -12.483   0.518  1.00  0.00     0.154 A 
HETATM   20  F   UNL     1      35.963 -12.142   0.576  1.00  0.00    -0.203 F 
HETATM   21  C   UNL     1      37.646 -13.798   0.742  1.00  0.00     0.155 A 
HETATM   22  C   UNL     1      38.991 -14.158   0.687  1.00  0.00     0.054 A 
HETATM   23  F   UNL     1      36.728 -14.735   1.014  1.00  0.00    -0.203 F 
ENDBRANCH  15  16
ENDBRANCH  12  15
ENDBRANCH   1  11
BRANCH   7  24
HETATM   24  C   UNL     1      44.393 -20.843   3.500  1.00  0.00     0.010 A 
HETATM   25  C   UNL     1      44.382 -21.902   2.561  1.00  0.00     0.152 A 
HETATM   26  N   UNL     1      44.784 -23.064   3.084  1.00  0.00    -0.187 NA
HETATM   27  N   UNL     1      45.050 -22.756   4.362  1.00  0.00    -0.289 N 
HETATM   28  H   UNL     1      45.374 -23.495   4.977  1.00  0.00     0.188 HD
HETATM   29  C   UNL     1      44.834 -21.442   4.662  1.00  0.00     0.123 A 
ENDBRANCH   7  24
TORSDOF 4
ENDMDL
MODEL 6
REMARK VINA RESULT:      -8.3      3.986      8.473
REMARK  4 active torsions:
REMARK  status: ('A' for Active; 'I' for Inactive)
REMARK    1  A    between atoms: C_5  and  C_6 
REMARK    2  A    between atoms: C_6  and  N_7 
REMARK       I    between atoms: N_7  and  C_8 
REMARK    3  A    between atoms: C_8  and  C_10 
REMARK    4  A    between atoms: C_16  and  C_20 
ROOT
HETATM    1  C   UNL     1      41.344 -15.294   2.656  1.00  0.00     0.059 A 
HETATM    2  C   UNL     1      40.254 -15.057   3.477  1.00  0.00     0.106 A 
HETATM    3  N   UNL     1      39.218 -14.601   2.714  1.00  0.00    -0.364 N 
HETATM    4  H   UNL     1      38.305 -14.345   3.065  1.00  0.00     0.165 HD
HETATM    5  C   UNL     1      39.589 -14.560   1.391  1.00  0.00     0.044 A 
HETATM    6  C   UNL     1      38.846 -14.166   0.267  1.00  0.00     0.042 A 
HETATM    7  C   UNL     1      39.447 -14.254  -0.998  1.00  0.00    -0.021 A 
HETATM    8  C   UNL     1      40.756 -14.734  -1.104  1.00  0.00     0.013 A 
HETATM    9  C   UNL     1      41.487 -15.121   0.031  1.00  0.00     0.016 A 
HETATM   10  C   UNL     1      40.907 -15.016   1.313  1.00  0.00     0.008 A 
ENDROOT
BRANCH   1  11
HETATM   11  C   UNL     1      42.634 -15.756   3.165  1.00  0.00     0.254 C 
HETATM   12  N   UNL     1      42.567 -16.834   4.015  1.00  0.00    -0.353 N 
HETATM   13  H   UNL     1      41.677 -17.287   4.158  1.00  0.00     0.163 HD
HETATM   14  O   UNL     1      43.695 -15.253   2.810  1.00  0.00    -0.268 OA
BRANCH  12  15
HETATM   15  C   UNL     1      43.749 -17.439   4.574  1.00  0.00     0.161 C 
BRANCH  15  16
HETATM   16  C   UNL     1      43.987 -18.811   3.995  1.00  0.00    -0.037 A 
HETATM   17  C   UNL     1      43.597 -19.098   2.675  1.00  0.00     0.012 A 
HETATM   18  C   UNL     1      43.823 -20.363   2.125  1.00  0.00     0.046 A 
HETATM   19  C   UNL     1      44.449 -21.340   2.891  1.00  0.00     0.154 A 
HETATM   20  F   UNL     1      44.664 -22.553   2.362  1.00  0.00    -0.203 F 
HETATM   21  C   UNL     1      44.851 -21.062   4.191  1.00  0.00     0.155 A 
HETATM   22  C   UNL     1      44.628 -19.806   4.748  1.00  0.00     0.054 A 
HETATM   23  F   UNL     1      45.461 -22.004   4.924  1.00  0.00    -0.203 F 
ENDBRANCH  15  16
ENDBRANCH  12  15
ENDBRANCH   1  11
BRANCH   7  24
HETATM   24  C   UNL     1      38.700 -13.849  -2.179  1.00  0.00     0.010 A 
HETATM   25  C   UNL     1      37.803 -14.574  -2.999  1.00  0.00     0.152 A 
HETATM   26  N   UNL     1      37.325 -13.849  -4.015  1.00  0.00    -0.187 NA
HETATM   27  N   UNL     1      37.918 -12.656  -3.853  1.00  0.00    -0.289 N 
HETATM   28  H   UNL     1      37.712 -11.922  -4.522  1.00  0.00     0.188 HD
HETATM   29  C   UNL     1      38.748 -12.604  -2.771  1.00  0.00     0.123 A 
ENDBRANCH   7  24
TORSDOF 4
ENDMDL
MODEL 7
REMARK VINA RESULT:      -8.2      6.867      9.321
REMARK  4 active torsions:
REMARK  status: ('A' for Active; 'I' for Inactive)
REMARK    1  A    between atoms: C_5  and  C_6 
REMARK    2  A    between atoms: C_6  and  N_7 
REMARK       I    between atoms: N_7  and  C_8 
REMARK    3  A    between atoms: C_8  and  C_10 
REMARK    4  A    between atoms: C_16  and  C_20 
ROOT
HETATM    1  C   UNL     1      41.109 -13.636   5.924  1.00  0.00     0.059 A 
HETATM    2  C   UNL     1      39.819 -14.135   5.850  1.00  0.00     0.106 A 
HETATM    3  N   UNL     1      39.877 -15.488   5.683  1.00  0.00    -0.364 N 
HETATM    4  H   UNL     1      39.077 -16.099   5.593  1.00  0.00     0.165 HD
HETATM    5  C   UNL     1      41.187 -15.906   5.675  1.00  0.00     0.044 A 
HETATM    6  C   UNL     1      41.711 -17.201   5.538  1.00  0.00     0.042 A 
HETATM    7  C   UNL     1      43.102 -17.373   5.604  1.00  0.00    -0.021 A 
HETATM    8  C   UNL     1      43.921 -16.258   5.811  1.00  0.00     0.013 A 
HETATM    9  C   UNL     1      43.382 -14.969   5.943  1.00  0.00     0.016 A 
HETATM   10  C   UNL     1      41.987 -14.774   5.854  1.00  0.00     0.008 A 
ENDROOT
BRANCH   1  11
HETATM   11  C   UNL     1      41.401 -12.211   6.066  1.00  0.00     0.254 C 
HETATM   12  N   UNL     1      41.552 -11.778   7.361  1.00  0.00    -0.353 N 
HETATM   13  H   UNL     1      41.548 -12.459   8.105  1.00  0.00     0.163 HD
HETATM   14  O   UNL     1      41.556 -11.476   5.095  1.00  0.00    -0.268 OA
BRANCH  12  15
HETATM   15  C   UNL     1      41.882 -10.411   7.675  1.00  0.00     0.161 C 
BRANCH  15  16
HETATM   16  C   UNL     1      42.453 -10.293   9.065  1.00  0.00    -0.037 A 
HETATM   17  C   UNL     1      41.790  -9.526  10.039  1.00  0.00     0.012 A 
HETATM   18  C   UNL     1      42.304  -9.418  11.334  1.00  0.00     0.046 A 
HETATM   19  C   UNL     1      43.479 -10.087  11.661  1.00  0.00     0.154 A 
HETATM   20  F   UNL     1      43.971  -9.982  12.903  1.00  0.00    -0.203 F 
HETATM   21  C   UNL     1      44.135 -10.860  10.711  1.00  0.00     0.155 A 
HETATM   22  C   UNL     1      43.630 -10.970   9.418  1.00  0.00     0.054 A 
HETATM   23  F   UNL     1      45.262 -11.509  11.031  1.00  0.00    -0.203 F 
ENDBRANCH  15  16
ENDBRANCH  12  15
ENDBRANCH   1  11
BRANCH   7  24
HETATM   24  C   UNL     1      43.670 -18.704   5.462  1.00  0.00     0.010 A 
HETATM   25  C   UNL     1      43.710 -19.793   6.364  1.00  0.00     0.152 A 
HETATM   26  N   UNL     1      44.345 -20.858   5.866  1.00  0.00    -0.187 NA
HETATM   27  N   UNL     1      44.720 -20.454   4.642  1.00  0.00    -0.289 N 
HETATM   28  H   UNL     1      45.236 -21.103   4.058  1.00  0.00     0.188 HD
HETATM   29  C   UNL     1      44.340 -19.175   4.352  1.00  0.00     0.123 A 
ENDBRANCH   7  24
TORSDOF 4
ENDMDL
MODEL 8
REMARK VINA RESULT:      -8.1      3.524      4.109
REMARK  4 active torsions:
REMARK  status: ('A' for Active; 'I' for Inactive)
REMARK    1  A    between atoms: C_5  and  C_6 
REMARK    2  A    between atoms: C_6  and  N_7 
REMARK       I    between atoms: N_7  and  C_8 
REMARK    3  A    between atoms: C_8  and  C_10 
REMARK    4  A    between atoms: C_16  and  C_20 
ROOT
HETATM    1  C   UNL     1      41.159 -15.102   0.773  1.00  0.00     0.059 A 
HETATM    2  C   UNL     1      40.542 -14.565   1.891  1.00  0.00     0.106 A 
HETATM    3  N   UNL     1      40.894 -15.300   2.986  1.00  0.00    -0.364 N 
HETATM    4  H   UNL     1      40.578 -15.127   3.930  1.00  0.00     0.165 HD
HETATM    5  C   UNL     1      41.763 -16.302   2.621  1.00  0.00     0.044 A 
HETATM    6  C   UNL     1      42.381 -17.281   3.415  1.00  0.00     0.042 A 
HETATM    7  C   UNL     1      43.270 -18.177   2.803  1.00  0.00    -0.021 A 
HETATM    8  C   UNL     1      43.519 -18.066   1.432  1.00  0.00     0.013 A 
HETATM    9  C   UNL     1      42.891 -17.083   0.651  1.00  0.00     0.016 A 
HETATM   10  C   UNL     1      41.975 -16.189   1.245  1.00  0.00     0.008 A 
ENDROOT
BRANCH   1  11
HETATM   11  C   UNL     1      40.961 -14.570  -0.573  1.00  0.00     0.254 C 
HETATM   12  N   UNL     1      42.115 -14.220  -1.232  1.00  0.00    -0.353 N 
HETATM   13  H   UNL     1      43.003 -14.431  -0.804  1.00  0.00     0.163 HD
HETATM   14  O   UNL     1      39.851 -14.500  -1.092  1.00  0.00    -0.268 OA
BRANCH  12  15
HETATM   15  C   UNL     1      42.100 -13.718  -2.582  1.00  0.00     0.161 C 
BRANCH  15  16
HETATM   16  C   UNL     1      42.420 -12.244  -2.620  1.00  0.00    -0.037 A 
HETATM   17  C   UNL     1      42.153 -11.493  -3.778  1.00  0.00     0.012 A 
HETATM   18  C   UNL     1      42.434 -10.124  -3.820  1.00  0.00     0.046 A 
HETATM   19  C   UNL     1      42.974  -9.502  -2.700  1.00  0.00     0.154 A 
HETATM   20  F   UNL     1      43.244  -8.191  -2.742  1.00  0.00    -0.203 F 
HETATM   21  C   UNL     1      43.228 -10.233  -1.545  1.00  0.00     0.155 A 
HETATM   22  C   UNL     1      42.953 -11.597  -1.496  1.00  0.00     0.054 A 
HETATM   23  F   UNL     1      43.741  -9.629  -0.465  1.00  0.00    -0.203 F 
ENDBRANCH  15  16
ENDBRANCH  12  15
ENDBRANCH   1  11
BRANCH   7  24
HETATM   24  C   UNL     1      43.921 -19.204   3.603  1.00  0.00     0.010 A 
HETATM   25  C   UNL     1      44.603 -20.382   3.216  1.00  0.00     0.152 A 
HETATM   26  N   UNL     1      45.054 -21.087   4.258  1.00  0.00    -0.187 NA
HETATM   27  N   UNL     1      44.659 -20.365   5.318  1.00  0.00    -0.289 N 
HETATM   28  H   UNL     1      44.886 -20.709   6.245  1.00  0.00     0.188 HD
HETATM   29  C   UNL     1      43.978 -19.231   4.980  1.00  0.00     0.123 A 
ENDBRANCH   7  24
TORSDOF 4
ENDMDL
MODEL 9
REMARK VINA RESULT:      -8.0      4.396      8.256
REMARK  4 active torsions:
REMARK  status: ('A' for Active; 'I' for Inactive)
REMARK    1  A    between atoms: C_5  and  C_6 
REMARK    2  A    between atoms: C_6  and  N_7 
REMARK       I    between atoms: N_7  and  C_8 
REMARK    3  A    between atoms: C_8  and  C_10 
REMARK    4  A    between atoms: C_16  and  C_20 
ROOT
HETATM    1  C   UNL     1      43.165 -14.679   5.272  1.00  0.00     0.059 A 
HETATM    2  C   UNL     1      42.821 -13.359   5.511  1.00  0.00     0.106 A 
HETATM    3  N   UNL     1      42.368 -12.804   4.350  1.00  0.00    -0.364 N 
HETATM    4  H   UNL     1      42.057 -11.848   4.243  1.00  0.00     0.165 HD
HETATM    5  C   UNL     1      42.375 -13.742   3.344  1.00  0.00     0.044 A 
HETATM    6  C   UNL     1      41.988 -13.615   2.001  1.00  0.00     0.042 A 
HETATM    7  C   UNL     1      42.053 -14.747   1.174  1.00  0.00    -0.021 A 
HETATM    8  C   UNL     1      42.490 -15.962   1.710  1.00  0.00     0.013 A 
HETATM    9  C   UNL     1      42.876 -16.073   3.055  1.00  0.00     0.016 A 
HETATM   10  C   UNL     1      42.841 -14.939   3.895  1.00  0.00     0.008 A 
ENDROOT
BRANCH   1  11
HETATM   11  C   UNL     1      43.723 -15.551   6.303  1.00  0.00     0.254 C 
HETATM   12  N   UNL     1      43.085 -16.760   6.445  1.00  0.00    -0.353 N 
HETATM   13  H   UNL     1      42.358 -17.006   5.792  1.00  0.00     0.163 HD
HETATM   14  O   UNL     1      44.722 -15.246   6.948  1.00  0.00    -0.268 OA
BRANCH  12  15
HETATM   15  C   UNL     1      43.533 -17.753   7.388  1.00  0.00     0.161 C 
BRANCH  15  16
HETATM   16  C   UNL     1      43.897 -19.041   6.694  1.00  0.00    -0.037 A 
HETATM   17  C   UNL     1      43.657 -20.275   7.323  1.00  0.00     0.012 A 
HETATM   18  C   UNL     1      43.979 -21.476   6.684  1.00  0.00     0.046 A 
HETATM   19  C   UNL     1      44.533 -21.445   5.409  1.00  0.00     0.154 A 
HETATM   20  F   UNL     1      44.843 -22.596   4.799  1.00  0.00    -0.203 F 
HETATM   21  C   UNL     1      44.761 -20.231   4.772  1.00  0.00     0.155 A 
HETATM   22  C   UNL     1      44.445 -19.030   5.403  1.00  0.00     0.054 A 
HETATM   23  F   UNL     1      45.289 -20.205   3.541  1.00  0.00    -0.203 F 
ENDBRANCH  15  16
ENDBRANCH  12  15
ENDBRANCH   1  11
BRANCH   7  24
HETATM   24  C   UNL     1      41.661 -14.641  -0.223  1.00  0.00     0.010 A 
HETATM   25  C   UNL     1      41.700 -13.541  -1.113  1.00  0.00     0.152 A 
HETATM   26  N   UNL     1      41.232 -13.840  -2.328  1.00  0.00    -0.187 NA
HETATM   27  N   UNL     1      40.886 -15.132  -2.221  1.00  0.00    -0.289 N 
HETATM   28  H   UNL     1      40.490 -15.593  -3.033  1.00  0.00     0.188 HD
HETATM   29  C   UNL     1      41.123 -15.658  -0.983  1.00  0.00     0.123 A 
ENDBRANCH   7  24
TORSDOF 4
ENDMDL
MODEL 10
REMARK VINA RESULT:      -7.9      7.300      9.992
REMARK  4 active torsions:
REMARK  status: ('A' for Active; 'I' for Inactive)
REMARK    1  A    between atoms: C_5  and  C_6 
REMARK    2  A    between atoms: C_6  and  N_7 
REMARK       I    between atoms: N_7  and  C_8 
REMARK    3  A    between atoms: C_8  and  C_10 
REMARK    4  A    between atoms: C_16  and  C_20 
ROOT
HETATM    1  C   UNL     1      40.913 -12.544   6.343  1.00  0.00     0.059 A 
HETATM    2  C   UNL     1      39.578 -12.911   6.298  1.00  0.00     0.106 A 
HETATM    3  N   UNL     1      39.476 -14.138   5.711  1.00  0.00    -0.364 N 
HETATM    4  H   UNL     1      38.612 -14.636   5.548  1.00  0.00     0.165 HD
HETATM    5  C   UNL     1      40.726 -14.612   5.390  1.00  0.00     0.044 A 
HETATM    6  C   UNL     1      41.093 -15.824   4.784  1.00  0.00     0.042 A 
HETATM    7  C   UNL     1      42.457 -16.094   4.597  1.00  0.00    -0.021 A 
HETATM    8  C   UNL     1      43.406 -15.160   5.024  1.00  0.00     0.013 A 
HETATM    9  C   UNL     1      43.023 -13.951   5.626  1.00  0.00     0.016 A 
HETATM   10  C   UNL     1      41.654 -13.651   5.799  1.00  0.00     0.008 A 
ENDROOT
BRANCH   1  11
HETATM   11  C   UNL     1      41.366 -11.263   6.879  1.00  0.00     0.254 C 
HETATM   12  N   UNL     1      41.796 -11.302   8.184  1.00  0.00    -0.353 N 
HETATM   13  H   UNL     1      41.862 -12.195   8.648  1.00  0.00     0.163 HD
HETATM   14  O   UNL     1      41.411 -10.246   6.194  1.00  0.00    -0.268 OA
BRANCH  12  15
HETATM   15  C   UNL     1      42.312 -10.135   8.853  1.00  0.00     0.161 C 
BRANCH  15  16
HETATM   16  C   UNL     1      42.384 -10.346  10.344  1.00  0.00    -0.037 A 
HETATM   17  C   UNL     1      43.480  -9.856  11.075  1.00  0.00     0.012 A 
HETATM   18  C   UNL     1      43.552 -10.036  12.459  1.00  0.00     0.046 A 
HETATM   19  C   UNL     1      42.521 -10.699  13.117  1.00  0.00     0.154 A 
HETATM   20  F   UNL     1      42.592 -10.872  14.444  1.00  0.00    -0.203 F 
HETATM   21  C   UNL     1      41.426 -11.175  12.406  1.00  0.00     0.155 A 
HETATM   22  C   UNL     1      41.349 -11.001  11.026  1.00  0.00     0.054 A 
HETATM   23  F   UNL     1      40.432 -11.807  13.044  1.00  0.00    -0.203 F 
ENDBRANCH  15  16
ENDBRANCH  12  15
ENDBRANCH   1  11
BRANCH   7  24
HETATM   24  C   UNL     1      42.865 -17.341   3.968  1.00  0.00     0.010 A 
HETATM   25  C   UNL     1      43.905 -18.244   4.294  1.00  0.00     0.152 A 
HETATM   26  N   UNL     1      43.973 -19.282   3.456  1.00  0.00    -0.187 NA
HETATM   27  N   UNL     1      42.978 -19.048   2.587  1.00  0.00    -0.289 N 
HETATM   28  H   UNL     1      42.830 -19.713   1.835  1.00  0.00     0.188 HD
HETATM   29  C   UNL     1      42.285 -17.901   2.849  1.00  0.00     0.123 A 
ENDBRANCH   7  24
TORSDOF 4
ENDMDL
