MODEL 1
REMARK VINA RESULT:      -8.4      0.000      0.000
REMARK  5 active torsions:
REMARK  status: ('A' for Active; 'I' for Inactive)
REMARK    1  A    between atoms: C_8  and  C_9 
REMARK    2  A    between atoms: C_9  and  N_10 
REMARK       I    between atoms: N_10  and  C_11 
REMARK       I    between atoms: C_11  and  N_12 
REMARK    3  A    between atoms: C_13  and  C_14 
REMARK    4  A    between atoms: C_14  and  C_15 
REMARK    5  A    between atoms: C_15  and  C_16 
ROOT
HETATM    1  N   UNL     1      42.469 -14.517   3.995  1.00  0.00    -0.339 N 
HETATM    2  C   UNL     1      41.643 -14.391   2.914  1.00  0.00     0.318 C 
HETATM    3  N   UNL     1      42.302 -14.655   1.709  1.00  0.00    -0.330 N 
HETATM    4  C   UNL     1      42.850 -16.004   1.382  1.00  0.00     0.089 C 
HETATM    5  C   UNL     1      41.754 -16.850   0.694  1.00  0.00     0.025 C 
HETATM    6  C   UNL     1      41.155 -16.130  -0.516  1.00  0.00     0.004 C 
HETATM    7  C   UNL     1      40.654 -14.742  -0.138  1.00  0.00     0.020 C 
HETATM    8  C   UNL     1      41.759 -13.948   0.550  1.00  0.00     0.128 C 
HETATM    9  O   UNL     1      40.491 -13.981   2.993  1.00  0.00    -0.247 OA
HETATM   10  H   UNL     1      43.444 -14.386   3.776  1.00  0.00     0.164 HD
ENDROOT
BRANCH   4  11
HETATM   11  C   UNL     1      43.493 -16.769   2.559  1.00  0.00     0.030 C 
BRANCH  11  12
HETATM   12  C   UNL     1      42.641 -17.905   3.135  1.00  0.00     0.040 C 
BRANCH  12  13
HETATM   13  C   UNL     1      43.373 -19.222   3.025  1.00  0.00    -0.058 A 
HETATM   14  C   UNL     1      43.156 -20.059   1.919  1.00  0.00     0.007 A 
HETATM   15  C   UNL     1      43.793 -21.297   1.833  1.00  0.00     0.001 A 
HETATM   16  C   UNL     1      44.646 -21.714   2.852  1.00  0.00     0.000 A 
HETATM   17  C   UNL     1      44.863 -20.894   3.959  1.00  0.00     0.001 A 
HETATM   18  C   UNL     1      44.229 -19.653   4.046  1.00  0.00     0.007 A 
ENDBRANCH  12  13
ENDBRANCH  11  12
ENDBRANCH   4  11
BRANCH   1  19
HETATM   19  C   UNL     1      42.053 -14.193   5.337  1.00  0.00     0.167 C 
BRANCH  19  20
HETATM   20  C   UNL     1      42.577 -15.257   6.238  1.00  0.00     0.009 A 
HETATM   21  C   UNL     1      43.805 -15.298   6.876  1.00  0.00     0.034 A 
HETATM   22  C   UNL     1      44.937 -14.343   6.885  1.00  0.00     0.070 C 
HETATM   23  N   UNL     1      43.832 -16.477   7.563  1.00  0.00    -0.282 N 
HETATM   24  H   UNL     1      44.575 -16.846   8.146  1.00  0.00     0.189 HD
HETATM   25  N   UNL     1      42.725 -17.217   7.407  1.00  0.00    -0.179 NA
HETATM   26  C   UNL     1      41.950 -16.482   6.601  1.00  0.00     0.060 A 
HETATM   27  C   UNL     1      40.621 -16.990   6.176  1.00  0.00     0.073 C 
ENDBRANCH  19  20
ENDBRANCH   1  19
TORSDOF 5
ENDMDL
MODEL 2
REMARK VINA RESULT:      -8.4      0.107      1.624
REMARK  5 active torsions:
REMARK  status: ('A' for Active; 'I' for Inactive)
REMARK    1  A    between atoms: C_8  and  C_9 
REMARK    2  A    between atoms: C_9  and  N_10 
REMARK       I    between atoms: N_10  and  C_11 
REMARK       I    between atoms: C_11  and  N_12 
REMARK    3  A    between atoms: C_13  and  C_14 
REMARK    4  A    between atoms: C_14  and  C_15 
REMARK    5  A    between atoms: C_15  and  C_16 
ROOT
HETATM    1  N   UNL     1      42.555 -14.478   3.975  1.00  0.00    -0.339 N 
HETATM    2  C   UNL     1      41.718 -14.351   2.904  1.00  0.00     0.318 C 
HETATM    3  N   UNL     1      42.355 -14.646   1.694  1.00  0.00    -0.330 N 
HETATM    4  C   UNL     1      42.872 -16.011   1.380  1.00  0.00     0.089 C 
HETATM    5  C   UNL     1      41.749 -16.844   0.720  1.00  0.00     0.025 C 
HETATM    6  C   UNL     1      41.149 -16.130  -0.493  1.00  0.00     0.004 C 
HETATM    7  C   UNL     1      40.681 -14.726  -0.129  1.00  0.00     0.020 C 
HETATM    8  C   UNL     1      41.812 -13.945   0.533  1.00  0.00     0.128 C 
HETATM    9  O   UNL     1      40.575 -13.917   2.992  1.00  0.00    -0.247 OA
HETATM   10  H   UNL     1      43.530 -14.370   3.742  1.00  0.00     0.164 HD
ENDROOT
BRANCH   4  11
HETATM   11  C   UNL     1      43.515 -16.771   2.560  1.00  0.00     0.030 C 
BRANCH  11  12
HETATM   12  C   UNL     1      42.656 -17.896   3.150  1.00  0.00     0.040 C 
BRANCH  12  13
HETATM   13  C   UNL     1      43.370 -19.223   3.029  1.00  0.00    -0.058 A 
HETATM   14  C   UNL     1      43.141 -20.048   1.918  1.00  0.00     0.007 A 
HETATM   15  C   UNL     1      43.761 -21.294   1.823  1.00  0.00     0.001 A 
HETATM   16  C   UNL     1      44.609 -21.731   2.838  1.00  0.00     0.000 A 
HETATM   17  C   UNL     1      44.838 -20.922   3.950  1.00  0.00     0.001 A 
HETATM   18  C   UNL     1      44.222 -19.673   4.046  1.00  0.00     0.007 A 
ENDBRANCH  12  13
ENDBRANCH  11  12
ENDBRANCH   4  11
BRANCH   1  19
HETATM   19  C   UNL     1      42.164 -14.126   5.319  1.00  0.00     0.167 C 
BRANCH  19  20
HETATM   20  C   UNL     1      42.664 -15.196   6.226  1.00  0.00     0.009 A 
HETATM   21  C   UNL     1      42.023 -16.370   6.585  1.00  0.00     0.034 A 
HETATM   22  C   UNL     1      40.707 -16.926   6.195  1.00  0.00     0.070 C 
HETATM   23  N   UNL     1      42.864 -17.006   7.451  1.00  0.00    -0.282 N 
HETATM   24  H   UNL     1      42.726 -17.896   7.918  1.00  0.00     0.189 HD
HETATM   25  N   UNL     1      43.994 -16.330   7.700  1.00  0.00    -0.179 NA
HETATM   26  C   UNL     1      43.885 -15.223   6.957  1.00  0.00     0.060 A 
HETATM   27  C   UNL     1      44.957 -14.196   6.984  1.00  0.00     0.073 C 
ENDBRANCH  19  20
ENDBRANCH   1  19
TORSDOF 5
ENDMDL
MODEL 3
REMARK VINA RESULT:      -8.1      1.629      4.918
REMARK  5 active torsions:
REMARK  status: ('A' for Active; 'I' for Inactive)
REMARK    1  A    between atoms: C_8  and  C_9 
REMARK    2  A    between atoms: C_9  and  N_10 
REMARK       I    between atoms: N_10  and  C_11 
REMARK       I    between atoms: C_11  and  N_12 
REMARK    3  A    between atoms: C_13  and  C_14 
REMARK    4  A    between atoms: C_14  and  C_15 
REMARK    5  A    between atoms: C_15  and  C_16 
ROOT
HETATM    1  N   UNL     1      40.586 -15.877   4.061  1.00  0.00    -0.339 N 
HETATM    2  C   UNL     1      41.246 -15.771   5.252  1.00  0.00     0.318 C 
HETATM    3  N   UNL     1      41.731 -17.003   5.703  1.00  0.00    -0.330 N 
HETATM    4  C   UNL     1      42.781 -17.763   4.962  1.00  0.00     0.089 C 
HETATM    5  C   UNL     1      44.178 -17.306   5.441  1.00  0.00     0.025 C 
HETATM    6  C   UNL     1      44.318 -17.404   6.962  1.00  0.00     0.004 C 
HETATM    7  C   UNL     1      43.197 -16.652   7.668  1.00  0.00     0.020 C 
HETATM    8  C   UNL     1      41.839 -17.121   7.155  1.00  0.00     0.128 C 
HETATM    9  O   UNL     1      41.302 -14.731   5.899  1.00  0.00    -0.247 OA
HETATM   10  H   UNL     1      40.208 -16.796   3.888  1.00  0.00     0.164 HD
ENDROOT
BRANCH   4  11
HETATM   11  C   UNL     1      42.675 -17.724   3.423  1.00  0.00     0.030 C 
BRANCH  11  12
HETATM   12  C   UNL     1      43.934 -18.179   2.676  1.00  0.00     0.040 C 
BRANCH  12  13
HETATM   13  C   UNL     1      44.078 -19.682   2.751  1.00  0.00    -0.058 A 
HETATM   14  C   UNL     1      44.754 -20.273   3.829  1.00  0.00     0.007 A 
HETATM   15  C   UNL     1      44.930 -21.655   3.882  1.00  0.00     0.001 A 
HETATM   16  C   UNL     1      44.441 -22.460   2.855  1.00  0.00     0.000 A 
HETATM   17  C   UNL     1      43.773 -21.883   1.776  1.00  0.00     0.001 A 
HETATM   18  C   UNL     1      43.592 -20.500   1.723  1.00  0.00     0.007 A 
ENDBRANCH  12  13
ENDBRANCH  11  12
ENDBRANCH   4  11
BRANCH   1  19
HETATM   19  C   UNL     1      39.903 -14.766   3.444  1.00  0.00     0.167 C 
BRANCH  19  20
HETATM   20  C   UNL     1      40.862 -14.113   2.511  1.00  0.00     0.009 A 
HETATM   21  C   UNL     1      41.333 -14.599   1.302  1.00  0.00     0.034 A 
HETATM   22  C   UNL     1      41.043 -15.853   0.571  1.00  0.00     0.070 C 
HETATM   23  N   UNL     1      42.205 -13.658   0.834  1.00  0.00    -0.282 N 
HETATM   24  H   UNL     1      42.740 -13.674  -0.027  1.00  0.00     0.189 HD
HETATM   25  N   UNL     1      42.353 -12.607   1.652  1.00  0.00    -0.179 NA
HETATM   26  C   UNL     1      41.538 -12.872   2.679  1.00  0.00     0.060 A 
HETATM   27  C   UNL     1      41.444 -11.927   3.821  1.00  0.00     0.073 C 
ENDBRANCH  19  20
ENDBRANCH   1  19
TORSDOF 5
ENDMDL
MODEL 4
REMARK VINA RESULT:      -7.8      1.897      5.084
REMARK  5 active torsions:
REMARK  status: ('A' for Active; 'I' for Inactive)
REMARK    1  A    between atoms: C_8  and  C_9 
REMARK    2  A    between atoms: C_9  and  N_10 
REMARK       I    between atoms: N_10  and  C_11 
REMARK       I    between atoms: C_11  and  N_12 
REMARK    3  A    between atoms: C_13  and  C_14 
REMARK    4  A    between atoms: C_14  and  C_15 
REMARK    5  A    between atoms: C_15  and  C_16 
ROOT
HETATM    1  N   UNL     1      39.774 -15.245   3.152  1.00  0.00    -0.339 N 
HETATM    2  C   UNL     1      40.273 -14.156   3.807  1.00  0.00     0.318 C 
HETATM    3  N   UNL     1      40.737 -14.473   5.088  1.00  0.00    -0.330 N 
HETATM    4  C   UNL     1      41.898 -15.385   5.309  1.00  0.00     0.089 C 
HETATM    5  C   UNL     1      43.206 -14.561   5.297  1.00  0.00     0.025 C 
HETATM    6  C   UNL     1      43.154 -13.396   6.287  1.00  0.00     0.004 C 
HETATM    7  C   UNL     1      41.927 -12.525   6.048  1.00  0.00     0.020 C 
HETATM    8  C   UNL     1      40.662 -13.377   6.052  1.00  0.00     0.128 C 
HETATM    9  O   UNL     1      40.210 -13.016   3.361  1.00  0.00    -0.247 OA
HETATM   10  H   UNL     1      39.453 -15.976   3.768  1.00  0.00     0.164 HD
ENDROOT
BRANCH   4  11
HETATM   11  C   UNL     1      41.989 -16.596   4.357  1.00  0.00     0.030 C 
BRANCH  11  12
HETATM   12  C   UNL     1      43.303 -16.708   3.576  1.00  0.00     0.040 C 
BRANCH  12  13
HETATM   13  C   UNL     1      43.888 -18.095   3.724  1.00  0.00    -0.058 A 
HETATM   14  C   UNL     1      44.028 -18.924   2.601  1.00  0.00     0.007 A 
HETATM   15  C   UNL     1      44.524 -20.221   2.737  1.00  0.00     0.001 A 
HETATM   16  C   UNL     1      44.878 -20.704   3.995  1.00  0.00     0.000 A 
HETATM   17  C   UNL     1      44.737 -19.890   5.118  1.00  0.00     0.001 A 
HETATM   18  C   UNL     1      44.244 -18.591   4.985  1.00  0.00     0.007 A 
ENDBRANCH  12  13
ENDBRANCH  11  12
ENDBRANCH   4  11
BRANCH   1  19
HETATM   19  C   UNL     1      39.139 -15.156   1.860  1.00  0.00     0.167 C 
BRANCH  19  20
HETATM   20  C   UNL     1      40.212 -15.189   0.829  1.00  0.00     0.009 A 
HETATM   21  C   UNL     1      41.021 -16.257   0.480  1.00  0.00     0.034 A 
HETATM   22  C   UNL     1      41.071 -17.651   0.979  1.00  0.00     0.070 C 
HETATM   23  N   UNL     1      41.862 -15.792  -0.489  1.00  0.00    -0.282 N 
HETATM   24  H   UNL     1      42.590 -16.296  -0.981  1.00  0.00     0.189 HD
HETATM   25  N   UNL     1      41.678 -14.498  -0.785  1.00  0.00    -0.179 NA
HETATM   26  C   UNL     1      40.673 -14.117   0.012  1.00  0.00     0.060 A 
HETATM   27  C   UNL     1      40.188 -12.714  -0.014  1.00  0.00     0.073 C 
ENDBRANCH  19  20
ENDBRANCH   1  19
TORSDOF 5
ENDMDL
MODEL 5
REMARK VINA RESULT:      -7.7      2.288      5.788
REMARK  5 active torsions:
REMARK  status: ('A' for Active; 'I' for Inactive)
REMARK    1  A    between atoms: C_8  and  C_9 
REMARK    2  A    between atoms: C_9  and  N_10 
REMARK       I    between atoms: N_10  and  C_11 
REMARK       I    between atoms: C_11  and  N_12 
REMARK    3  A    between atoms: C_13  and  C_14 
REMARK    4  A    between atoms: C_14  and  C_15 
REMARK    5  A    between atoms: C_15  and  C_16 
ROOT
HETATM    1  N   UNL     1      42.207 -14.669   6.028  1.00  0.00    -0.339 N 
HETATM    2  C   UNL     1      43.070 -15.616   6.503  1.00  0.00     0.318 C 
HETATM    3  N   UNL     1      42.455 -16.862   6.663  1.00  0.00    -0.330 N 
HETATM    4  C   UNL     1      41.924 -17.641   5.505  1.00  0.00     0.089 C 
HETATM    5  C   UNL     1      43.048 -18.533   4.930  1.00  0.00     0.025 C 
HETATM    6  C   UNL     1      43.685 -19.411   6.009  1.00  0.00     0.004 C 
HETATM    7  C   UNL     1      44.167 -18.573   7.187  1.00  0.00     0.020 C 
HETATM    8  C   UNL     1      43.034 -17.697   7.713  1.00  0.00     0.128 C 
HETATM    9  O   UNL     1      44.216 -15.364   6.854  1.00  0.00    -0.247 OA
HETATM   10  H   UNL     1      41.239 -14.865   6.232  1.00  0.00     0.164 HD
ENDROOT
BRANCH   4  11
HETATM   11  C   UNL     1      41.244 -16.811   4.395  1.00  0.00     0.030 C 
BRANCH  11  12
HETATM   12  C   UNL     1      41.420 -17.362   2.975  1.00  0.00     0.040 C 
BRANCH  12  13
HETATM   13  C   UNL     1      40.974 -16.340   1.954  1.00  0.00    -0.058 A 
HETATM   14  C   UNL     1      39.873 -15.512   2.219  1.00  0.00     0.007 A 
HETATM   15  C   UNL     1      39.428 -14.599   1.263  1.00  0.00     0.001 A 
HETATM   16  C   UNL     1      40.073 -14.510   0.031  1.00  0.00     0.000 A 
HETATM   17  C   UNL     1      41.163 -15.333  -0.246  1.00  0.00     0.001 A 
HETATM   18  C   UNL     1      41.613 -16.245   0.711  1.00  0.00     0.007 A 
ENDBRANCH  12  13
ENDBRANCH  11  12
ENDBRANCH   4  11
BRANCH   1  19
HETATM   19  C   UNL     1      42.574 -13.282   5.881  1.00  0.00     0.167 C 
BRANCH  19  20
HETATM   20  C   UNL     1      42.363 -12.911   4.454  1.00  0.00     0.009 A 
HETATM   21  C   UNL     1      41.492 -11.963   3.945  1.00  0.00     0.034 A 
HETATM   22  C   UNL     1      40.544 -11.043   4.615  1.00  0.00     0.070 C 
HETATM   23  N   UNL     1      41.640 -12.008   2.588  1.00  0.00    -0.282 N 
HETATM   24  H   UNL     1      41.162 -11.452   1.888  1.00  0.00     0.189 HD
HETATM   25  N   UNL     1      42.525 -12.924   2.173  1.00  0.00    -0.179 NA
HETATM   26  C   UNL     1      42.975 -13.482   3.303  1.00  0.00     0.060 A 
HETATM   27  C   UNL     1      43.976 -14.578   3.248  1.00  0.00     0.073 C 
ENDBRANCH  19  20
ENDBRANCH   1  19
TORSDOF 5
ENDMDL
MODEL 6
REMARK VINA RESULT:      -7.6      1.386      1.961
REMARK  5 active torsions:
REMARK  status: ('A' for Active; 'I' for Inactive)
REMARK    1  A    between atoms: C_8  and  C_9 
REMARK    2  A    between atoms: C_9  and  N_10 
REMARK       I    between atoms: N_10  and  C_11 
REMARK       I    between atoms: C_11  and  N_12 
REMARK    3  A    between atoms: C_13  and  C_14 
REMARK    4  A    between atoms: C_14  and  C_15 
REMARK    5  A    between atoms: C_15  and  C_16 
ROOT
HETATM    1  N   UNL     1      42.814 -13.517   3.220  1.00  0.00    -0.339 N 
HETATM    2  C   UNL     1      41.983 -12.910   2.322  1.00  0.00     0.318 C 
HETATM    3  N   UNL     1      42.186 -13.369   1.016  1.00  0.00    -0.330 N 
HETATM    4  C   UNL     1      41.909 -14.782   0.619  1.00  0.00     0.089 C 
HETATM    5  C   UNL     1      40.432 -14.911   0.182  1.00  0.00     0.025 C 
HETATM    6  C   UNL     1      40.068 -13.894  -0.902  1.00  0.00     0.004 C 
HETATM    7  C   UNL     1      40.414 -12.476  -0.465  1.00  0.00     0.020 C 
HETATM    8  C   UNL     1      41.873 -12.396  -0.028  1.00  0.00     0.128 C 
HETATM    9  O   UNL     1      41.231 -11.989   2.618  1.00  0.00    -0.247 OA
HETATM   10  H   UNL     1      43.664 -13.872   2.809  1.00  0.00     0.164 HD
ENDROOT
BRANCH   4  11
HETATM   11  C   UNL     1      42.282 -15.856   1.662  1.00  0.00     0.030 C 
BRANCH  11  12
HETATM   12  C   UNL     1      43.062 -17.054   1.108  1.00  0.00     0.040 C 
BRANCH  12  13
HETATM   13  C   UNL     1      43.525 -17.949   2.235  1.00  0.00    -0.058 A 
HETATM   14  C   UNL     1      43.815 -19.299   1.989  1.00  0.00     0.007 A 
HETATM   15  C   UNL     1      44.199 -20.142   3.032  1.00  0.00     0.001 A 
HETATM   16  C   UNL     1      44.289 -19.647   4.331  1.00  0.00     0.000 A 
HETATM   17  C   UNL     1      43.997 -18.308   4.588  1.00  0.00     0.001 A 
HETATM   18  C   UNL     1      43.616 -17.462   3.545  1.00  0.00     0.007 A 
ENDBRANCH  12  13
ENDBRANCH  11  12
ENDBRANCH   4  11
BRANCH   1  19
HETATM   19  C   UNL     1      42.872 -13.137   4.610  1.00  0.00     0.167 C 
BRANCH  19  20
HETATM   20  C   UNL     1      42.413 -14.305   5.413  1.00  0.00     0.009 A 
HETATM   21  C   UNL     1      43.157 -15.075   6.290  1.00  0.00     0.034 A 
HETATM   22  C   UNL     1      44.575 -14.989   6.709  1.00  0.00     0.070 C 
HETATM   23  N   UNL     1      42.309 -16.037   6.759  1.00  0.00    -0.282 N 
HETATM   24  H   UNL     1      42.507 -16.778   7.421  1.00  0.00     0.189 HD
HETATM   25  N   UNL     1      41.075 -15.965   6.240  1.00  0.00    -0.179 NA
HETATM   26  C   UNL     1      41.125 -14.911   5.418  1.00  0.00     0.060 A 
HETATM   27  C   UNL     1      39.928 -14.520   4.631  1.00  0.00     0.073 C 
ENDBRANCH  19  20
ENDBRANCH   1  19
TORSDOF 5
ENDMDL
MODEL 7
REMARK VINA RESULT:      -7.4      1.682      2.779
REMARK  5 active torsions:
REMARK  status: ('A' for Active; 'I' for Inactive)
REMARK    1  A    between atoms: C_8  and  C_9 
REMARK    2  A    between atoms: C_9  and  N_10 
REMARK       I    between atoms: N_10  and  C_11 
REMARK       I    between atoms: C_11  and  N_12 
REMARK    3  A    between atoms: C_13  and  C_14 
REMARK    4  A    between atoms: C_14  and  C_15 
REMARK    5  A    between atoms: C_15  and  C_16 
ROOT
HETATM    1  N   UNL     1      41.898 -13.315   4.168  1.00  0.00    -0.339 N 
HETATM    2  C   UNL     1      40.680 -12.944   3.675  1.00  0.00     0.318 C 
HETATM    3  N   UNL     1      40.556 -13.214   2.308  1.00  0.00    -0.330 N 
HETATM    4  C   UNL     1      40.573 -14.606   1.768  1.00  0.00     0.089 C 
HETATM    5  C   UNL     1      39.134 -15.172   1.769  1.00  0.00     0.025 C 
HETATM    6  C   UNL     1      38.159 -14.249   1.036  1.00  0.00     0.004 C 
HETATM    7  C   UNL     1      38.216 -12.833   1.594  1.00  0.00     0.020 C 
HETATM    8  C   UNL     1      39.652 -12.318   1.589  1.00  0.00     0.128 C 
HETATM    9  O   UNL     1      39.843 -12.339   4.335  1.00  0.00    -0.247 OA
HETATM   10  H   UNL     1      42.626 -13.344   3.470  1.00  0.00     0.164 HD
ENDROOT
BRANCH   4  11
HETATM   11  C   UNL     1      41.559 -15.577   2.451  1.00  0.00     0.030 C 
BRANCH  11  12
HETATM   12  C   UNL     1      41.002 -16.979   2.724  1.00  0.00     0.040 C 
BRANCH  12  13
HETATM   13  C   UNL     1      42.128 -17.978   2.854  1.00  0.00    -0.058 A 
HETATM   14  C   UNL     1      42.720 -18.215   4.103  1.00  0.00     0.007 A 
HETATM   15  C   UNL     1      43.790 -19.102   4.223  1.00  0.00     0.001 A 
HETATM   16  C   UNL     1      44.284 -19.754   3.095  1.00  0.00     0.000 A 
HETATM   17  C   UNL     1      43.708 -19.521   1.847  1.00  0.00     0.001 A 
HETATM   18  C   UNL     1      42.635 -18.637   1.726  1.00  0.00     0.007 A 
ENDBRANCH  12  13
ENDBRANCH  11  12
ENDBRANCH   4  11
BRANCH   1  19
HETATM   19  C   UNL     1      42.308 -13.042   5.524  1.00  0.00     0.167 C 
BRANCH  19  20
HETATM   20  C   UNL     1      42.718 -14.336   6.137  1.00  0.00     0.009 A 
HETATM   21  C   UNL     1      41.936 -15.458   6.351  1.00  0.00     0.034 A 
HETATM   22  C   UNL     1      40.514 -15.734   6.045  1.00  0.00     0.070 C 
HETATM   23  N   UNL     1      42.748 -16.371   6.960  1.00  0.00    -0.282 N 
HETATM   24  H   UNL     1      42.517 -17.310   7.265  1.00  0.00     0.189 HD
HETATM   25  N   UNL     1      43.993 -15.925   7.176  1.00  0.00    -0.179 NA
HETATM   26  C   UNL     1      43.989 -14.683   6.678  1.00  0.00     0.060 A 
HETATM   27  C   UNL     1      45.211 -13.843   6.753  1.00  0.00     0.073 C 
ENDBRANCH  19  20
ENDBRANCH   1  19
TORSDOF 5
ENDMDL
MODEL 8
REMARK VINA RESULT:      -7.4      2.536      5.821
REMARK  5 active torsions:
REMARK  status: ('A' for Active; 'I' for Inactive)
REMARK    1  A    between atoms: C_8  and  C_9 
REMARK    2  A    between atoms: C_9  and  N_10 
REMARK       I    between atoms: N_10  and  C_11 
REMARK       I    between atoms: C_11  and  N_12 
REMARK    3  A    between atoms: C_13  and  C_14 
REMARK    4  A    between atoms: C_14  and  C_15 
REMARK    5  A    between atoms: C_15  and  C_16 
ROOT
HETATM    1  N   UNL     1      39.892 -14.836   0.409  1.00  0.00    -0.339 N 
HETATM    2  C   UNL     1      40.028 -14.044   1.513  1.00  0.00     0.318 C 
HETATM    3  N   UNL     1      40.383 -14.776   2.651  1.00  0.00    -0.330 N 
HETATM    4  C   UNL     1      41.689 -15.492   2.760  1.00  0.00     0.089 C 
HETATM    5  C   UNL     1      42.754 -14.531   3.335  1.00  0.00     0.025 C 
HETATM    6  C   UNL     1      42.298 -13.900   4.653  1.00  0.00     0.004 C 
HETATM    7  C   UNL     1      40.941 -13.224   4.499  1.00  0.00     0.020 C 
HETATM    8  C   UNL     1      39.926 -14.200   3.914  1.00  0.00     0.128 C 
HETATM    9  O   UNL     1      39.755 -12.849   1.522  1.00  0.00    -0.247 OA
HETATM   10  H   UNL     1      39.676 -15.797   0.624  1.00  0.00     0.164 HD
ENDROOT
BRANCH   4  11
HETATM   11  C   UNL     1      42.188 -16.174   1.468  1.00  0.00     0.030 C 
BRANCH  11  12
HETATM   12  C   UNL     1      41.857 -17.666   1.354  1.00  0.00     0.040 C 
BRANCH  12  13
HETATM   13  C   UNL     1      42.829 -18.486   2.170  1.00  0.00    -0.058 A 
HETATM   14  C   UNL     1      43.274 -19.729   1.697  1.00  0.00     0.007 A 
HETATM   15  C   UNL     1      44.136 -20.512   2.466  1.00  0.00     0.001 A 
HETATM   16  C   UNL     1      44.555 -20.065   3.717  1.00  0.00     0.000 A 
HETATM   17  C   UNL     1      44.113 -18.834   4.200  1.00  0.00     0.001 A 
HETATM   18  C   UNL     1      43.254 -18.047   3.431  1.00  0.00     0.007 A 
ENDBRANCH  12  13
ENDBRANCH  11  12
ENDBRANCH   4  11
BRANCH   1  19
HETATM   19  C   UNL     1      39.428 -14.332  -0.861  1.00  0.00     0.167 C 
BRANCH  19  20
HETATM   20  C   UNL     1      40.552 -14.454  -1.829  1.00  0.00     0.009 A 
HETATM   21  C   UNL     1      41.701 -13.685  -1.896  1.00  0.00     0.034 A 
HETATM   22  C   UNL     1      42.173 -12.556  -1.061  1.00  0.00     0.070 C 
HETATM   23  N   UNL     1      42.410 -14.159  -2.962  1.00  0.00    -0.282 N 
HETATM   24  H   UNL     1      43.305 -13.837  -3.312  1.00  0.00     0.189 HD
HETATM   25  N   UNL     1      41.803 -15.165  -3.607  1.00  0.00    -0.179 NA
HETATM   26  C   UNL     1      40.668 -15.356  -2.925  1.00  0.00     0.060 A 
HETATM   27  C   UNL     1      39.701 -16.396  -3.359  1.00  0.00     0.073 C 
ENDBRANCH  19  20
ENDBRANCH   1  19
TORSDOF 5
ENDMDL
MODEL 9
REMARK VINA RESULT:      -7.4      2.060      5.756
REMARK  5 active torsions:
REMARK  status: ('A' for Active; 'I' for Inactive)
REMARK    1  A    between atoms: C_8  and  C_9 
REMARK    2  A    between atoms: C_9  and  N_10 
REMARK       I    between atoms: N_10  and  C_11 
REMARK       I    between atoms: C_11  and  N_12 
REMARK    3  A    between atoms: C_13  and  C_14 
REMARK    4  A    between atoms: C_14  and  C_15 
REMARK    5  A    between atoms: C_15  and  C_16 
ROOT
HETATM    1  N   UNL     1      41.376 -14.753   1.067  1.00  0.00    -0.339 N 
HETATM    2  C   UNL     1      41.270 -14.245   2.330  1.00  0.00     0.318 C 
HETATM    3  N   UNL     1      41.070 -15.243   3.290  1.00  0.00    -0.330 N 
HETATM    4  C   UNL     1      42.101 -16.283   3.581  1.00  0.00     0.089 C 
HETATM    5  C   UNL     1      43.064 -15.759   4.670  1.00  0.00     0.025 C 
HETATM    6  C   UNL     1      42.311 -15.288   5.916  1.00  0.00     0.004 C 
HETATM    7  C   UNL     1      41.242 -14.263   5.558  1.00  0.00     0.020 C 
HETATM    8  C   UNL     1      40.324 -14.813   4.470  1.00  0.00     0.128 C 
HETATM    9  O   UNL     1      41.240 -13.044   2.571  1.00  0.00    -0.247 OA
HETATM   10  H   UNL     1      40.923 -15.647   0.951  1.00  0.00     0.164 HD
ENDROOT
BRANCH   4  11
HETATM   11  C   UNL     1      42.875 -16.819   2.357  1.00  0.00     0.030 C 
BRANCH  11  12
HETATM   12  C   UNL     1      42.382 -18.167   1.819  1.00  0.00     0.040 C 
BRANCH  12  13
HETATM   13  C   UNL     1      43.201 -19.298   2.399  1.00  0.00    -0.058 A 
HETATM   14  C   UNL     1      43.921 -19.109   3.588  1.00  0.00     0.007 A 
HETATM   15  C   UNL     1      44.715 -20.134   4.104  1.00  0.00     0.001 A 
HETATM   16  C   UNL     1      44.802 -21.352   3.435  1.00  0.00     0.000 A 
HETATM   17  C   UNL     1      44.096 -21.548   2.249  1.00  0.00     0.001 A 
HETATM   18  C   UNL     1      43.298 -20.526   1.732  1.00  0.00     0.007 A 
ENDBRANCH  12  13
ENDBRANCH  11  12
ENDBRANCH   4  11
BRANCH   1  19
HETATM   19  C   UNL     1      41.477 -13.918  -0.105  1.00  0.00     0.167 C 
BRANCH  19  20
HETATM   20  C   UNL     1      40.260 -14.154  -0.930  1.00  0.00     0.009 A 
HETATM   21  C   UNL     1      38.952 -13.813  -0.628  1.00  0.00     0.034 A 
HETATM   22  C   UNL     1      38.365 -13.127   0.546  1.00  0.00     0.070 C 
HETATM   23  N   UNL     1      38.197 -14.257  -1.675  1.00  0.00    -0.282 N 
HETATM   24  H   UNL     1      37.194 -14.182  -1.799  1.00  0.00     0.189 HD
HETATM   25  N   UNL     1      38.908 -14.878  -2.626  1.00  0.00    -0.179 NA
HETATM   26  C   UNL     1      40.170 -14.820  -2.184  1.00  0.00     0.060 A 
HETATM   27  C   UNL     1      41.267 -15.433  -2.975  1.00  0.00     0.073 C 
ENDBRANCH  19  20
ENDBRANCH   1  19
TORSDOF 5
ENDMDL
MODEL 10
REMARK VINA RESULT:      -7.1      2.339      5.724
REMARK  5 active torsions:
REMARK  status: ('A' for Active; 'I' for Inactive)
REMARK    1  A    between atoms: C_8  and  C_9 
REMARK    2  A    between atoms: C_9  and  N_10 
REMARK       I    between atoms: N_10  and  C_11 
REMARK       I    between atoms: C_11  and  N_12 
REMARK    3  A    between atoms: C_13  and  C_14 
REMARK    4  A    between atoms: C_14  and  C_15 
REMARK    5  A    between atoms: C_15  and  C_16 
ROOT
HETATM    1  N   UNL     1      42.441 -14.658   6.161  1.00  0.00    -0.339 N 
HETATM    2  C   UNL     1      43.376 -15.578   6.541  1.00  0.00     0.318 C 
HETATM    3  N   UNL     1      42.849 -16.872   6.613  1.00  0.00    -0.330 N 
HETATM    4  C   UNL     1      42.342 -17.592   5.407  1.00  0.00     0.089 C 
HETATM    5  C   UNL     1      43.508 -18.358   4.740  1.00  0.00     0.025 C 
HETATM    6  C   UNL     1      44.230 -19.273   5.732  1.00  0.00     0.004 C 
HETATM    7  C   UNL     1      44.684 -18.499   6.964  1.00  0.00     0.020 C 
HETATM    8  C   UNL     1      43.509 -17.746   7.580  1.00  0.00     0.128 C 
HETATM    9  O   UNL     1      44.512 -15.278   6.888  1.00  0.00    -0.247 OA
HETATM   10  H   UNL     1      41.493 -14.935   6.368  1.00  0.00     0.164 HD
ENDROOT
BRANCH   4  11
HETATM   11  C   UNL     1      41.581 -16.726   4.381  1.00  0.00     0.030 C 
BRANCH  11  12
HETATM   12  C   UNL     1      41.153 -17.460   3.105  1.00  0.00     0.040 C 
BRANCH  12  13
HETATM   13  C   UNL     1      40.820 -16.469   2.013  1.00  0.00    -0.058 A 
HETATM   14  C   UNL     1      41.612 -16.403   0.857  1.00  0.00     0.007 A 
HETATM   15  C   UNL     1      41.339 -15.460  -0.135  1.00  0.00     0.001 A 
HETATM   16  C   UNL     1      40.278 -14.571   0.022  1.00  0.00     0.000 A 
HETATM   17  C   UNL     1      39.489 -14.624   1.170  1.00  0.00     0.001 A 
HETATM   18  C   UNL     1      39.758 -15.568   2.162  1.00  0.00     0.007 A 
ENDBRANCH  12  13
ENDBRANCH  11  12
ENDBRANCH   4  11
BRANCH   1  19
HETATM   19  C   UNL     1      42.711 -13.242   6.118  1.00  0.00     0.167 C 
BRANCH  19  20
HETATM   20  C   UNL     1      41.882 -12.661   5.026  1.00  0.00     0.009 A 
HETATM   21  C   UNL     1      42.045 -12.824   3.660  1.00  0.00     0.034 A 
HETATM   22  C   UNL     1      43.033 -13.602   2.878  1.00  0.00     0.070 C 
HETATM   23  N   UNL     1      41.063 -12.079   3.073  1.00  0.00    -0.282 N 
HETATM   24  H   UNL     1      40.873 -11.961   2.085  1.00  0.00     0.189 HD
HETATM   25  N   UNL     1      40.286 -11.427   3.949  1.00  0.00    -0.179 NA
HETATM   26  C   UNL     1      40.775 -11.775   5.145  1.00  0.00     0.060 A 
HETATM   27  C   UNL     1      40.174 -11.224   6.386  1.00  0.00     0.073 C 
ENDBRANCH  19  20
ENDBRANCH   1  19
TORSDOF 5
ENDMDL
