MODEL 1
REMARK VINA RESULT:      -9.2      0.000      0.000
REMARK  10 active torsions:
REMARK  status: ('A' for Active; 'I' for Inactive)
REMARK    1  A    between atoms: C_4  and  C_5 
REMARK    2  A    between atoms: C_8  and  N_9 
REMARK    3  A    between atoms: C_15  and  C_16 
REMARK    4  A    between atoms: C_19  and  C_20 
REMARK    5  A    between atoms: C_20  and  N_21 
REMARK    6  A    between atoms: N_21  and  C_22 
REMARK    7  A    between atoms: C_22  and  N_23 
REMARK    8  A    between atoms: N_23  and  C_24 
REMARK    9  A    between atoms: C_26  and  C_27 
REMARK   10  A    between atoms: C_27  and  O_28 
ROOT
HETATM    1  C   UNL     1      40.243 -12.396   3.757  1.00  0.00     0.067 C 
HETATM    2  C   UNL     1      41.417 -11.703   4.471  1.00  0.00     0.001 C 
HETATM    3  C   UNL     1      41.403 -11.985   5.988  1.00  0.00     0.040 C 
HETATM    4  C   UNL     1      40.153 -11.405   6.666  1.00  0.00     0.206 C 
HETATM    5  N   UNL     1      39.190 -11.010   5.553  1.00  0.00    -0.065 N 
HETATM    6  H   UNL     1      38.285 -10.739   5.963  1.00  0.00     0.280 HD
HETATM    7  C   UNL     1      38.949 -12.161   4.573  1.00  0.00     0.246 C 
HETATM    8  C   UNL     1      41.176 -10.177   4.321  1.00  0.00     0.033 C 
HETATM    9  C   UNL     1      39.763  -9.810   4.806  1.00  0.00     0.236 C 
ENDROOT
BRANCH   4  10
HETATM   10  C   UNL     1      39.518 -12.351   7.709  1.00  0.00     0.155 C 
BRANCH  10  11
HETATM   11  N   UNL     1      38.963 -11.622   8.848  1.00  0.00    -0.365 N 
HETATM   12  H   UNL     1      38.149 -12.019   9.310  1.00  0.00     0.161 HD
BRANCH  11  13
HETATM   13  C   UNL     1      39.651 -10.775   9.678  1.00  0.00     0.172 C 
HETATM   14  S   UNL     1      39.564  -9.112   9.634  1.00  0.00    -0.041 SA
BRANCH  13  15
HETATM   15  N   UNL     1      40.511 -11.369  10.564  1.00  0.00    -0.333 N 
HETATM   16  H   UNL     1      40.146 -12.227  10.972  1.00  0.00     0.168 HD
BRANCH  15  17
HETATM   17  C   UNL     1      41.850 -11.060  10.887  1.00  0.00     0.035 A 
HETATM   18  C   UNL     1      42.931 -11.410  10.075  1.00  0.00     0.047 A 
HETATM   19  C   UNL     1      44.247 -11.074  10.431  1.00  0.00     0.041 A 
HETATM   20  C   UNL     1      44.482 -10.406  11.636  1.00  0.00     0.018 A 
HETATM   21  C   UNL     1      43.410 -10.095  12.476  1.00  0.00     0.003 A 
HETATM   22  C   UNL     1      42.103 -10.428  12.106  1.00  0.00     0.029 A 
BRANCH  19  23
HETATM   23  C   UNL     1      45.332 -11.450   9.486  1.00  0.00     0.293 C 
HETATM   24  O   UNL     1      46.158 -10.649   9.069  1.00  0.00    -0.259 OA
BRANCH  23  25
HETATM   25  O   UNL     1      45.300 -12.775   9.218  1.00  0.00    -0.323 OA
HETATM   26  C   UNL     1      45.452 -13.102   7.834  1.00  0.00     0.213 C 
ENDBRANCH  23  25
ENDBRANCH  19  23
ENDBRANCH  15  17
ENDBRANCH  13  15
ENDBRANCH  11  13
ENDBRANCH  10  11
ENDBRANCH   4  10
BRANCH   1  27
HETATM   27  C   UNL     1      40.338 -13.818   3.280  1.00  0.00     0.038 C 
HETATM   28  N   UNL     1      39.650 -14.514   2.312  1.00  0.00    -0.277 N 
HETATM   29  C   UNL     1      38.477 -14.174   1.542  1.00  0.00     0.179 C 
HETATM   30  N   UNL     1      40.200 -15.712   2.038  1.00  0.00    -0.172 NA
HETATM   31  C   UNL     1      41.141 -15.901   2.968  1.00  0.00     0.089 C 
HETATM   32  C   UNL     1      41.248 -14.746   3.773  1.00  0.00     0.061 C 
BRANCH  31  33
HETATM   33  C   UNL     1      41.951 -17.115   3.040  1.00  0.00    -0.005 A 
HETATM   34  C   UNL     1      42.339 -17.785   1.880  1.00  0.00     0.016 A 
HETATM   35  C   UNL     1      43.188 -18.902   1.948  1.00  0.00     0.030 A 
HETATM   36  C   UNL     1      43.664 -19.408   3.170  1.00  0.00     0.029 A 
HETATM   37  C   UNL     1      43.238 -18.729   4.325  1.00  0.00     0.030 A 
HETATM   38  C   UNL     1      42.399 -17.606   4.268  1.00  0.00     0.016 A 
BRANCH  36  39
HETATM   39  N   UNL     1      44.550 -20.487   3.248  1.00  0.00    -0.390 N 
HETATM   40  C   UNL     1      44.400 -21.611   2.325  1.00  0.00     0.149 C 
HETATM   41  C   UNL     1      45.103 -20.824   4.560  1.00  0.00     0.149 C 
ENDBRANCH  36  39
ENDBRANCH  31  33
ENDBRANCH   1  27
TORSDOF 10
ENDMDL
MODEL 2
REMARK VINA RESULT:      -8.9      4.377      7.910
REMARK  10 active torsions:
REMARK  status: ('A' for Active; 'I' for Inactive)
REMARK    1  A    between atoms: C_4  and  C_5 
REMARK    2  A    between atoms: C_8  and  N_9 
REMARK    3  A    between atoms: C_15  and  C_16 
REMARK    4  A    between atoms: C_19  and  C_20 
REMARK    5  A    between atoms: C_20  and  N_21 
REMARK    6  A    between atoms: N_21  and  C_22 
REMARK    7  A    between atoms: C_22  and  N_23 
REMARK    8  A    between atoms: N_23  and  C_24 
REMARK    9  A    between atoms: C_26  and  C_27 
REMARK   10  A    between atoms: C_27  and  O_28 
ROOT
HETATM    1  C   UNL     1      41.808 -13.264   5.841  1.00  0.00     0.067 C 
HETATM    2  C   UNL     1      40.329 -13.484   6.208  1.00  0.00     0.001 C 
HETATM    3  C   UNL     1      39.500 -13.916   4.981  1.00  0.00     0.040 C 
HETATM    4  C   UNL     1      39.463 -12.825   3.901  1.00  0.00     0.206 C 
HETATM    5  N   UNL     1      40.522 -11.795   4.278  1.00  0.00    -0.065 N 
HETATM    6  H   UNL     1      40.625 -11.113   3.514  1.00  0.00     0.280 HD
HETATM    7  C   UNL     1      41.884 -12.445   4.531  1.00  0.00     0.246 C 
HETATM    8  C   UNL     1      39.776 -12.095   6.625  1.00  0.00     0.033 C 
HETATM    9  C   UNL     1      40.066 -11.054   5.531  1.00  0.00     0.236 C 
ENDROOT
BRANCH   4  10
HETATM   10  C   UNL     1      39.631 -13.367   2.464  1.00  0.00     0.155 C 
BRANCH  10  11
HETATM   11  N   UNL     1      39.982 -14.785   2.448  1.00  0.00    -0.365 N 
HETATM   12  H   UNL     1      39.661 -15.358   3.224  1.00  0.00     0.161 HD
BRANCH  11  13
HETATM   13  C   UNL     1      40.236 -15.541   1.333  1.00  0.00     0.172 C 
HETATM   14  S   UNL     1      41.005 -17.019   1.334  1.00  0.00    -0.041 SA
BRANCH  13  15
HETATM   15  N   UNL     1      39.869 -14.988   0.134  1.00  0.00    -0.333 N 
HETATM   16  H   UNL     1      38.862 -14.883   0.026  1.00  0.00     0.168 HD
BRANCH  15  17
HETATM   17  C   UNL     1      40.655 -14.423  -0.893  1.00  0.00     0.035 A 
HETATM   18  C   UNL     1      41.345 -13.217  -0.749  1.00  0.00     0.047 A 
HETATM   19  C   UNL     1      42.123 -12.696  -1.795  1.00  0.00     0.041 A 
HETATM   20  C   UNL     1      42.183 -13.380  -3.013  1.00  0.00     0.018 A 
HETATM   21  C   UNL     1      41.457 -14.562  -3.179  1.00  0.00     0.003 A 
HETATM   22  C   UNL     1      40.692 -15.075  -2.127  1.00  0.00     0.029 A 
BRANCH  19  23
HETATM   23  C   UNL     1      42.858 -11.427  -1.540  1.00  0.00     0.293 C 
HETATM   24  O   UNL     1      43.339 -11.145  -0.452  1.00  0.00    -0.259 OA
BRANCH  23  25
HETATM   25  O   UNL     1      42.957 -10.693  -2.672  1.00  0.00    -0.323 OA
HETATM   26  C   UNL     1      42.965  -9.278  -2.458  1.00  0.00     0.213 C 
ENDBRANCH  23  25
ENDBRANCH  19  23
ENDBRANCH  15  17
ENDBRANCH  13  15
ENDBRANCH  11  13
ENDBRANCH  10  11
ENDBRANCH   4  10
BRANCH   1  27
HETATM   27  C   UNL     1      42.795 -14.397   5.836  1.00  0.00     0.038 C 
HETATM   28  N   UNL     1      43.862 -14.694   6.655  1.00  0.00    -0.277 N 
HETATM   29  C   UNL     1      44.514 -13.929   7.691  1.00  0.00     0.179 C 
HETATM   30  N   UNL     1      44.354 -15.930   6.446  1.00  0.00    -0.172 NA
HETATM   31  C   UNL     1      43.742 -16.384   5.348  1.00  0.00     0.089 C 
HETATM   32  C   UNL     1      42.772 -15.449   4.927  1.00  0.00     0.061 C 
BRANCH  31  33
HETATM   33  C   UNL     1      44.030 -17.691   4.764  1.00  0.00    -0.005 A 
HETATM   34  C   UNL     1      44.486 -18.744   5.558  1.00  0.00     0.016 A 
HETATM   35  C   UNL     1      44.680 -20.023   5.009  1.00  0.00     0.030 A 
HETATM   36  C   UNL     1      44.453 -20.298   3.650  1.00  0.00     0.029 A 
HETATM   37  C   UNL     1      44.018 -19.213   2.868  1.00  0.00     0.030 A 
HETATM   38  C   UNL     1      43.810 -17.935   3.407  1.00  0.00     0.016 A 
BRANCH  36  39
HETATM   39  N   UNL     1      44.594 -21.577   3.103  1.00  0.00    -0.390 N 
HETATM   40  C   UNL     1      43.995 -21.876   1.804  1.00  0.00     0.149 C 
HETATM   41  C   UNL     1      44.683 -22.708   4.028  1.00  0.00     0.149 C 
ENDBRANCH  36  39
ENDBRANCH  31  33
ENDBRANCH   1  27
TORSDOF 10
ENDMDL
MODEL 3
REMARK VINA RESULT:      -8.8      4.862      8.545
REMARK  10 active torsions:
REMARK  status: ('A' for Active; 'I' for Inactive)
REMARK    1  A    between atoms: C_4  and  C_5 
REMARK    2  A    between atoms: C_8  and  N_9 
REMARK    3  A    between atoms: C_15  and  C_16 
REMARK    4  A    between atoms: C_19  and  C_20 
REMARK    5  A    between atoms: C_20  and  N_21 
REMARK    6  A    between atoms: N_21  and  C_22 
REMARK    7  A    between atoms: C_22  and  N_23 
REMARK    8  A    between atoms: N_23  and  C_24 
REMARK    9  A    between atoms: C_26  and  C_27 
REMARK   10  A    between atoms: C_27  and  O_28 
ROOT
HETATM    1  C   UNL     1      41.822 -13.134   5.737  1.00  0.00     0.067 C 
HETATM    2  C   UNL     1      40.326 -13.294   6.064  1.00  0.00     0.001 C 
HETATM    3  C   UNL     1      39.510 -13.667   4.810  1.00  0.00     0.040 C 
HETATM    4  C   UNL     1      39.548 -12.557   3.750  1.00  0.00     0.206 C 
HETATM    5  N   UNL     1      40.641 -11.582   4.171  1.00  0.00    -0.065 N 
HETATM    6  H   UNL     1      40.793 -10.892   3.422  1.00  0.00     0.280 HD
HETATM    7  C   UNL     1      41.967 -12.296   4.445  1.00  0.00     0.246 C 
HETATM    8  C   UNL     1      39.825 -11.889   6.494  1.00  0.00     0.033 C 
HETATM    9  C   UNL     1      40.188 -10.843   5.427  1.00  0.00     0.236 C 
ENDROOT
BRANCH   4  10
HETATM   10  C   UNL     1      39.727 -13.080   2.308  1.00  0.00     0.155 C 
BRANCH  10  11
HETATM   11  N   UNL     1      39.840 -14.536   2.260  1.00  0.00    -0.365 N 
HETATM   12  H   UNL     1      39.028 -15.081   2.539  1.00  0.00     0.161 HD
BRANCH  11  13
HETATM   13  C   UNL     1      40.674 -15.255   1.443  1.00  0.00     0.172 C 
HETATM   14  S   UNL     1      40.862 -16.910   1.486  1.00  0.00    -0.041 SA
BRANCH  13  15
HETATM   15  N   UNL     1      41.439 -14.526   0.571  1.00  0.00    -0.333 N 
HETATM   16  H   UNL     1      42.320 -14.210   0.970  1.00  0.00     0.168 HD
BRANCH  15  17
HETATM   17  C   UNL     1      41.264 -14.270  -0.806  1.00  0.00     0.035 A 
HETATM   18  C   UNL     1      40.314 -14.928  -1.590  1.00  0.00     0.047 A 
HETATM   19  C   UNL     1      40.169 -14.635  -2.955  1.00  0.00     0.041 A 
HETATM   20  C   UNL     1      41.014 -13.692  -3.548  1.00  0.00     0.018 A 
HETATM   21  C   UNL     1      41.998 -13.066  -2.780  1.00  0.00     0.003 A 
HETATM   22  C   UNL     1      42.127 -13.360  -1.419  1.00  0.00     0.029 A 
BRANCH  19  23
HETATM   23  C   UNL     1      39.103 -15.354  -3.704  1.00  0.00     0.293 C 
HETATM   24  O   UNL     1      39.341 -16.137  -4.613  1.00  0.00    -0.259 OA
BRANCH  23  25
HETATM   25  O   UNL     1      37.882 -15.065  -3.199  1.00  0.00    -0.323 OA
HETATM   26  C   UNL     1      37.265 -13.909  -3.773  1.00  0.00     0.213 C 
ENDBRANCH  23  25
ENDBRANCH  19  23
ENDBRANCH  15  17
ENDBRANCH  13  15
ENDBRANCH  11  13
ENDBRANCH  10  11
ENDBRANCH   4  10
BRANCH   1  27
HETATM   27  C   UNL     1      42.758 -14.310   5.735  1.00  0.00     0.038 C 
HETATM   28  N   UNL     1      43.851 -14.620   6.513  1.00  0.00    -0.277 N 
HETATM   29  C   UNL     1      44.587 -13.841   7.480  1.00  0.00     0.179 C 
HETATM   30  N   UNL     1      44.278 -15.884   6.336  1.00  0.00    -0.172 NA
HETATM   31  C   UNL     1      43.593 -16.357   5.291  1.00  0.00     0.089 C 
HETATM   32  C   UNL     1      42.643 -15.398   4.877  1.00  0.00     0.061 C 
BRANCH  31  33
HETATM   33  C   UNL     1      43.794 -17.700   4.753  1.00  0.00    -0.005 A 
HETATM   34  C   UNL     1      43.792 -17.926   3.377  1.00  0.00     0.016 A 
HETATM   35  C   UNL     1      44.071 -19.202   2.859  1.00  0.00     0.030 A 
HETATM   36  C   UNL     1      44.338 -20.304   3.689  1.00  0.00     0.029 A 
HETATM   37  C   UNL     1      44.310 -20.054   5.072  1.00  0.00     0.030 A 
HETATM   38  C   UNL     1      44.044 -18.782   5.599  1.00  0.00     0.016 A 
BRANCH  36  39
HETATM   39  N   UNL     1      44.667 -21.566   3.185  1.00  0.00    -0.390 N 
HETATM   40  C   UNL     1      44.296 -21.915   1.815  1.00  0.00     0.149 C 
HETATM   41  C   UNL     1      44.712 -22.687   4.126  1.00  0.00     0.149 C 
ENDBRANCH  36  39
ENDBRANCH  31  33
ENDBRANCH   1  27
TORSDOF 10
ENDMDL
MODEL 4
REMARK VINA RESULT:      -8.7      2.824      4.479
REMARK  10 active torsions:
REMARK  status: ('A' for Active; 'I' for Inactive)
REMARK    1  A    between atoms: C_4  and  C_5 
REMARK    2  A    between atoms: C_8  and  N_9 
REMARK    3  A    between atoms: C_15  and  C_16 
REMARK    4  A    between atoms: C_19  and  C_20 
REMARK    5  A    between atoms: C_20  and  N_21 
REMARK    6  A    between atoms: N_21  and  C_22 
REMARK    7  A    between atoms: C_22  and  N_23 
REMARK    8  A    between atoms: N_23  and  C_24 
REMARK    9  A    between atoms: C_26  and  C_27 
REMARK   10  A    between atoms: C_27  and  O_28 
ROOT
HETATM    1  C   UNL     1      39.591 -13.026  -0.428  1.00  0.00     0.067 C 
HETATM    2  C   UNL     1      40.335 -11.709  -0.143  1.00  0.00     0.001 C 
HETATM    3  C   UNL     1      40.353 -11.383   1.364  1.00  0.00     0.040 C 
HETATM    4  C   UNL     1      38.939 -11.146   1.916  1.00  0.00     0.206 C 
HETATM    5  N   UNL     1      37.963 -11.619   0.846  1.00  0.00    -0.065 N 
HETATM    6  H   UNL     1      37.005 -11.603   1.224  1.00  0.00     0.280 HD
HETATM    7  C   UNL     1      38.272 -13.044   0.381  1.00  0.00     0.246 C 
HETATM    8  C   UNL     1      39.494 -10.586  -0.809  1.00  0.00     0.033 C 
HETATM    9  C   UNL     1      38.031 -10.666  -0.342  1.00  0.00     0.236 C 
ENDROOT
BRANCH   4  10
HETATM   10  C   UNL     1      38.692 -11.802   3.293  1.00  0.00     0.155 C 
BRANCH  10  11
HETATM   11  N   UNL     1      39.787 -12.686   3.687  1.00  0.00    -0.365 N 
HETATM   12  H   UNL     1      40.678 -12.573   3.210  1.00  0.00     0.161 HD
BRANCH  11  13
HETATM   13  C   UNL     1      39.941 -13.284   4.911  1.00  0.00     0.172 C 
HETATM   14  S   UNL     1      39.477 -12.619   6.366  1.00  0.00    -0.041 SA
BRANCH  13  15
HETATM   15  N   UNL     1      40.579 -14.497   4.912  1.00  0.00    -0.333 N 
HETATM   16  H   UNL     1      40.322 -15.093   4.127  1.00  0.00     0.168 HD
BRANCH  15  17
HETATM   17  C   UNL     1      41.620 -14.983   5.733  1.00  0.00     0.035 A 
HETATM   18  C   UNL     1      42.788 -14.262   5.992  1.00  0.00     0.047 A 
HETATM   19  C   UNL     1      43.793 -14.781   6.822  1.00  0.00     0.041 A 
HETATM   20  C   UNL     1      43.637 -16.056   7.373  1.00  0.00     0.018 A 
HETATM   21  C   UNL     1      42.493 -16.802   7.080  1.00  0.00     0.003 A 
HETATM   22  C   UNL     1      41.495 -16.270   6.258  1.00  0.00     0.029 A 
BRANCH  19  23
HETATM   23  C   UNL     1      44.984 -13.926   7.076  1.00  0.00     0.293 C 
HETATM   24  O   UNL     1      45.737 -13.553   6.187  1.00  0.00    -0.259 OA
BRANCH  23  25
HETATM   25  O   UNL     1      45.065 -13.589   8.384  1.00  0.00    -0.323 OA
HETATM   26  C   UNL     1      44.615 -12.265   8.681  1.00  0.00     0.213 C 
ENDBRANCH  23  25
ENDBRANCH  19  23
ENDBRANCH  15  17
ENDBRANCH  13  15
ENDBRANCH  11  13
ENDBRANCH  10  11
ENDBRANCH   4  10
BRANCH   1  27
HETATM   27  C   UNL     1      40.291 -14.355  -0.363  1.00  0.00     0.038 C 
HETATM   28  N   UNL     1      40.744 -15.207  -1.346  1.00  0.00    -0.277 N 
HETATM   29  C   UNL     1      40.545 -15.209  -2.776  1.00  0.00     0.179 C 
HETATM   30  N   UNL     1      41.523 -16.193  -0.865  1.00  0.00    -0.172 NA
HETATM   31  C   UNL     1      41.427 -16.117   0.466  1.00  0.00     0.089 C 
HETATM   32  C   UNL     1      40.653 -14.990   0.819  1.00  0.00     0.061 C 
BRANCH  31  33
HETATM   33  C   UNL     1      42.105 -17.048   1.364  1.00  0.00    -0.005 A 
HETATM   34  C   UNL     1      43.324 -17.624   1.009  1.00  0.00     0.016 A 
HETATM   35  C   UNL     1      44.015 -18.452   1.910  1.00  0.00     0.030 A 
HETATM   36  C   UNL     1      43.511 -18.756   3.186  1.00  0.00     0.029 A 
HETATM   37  C   UNL     1      42.269 -18.181   3.509  1.00  0.00     0.030 A 
HETATM   38  C   UNL     1      41.576 -17.345   2.622  1.00  0.00     0.016 A 
BRANCH  36  39
HETATM   39  N   UNL     1      44.212 -19.536   4.110  1.00  0.00    -0.390 N 
HETATM   40  C   UNL     1      44.840 -18.897   5.264  1.00  0.00     0.149 C 
HETATM   41  C   UNL     1      44.886 -20.739   3.616  1.00  0.00     0.149 C 
ENDBRANCH  36  39
ENDBRANCH  31  33
ENDBRANCH   1  27
TORSDOF 10
ENDMDL
MODEL 5
REMARK VINA RESULT:      -8.7      3.070      4.679
REMARK  10 active torsions:
REMARK  status: ('A' for Active; 'I' for Inactive)
REMARK    1  A    between atoms: C_4  and  C_5 
REMARK    2  A    between atoms: C_8  and  N_9 
REMARK    3  A    between atoms: C_15  and  C_16 
REMARK    4  A    between atoms: C_19  and  C_20 
REMARK    5  A    between atoms: C_20  and  N_21 
REMARK    6  A    between atoms: N_21  and  C_22 
REMARK    7  A    between atoms: C_22  and  N_23 
REMARK    8  A    between atoms: N_23  and  C_24 
REMARK    9  A    between atoms: C_26  and  C_27 
REMARK   10  A    between atoms: C_27  and  O_28 
ROOT
HETATM    1  C   UNL     1      39.059 -13.680  -0.068  1.00  0.00     0.067 C 
HETATM    2  C   UNL     1      39.501 -12.222  -0.290  1.00  0.00     0.001 C 
HETATM    3  C   UNL     1      39.713 -11.485   1.048  1.00  0.00     0.040 C 
HETATM    4  C   UNL     1      38.408 -11.366   1.849  1.00  0.00     0.206 C 
HETATM    5  N   UNL     1      37.397 -12.294   1.188  1.00  0.00    -0.065 N 
HETATM    6  H   UNL     1      36.549 -12.348   1.769  1.00  0.00     0.280 HD
HETATM    7  C   UNL     1      37.952 -13.710   1.014  1.00  0.00     0.246 C 
HETATM    8  C   UNL     1      38.308 -11.509  -0.982  1.00  0.00     0.033 C 
HETATM    9  C   UNL     1      37.017 -11.721  -0.174  1.00  0.00     0.236 C 
ENDROOT
BRANCH   4  10
HETATM   10  C   UNL     1      38.581 -11.637   3.360  1.00  0.00     0.155 C 
BRANCH  10  11
HETATM   11  N   UNL     1      39.270 -10.544   4.042  1.00  0.00    -0.365 N 
HETATM   12  H   UNL     1      38.739  -9.699   4.232  1.00  0.00     0.161 HD
BRANCH  11  13
HETATM   13  C   UNL     1      40.342 -10.668   4.887  1.00  0.00     0.172 C 
HETATM   14  S   UNL     1      41.329  -9.415   5.372  1.00  0.00    -0.041 SA
BRANCH  13  15
HETATM   15  N   UNL     1      40.634 -11.939   5.307  1.00  0.00    -0.333 N 
HETATM   16  H   UNL     1      39.878 -12.379   5.828  1.00  0.00     0.168 HD
BRANCH  15  17
HETATM   17  C   UNL     1      41.739 -12.768   5.016  1.00  0.00     0.035 A 
HETATM   18  C   UNL     1      42.465 -13.446   5.998  1.00  0.00     0.047 A 
HETATM   19  C   UNL     1      43.553 -14.266   5.661  1.00  0.00     0.041 A 
HETATM   20  C   UNL     1      43.936 -14.382   4.322  1.00  0.00     0.018 A 
HETATM   21  C   UNL     1      43.244 -13.670   3.340  1.00  0.00     0.003 A 
HETATM   22  C   UNL     1      42.157 -12.862   3.687  1.00  0.00     0.029 A 
BRANCH  19  23
HETATM   23  C   UNL     1      44.242 -14.983   6.768  1.00  0.00     0.293 C 
HETATM   24  O   UNL     1      44.563 -16.161   6.699  1.00  0.00    -0.259 OA
BRANCH  23  25
HETATM   25  O   UNL     1      44.501 -14.144   7.797  1.00  0.00    -0.323 OA
HETATM   26  C   UNL     1      45.591 -13.247   7.566  1.00  0.00     0.213 C 
ENDBRANCH  23  25
ENDBRANCH  19  23
ENDBRANCH  15  17
ENDBRANCH  13  15
ENDBRANCH  11  13
ENDBRANCH  10  11
ENDBRANCH   4  10
BRANCH   1  27
HETATM   27  C   UNL     1      40.058 -14.783   0.141  1.00  0.00     0.038 C 
HETATM   28  N   UNL     1      40.877 -15.462  -0.733  1.00  0.00    -0.277 N 
HETATM   29  C   UNL     1      40.933 -15.477  -2.176  1.00  0.00     0.179 C 
HETATM   30  N   UNL     1      41.793 -16.225  -0.107  1.00  0.00    -0.172 NA
HETATM   31  C   UNL     1      41.455 -16.211   1.186  1.00  0.00     0.089 C 
HETATM   32  C   UNL     1      40.365 -15.334   1.379  1.00  0.00     0.061 C 
BRANCH  31  33
HETATM   33  C   UNL     1      42.187 -16.958   2.204  1.00  0.00    -0.005 A 
HETATM   34  C   UNL     1      41.648 -17.150   3.476  1.00  0.00     0.016 A 
HETATM   35  C   UNL     1      42.316 -17.941   4.426  1.00  0.00     0.030 A 
HETATM   36  C   UNL     1      43.553 -18.550   4.157  1.00  0.00     0.029 A 
HETATM   37  C   UNL     1      44.086 -18.321   2.877  1.00  0.00     0.030 A 
HETATM   38  C   UNL     1      43.423 -17.543   1.917  1.00  0.00     0.016 A 
BRANCH  36  39
HETATM   39  N   UNL     1      44.203 -19.380   5.076  1.00  0.00    -0.390 N 
HETATM   40  C   UNL     1      44.975 -20.524   4.594  1.00  0.00     0.149 C 
HETATM   41  C   UNL     1      43.591 -19.548   6.395  1.00  0.00     0.149 C 
ENDBRANCH  36  39
ENDBRANCH  31  33
ENDBRANCH   1  27
TORSDOF 10
ENDMDL
MODEL 6
REMARK VINA RESULT:      -8.7      3.511      5.634
REMARK  10 active torsions:
REMARK  status: ('A' for Active; 'I' for Inactive)
REMARK    1  A    between atoms: C_4  and  C_5 
REMARK    2  A    between atoms: C_8  and  N_9 
REMARK    3  A    between atoms: C_15  and  C_16 
REMARK    4  A    between atoms: C_19  and  C_20 
REMARK    5  A    between atoms: C_20  and  N_21 
REMARK    6  A    between atoms: N_21  and  C_22 
REMARK    7  A    between atoms: C_22  and  N_23 
REMARK    8  A    between atoms: N_23  and  C_24 
REMARK    9  A    between atoms: C_26  and  C_27 
REMARK   10  A    between atoms: C_27  and  O_28 
ROOT
HETATM    1  C   UNL     1      40.603 -13.847  -1.190  1.00  0.00     0.067 C 
HETATM    2  C   UNL     1      41.942 -13.412  -1.813  1.00  0.00     0.001 C 
HETATM    3  C   UNL     1      42.437 -12.078  -1.216  1.00  0.00     0.040 C 
HETATM    4  C   UNL     1      41.479 -10.920  -1.530  1.00  0.00     0.206 C 
HETATM    5  N   UNL     1      40.196 -11.541  -2.069  1.00  0.00    -0.065 N 
HETATM    6  H   UNL     1      39.477 -10.811  -2.168  1.00  0.00     0.280 HD
HETATM    7  C   UNL     1      39.653 -12.626  -1.136  1.00  0.00     0.246 C 
HETATM    8  C   UNL     1      41.649 -13.123  -3.310  1.00  0.00     0.033 C 
HETATM    9  C   UNL     1      40.475 -12.139  -3.444  1.00  0.00     0.236 C 
ENDROOT
BRANCH   4  10
HETATM   10  C   UNL     1      41.238  -9.972  -0.334  1.00  0.00     0.155 C 
BRANCH  10  11
HETATM   11  N   UNL     1      41.689 -10.551   0.928  1.00  0.00    -0.365 N 
HETATM   12  H   UNL     1      42.685 -10.524   1.129  1.00  0.00     0.161 HD
BRANCH  11  13
HETATM   13  C   UNL     1      40.946 -10.669   2.074  1.00  0.00     0.172 C 
HETATM   14  S   UNL     1      40.565  -9.413   3.101  1.00  0.00    -0.041 SA
BRANCH  13  15
HETATM   15  N   UNL     1      40.545 -11.937   2.405  1.00  0.00    -0.333 N 
HETATM   16  H   UNL     1      40.041 -12.412   1.659  1.00  0.00     0.168 HD
BRANCH  15  17
HETATM   17  C   UNL     1      40.840 -12.723   3.540  1.00  0.00     0.035 A 
HETATM   18  C   UNL     1      42.143 -13.009   3.954  1.00  0.00     0.047 A 
HETATM   19  C   UNL     1      42.388 -13.788   5.095  1.00  0.00     0.041 A 
HETATM   20  C   UNL     1      41.310 -14.314   5.811  1.00  0.00     0.018 A 
HETATM   21  C   UNL     1      40.005 -14.072   5.376  1.00  0.00     0.003 A 
HETATM   22  C   UNL     1      39.773 -13.287   4.242  1.00  0.00     0.029 A 
BRANCH  19  23
HETATM   23  C   UNL     1      43.807 -14.008   5.485  1.00  0.00     0.293 C 
HETATM   24  O   UNL     1      44.748 -13.743   4.750  1.00  0.00    -0.259 OA
BRANCH  23  25
HETATM   25  O   UNL     1      43.892 -14.470   6.754  1.00  0.00    -0.323 OA
HETATM   26  C   UNL     1      44.749 -13.705   7.605  1.00  0.00     0.213 C 
ENDBRANCH  23  25
ENDBRANCH  19  23
ENDBRANCH  15  17
ENDBRANCH  13  15
ENDBRANCH  11  13
ENDBRANCH  10  11
ENDBRANCH   4  10
BRANCH   1  27
HETATM   27  C   UNL     1      40.548 -14.640   0.086  1.00  0.00     0.038 C 
HETATM   28  N   UNL     1      39.518 -14.913   0.958  1.00  0.00    -0.277 N 
HETATM   29  C   UNL     1      38.177 -14.385   1.049  1.00  0.00     0.179 C 
HETATM   30  N   UNL     1      39.836 -15.855   1.865  1.00  0.00    -0.172 NA
HETATM   31  C   UNL     1      41.148 -16.069   1.723  1.00  0.00     0.089 C 
HETATM   32  C   UNL     1      41.633 -15.316   0.632  1.00  0.00     0.061 C 
BRANCH  31  33
HETATM   33  C   UNL     1      41.893 -17.006   2.559  1.00  0.00    -0.005 A 
HETATM   34  C   UNL     1      43.014 -17.672   2.062  1.00  0.00     0.016 A 
HETATM   35  C   UNL     1      43.779 -18.507   2.893  1.00  0.00     0.030 A 
HETATM   36  C   UNL     1      43.446 -18.731   4.240  1.00  0.00     0.029 A 
HETATM   37  C   UNL     1      42.299 -18.068   4.708  1.00  0.00     0.030 A 
HETATM   38  C   UNL     1      41.534 -17.223   3.891  1.00  0.00     0.016 A 
BRANCH  36  39
HETATM   39  N   UNL     1      44.228 -19.519   5.090  1.00  0.00    -0.390 N 
HETATM   40  C   UNL     1      44.959 -20.661   4.545  1.00  0.00     0.149 C 
HETATM   41  C   UNL     1      43.795 -19.658   6.482  1.00  0.00     0.149 C 
ENDBRANCH  36  39
ENDBRANCH  31  33
ENDBRANCH   1  27
TORSDOF 10
ENDMDL
MODEL 7
REMARK VINA RESULT:      -8.5      4.598      9.229
REMARK  10 active torsions:
REMARK  status: ('A' for Active; 'I' for Inactive)
REMARK    1  A    between atoms: C_4  and  C_5 
REMARK    2  A    between atoms: C_8  and  N_9 
REMARK    3  A    between atoms: C_15  and  C_16 
REMARK    4  A    between atoms: C_19  and  C_20 
REMARK    5  A    between atoms: C_20  and  N_21 
REMARK    6  A    between atoms: N_21  and  C_22 
REMARK    7  A    between atoms: C_22  and  N_23 
REMARK    8  A    between atoms: N_23  and  C_24 
REMARK    9  A    between atoms: C_26  and  C_27 
REMARK   10  A    between atoms: C_27  and  O_28 
ROOT
HETATM    1  C   UNL     1      41.472 -14.109   5.275  1.00  0.00     0.067 C 
HETATM    2  C   UNL     1      42.963 -14.213   4.906  1.00  0.00     0.001 C 
HETATM    3  C   UNL     1      43.237 -15.424   3.992  1.00  0.00     0.040 C 
HETATM    4  C   UNL     1      42.928 -16.754   4.695  1.00  0.00     0.206 C 
HETATM    5  N   UNL     1      42.157 -16.413   5.965  1.00  0.00    -0.065 N 
HETATM    6  H   UNL     1      41.814 -17.281   6.401  1.00  0.00     0.280 HD
HETATM    7  C   UNL     1      40.955 -15.511   5.676  1.00  0.00     0.246 C 
HETATM    8  C   UNL     1      43.717 -14.503   6.231  1.00  0.00     0.033 C 
HETATM    9  C   UNL     1      43.098 -15.718   6.943  1.00  0.00     0.236 C 
ENDROOT
BRANCH   4  10
HETATM   10  C   UNL     1      42.195 -17.776   3.798  1.00  0.00     0.155 C 
BRANCH  10  11
HETATM   11  N   UNL     1      41.581 -17.145   2.632  1.00  0.00    -0.365 N 
HETATM   12  H   UNL     1      41.007 -16.321   2.791  1.00  0.00     0.161 HD
BRANCH  11  13
HETATM   13  C   UNL     1      42.053 -17.191   1.346  1.00  0.00     0.172 C 
HETATM   14  S   UNL     1      43.581 -17.686   0.904  1.00  0.00    -0.041 SA
BRANCH  13  15
HETATM   15  N   UNL     1      41.199 -16.737   0.375  1.00  0.00    -0.333 N 
HETATM   16  H   UNL     1      40.307 -17.226   0.357  1.00  0.00     0.168 HD
BRANCH  15  17
HETATM   17  C   UNL     1      41.306 -15.627  -0.492  1.00  0.00     0.035 A 
HETATM   18  C   UNL     1      41.801 -14.386  -0.085  1.00  0.00     0.047 A 
HETATM   19  C   UNL     1      41.897 -13.312  -0.984  1.00  0.00     0.041 A 
HETATM   20  C   UNL     1      41.460 -13.479  -2.301  1.00  0.00     0.018 A 
HETATM   21  C   UNL     1      40.920 -14.703  -2.702  1.00  0.00     0.003 A 
HETATM   22  C   UNL     1      40.837 -15.768  -1.799  1.00  0.00     0.029 A 
BRANCH  19  23
HETATM   23  C   UNL     1      42.475 -12.039  -0.475  1.00  0.00     0.293 C 
HETATM   24  O   UNL     1      42.354 -11.671   0.686  1.00  0.00    -0.259 OA
BRANCH  23  25
HETATM   25  O   UNL     1      43.179 -11.409  -1.443  1.00  0.00    -0.323 OA
HETATM   26  C   UNL     1      43.521 -10.054  -1.137  1.00  0.00     0.213 C 
ENDBRANCH  23  25
ENDBRANCH  19  23
ENDBRANCH  15  17
ENDBRANCH  13  15
ENDBRANCH  11  13
ENDBRANCH  10  11
ENDBRANCH   4  10
BRANCH   1  27
HETATM   27  C   UNL     1      40.489 -13.396   4.389  1.00  0.00     0.038 C 
HETATM   28  N   UNL     1      39.760 -12.241   4.563  1.00  0.00    -0.277 N 
HETATM   29  C   UNL     1      39.549 -11.409   5.725  1.00  0.00     0.179 C 
HETATM   30  N   UNL     1      39.165 -11.822   3.431  1.00  0.00    -0.172 NA
HETATM   31  C   UNL     1      39.332 -12.808   2.545  1.00  0.00     0.089 C 
HETATM   32  C   UNL     1      40.141 -13.818   3.111  1.00  0.00     0.061 C 
BRANCH  31  33
HETATM   33  C   UNL     1      38.793 -12.756   1.189  1.00  0.00    -0.005 A 
HETATM   34  C   UNL     1      38.853 -11.580   0.441  1.00  0.00     0.016 A 
HETATM   35  C   UNL     1      38.412 -11.556  -0.893  1.00  0.00     0.030 A 
HETATM   36  C   UNL     1      37.873 -12.690  -1.524  1.00  0.00     0.029 A 
HETATM   37  C   UNL     1      37.802 -13.855  -0.740  1.00  0.00     0.030 A 
HETATM   38  C   UNL     1      38.250 -13.894   0.588  1.00  0.00     0.016 A 
BRANCH  36  39
HETATM   39  N   UNL     1      37.478 -12.692  -2.866  1.00  0.00    -0.390 N 
HETATM   40  C   UNL     1      36.550 -11.670  -3.345  1.00  0.00     0.149 C 
HETATM   41  C   UNL     1      37.400 -13.982  -3.553  1.00  0.00     0.149 C 
ENDBRANCH  36  39
ENDBRANCH  31  33
ENDBRANCH   1  27
TORSDOF 10
ENDMDL
MODEL 8
REMARK VINA RESULT:      -8.5      4.193      5.669
REMARK  10 active torsions:
REMARK  status: ('A' for Active; 'I' for Inactive)
REMARK    1  A    between atoms: C_4  and  C_5 
REMARK    2  A    between atoms: C_8  and  N_9 
REMARK    3  A    between atoms: C_15  and  C_16 
REMARK    4  A    between atoms: C_19  and  C_20 
REMARK    5  A    between atoms: C_20  and  N_21 
REMARK    6  A    between atoms: N_21  and  C_22 
REMARK    7  A    between atoms: C_22  and  N_23 
REMARK    8  A    between atoms: N_23  and  C_24 
REMARK    9  A    between atoms: C_26  and  C_27 
REMARK   10  A    between atoms: C_27  and  O_28 
ROOT
HETATM    1  C   UNL     1      41.478 -12.282  -1.626  1.00  0.00     0.067 C 
HETATM    2  C   UNL     1      42.677 -11.385  -1.267  1.00  0.00     0.001 C 
HETATM    3  C   UNL     1      42.476 -10.689   0.095  1.00  0.00     0.040 C 
HETATM    4  C   UNL     1      41.278  -9.729   0.076  1.00  0.00     0.206 C 
HETATM    5  N   UNL     1      40.498 -10.020  -1.201  1.00  0.00    -0.065 N 
HETATM    6  H   UNL     1      39.615  -9.492  -1.191  1.00  0.00     0.280 HD
HETATM    7  C   UNL     1      40.169 -11.508  -1.340  1.00  0.00     0.246 C 
HETATM    8  C   UNL     1      42.698 -10.249  -2.325  1.00  0.00     0.033 C 
HETATM    9  C   UNL     1      41.324  -9.563  -2.399  1.00  0.00     0.236 C 
ENDROOT
BRANCH   4  10
HETATM   10  C   UNL     1      40.404  -9.800   1.348  1.00  0.00     0.155 C 
BRANCH  10  11
HETATM   11  N   UNL     1      41.209  -9.874   2.565  1.00  0.00    -0.365 N 
HETATM   12  H   UNL     1      41.621  -9.012   2.910  1.00  0.00     0.161 HD
BRANCH  11  13
HETATM   13  C   UNL     1      41.080 -10.806   3.563  1.00  0.00     0.172 C 
HETATM   14  S   UNL     1      40.137 -10.627   4.924  1.00  0.00    -0.041 SA
BRANCH  13  15
HETATM   15  N   UNL     1      41.840 -11.939   3.429  1.00  0.00    -0.333 N 
HETATM   16  H   UNL     1      42.745 -11.773   2.994  1.00  0.00     0.168 HD
BRANCH  15  17
HETATM   17  C   UNL     1      41.628 -13.246   3.919  1.00  0.00     0.035 A 
HETATM   18  C   UNL     1      42.453 -13.848   4.872  1.00  0.00     0.047 A 
HETATM   19  C   UNL     1      42.198 -15.147   5.337  1.00  0.00     0.041 A 
HETATM   20  C   UNL     1      41.119 -15.864   4.812  1.00  0.00     0.018 A 
HETATM   21  C   UNL     1      40.318 -15.287   3.825  1.00  0.00     0.003 A 
HETATM   22  C   UNL     1      40.577 -13.988   3.376  1.00  0.00     0.029 A 
BRANCH  19  23
HETATM   23  C   UNL     1      43.105 -15.693   6.383  1.00  0.00     0.293 C 
HETATM   24  O   UNL     1      44.270 -15.341   6.503  1.00  0.00    -0.259 OA
BRANCH  23  25
HETATM   25  O   UNL     1      42.446 -16.560   7.186  1.00  0.00    -0.323 OA
HETATM   26  C   UNL     1      43.281 -17.252   8.119  1.00  0.00     0.213 C 
ENDBRANCH  23  25
ENDBRANCH  19  23
ENDBRANCH  15  17
ENDBRANCH  13  15
ENDBRANCH  11  13
ENDBRANCH  10  11
ENDBRANCH   4  10
BRANCH   1  27
HETATM   27  C   UNL     1      41.388 -13.704  -1.149  1.00  0.00     0.038 C 
HETATM   28  N   UNL     1      40.822 -14.829  -1.706  1.00  0.00    -0.277 N 
HETATM   29  C   UNL     1      39.962 -14.998  -2.854  1.00  0.00     0.179 C 
HETATM   30  N   UNL     1      41.160 -15.960  -1.061  1.00  0.00    -0.172 NA
HETATM   31  C   UNL     1      41.793 -15.570   0.050  1.00  0.00     0.089 C 
HETATM   32  C   UNL     1      41.941 -14.166   0.039  1.00  0.00     0.061 C 
BRANCH  31  33
HETATM   33  C   UNL     1      42.293 -16.510   1.050  1.00  0.00    -0.005 A 
HETATM   34  C   UNL     1      41.713 -17.770   1.199  1.00  0.00     0.016 A 
HETATM   35  C   UNL     1      42.250 -18.703   2.101  1.00  0.00     0.030 A 
HETATM   36  C   UNL     1      43.366 -18.413   2.905  1.00  0.00     0.029 A 
HETATM   37  C   UNL     1      43.915 -17.128   2.752  1.00  0.00     0.030 A 
HETATM   38  C   UNL     1      43.395 -16.192   1.846  1.00  0.00     0.016 A 
BRANCH  36  39
HETATM   39  N   UNL     1      43.939 -19.350   3.769  1.00  0.00    -0.390 N 
HETATM   40  C   UNL     1      44.541 -18.901   5.023  1.00  0.00     0.149 C 
HETATM   41  C   UNL     1      44.543 -20.545   3.177  1.00  0.00     0.149 C 
ENDBRANCH  36  39
ENDBRANCH  31  33
ENDBRANCH   1  27
TORSDOF 10
ENDMDL
MODEL 9
REMARK VINA RESULT:      -8.2      4.846      7.840
REMARK  10 active torsions:
REMARK  status: ('A' for Active; 'I' for Inactive)
REMARK    1  A    between atoms: C_4  and  C_5 
REMARK    2  A    between atoms: C_8  and  N_9 
REMARK    3  A    between atoms: C_15  and  C_16 
REMARK    4  A    between atoms: C_19  and  C_20 
REMARK    5  A    between atoms: C_20  and  N_21 
REMARK    6  A    between atoms: N_21  and  C_22 
REMARK    7  A    between atoms: C_22  and  N_23 
REMARK    8  A    between atoms: N_23  and  C_24 
REMARK    9  A    between atoms: C_26  and  C_27 
REMARK   10  A    between atoms: C_27  and  O_28 
ROOT
HETATM    1  C   UNL     1      39.545 -11.157   2.341  1.00  0.00     0.067 C 
HETATM    2  C   UNL     1      38.037 -11.108   2.039  1.00  0.00     0.001 C 
HETATM    3  C   UNL     1      37.594 -12.304   1.172  1.00  0.00     0.040 C 
HETATM    4  C   UNL     1      38.257 -12.283  -0.213  1.00  0.00     0.206 C 
HETATM    5  N   UNL     1      39.374 -11.249  -0.152  1.00  0.00    -0.065 N 
HETATM    6  H   UNL     1      39.932 -11.295  -1.017  1.00  0.00     0.280 HD
HETATM    7  C   UNL     1      40.308 -11.488   1.036  1.00  0.00     0.246 C 
HETATM    8  C   UNL     1      37.811  -9.845   1.166  1.00  0.00     0.033 C 
HETATM    9  C   UNL     1      38.756  -9.859  -0.047  1.00  0.00     0.236 C 
ENDROOT
BRANCH   4  10
HETATM   10  C   UNL     1      38.742 -13.671  -0.690  1.00  0.00     0.155 C 
BRANCH  10  11
HETATM   11  N   UNL     1      40.040 -13.602  -1.356  1.00  0.00    -0.365 N 
HETATM   12  H   UNL     1      40.528 -12.710  -1.346  1.00  0.00     0.161 HD
BRANCH  11  13
HETATM   13  C   UNL     1      40.906 -14.648  -1.548  1.00  0.00     0.172 C 
HETATM   14  S   UNL     1      40.968 -15.600  -2.914  1.00  0.00    -0.041 SA
BRANCH  13  15
HETATM   15  N   UNL     1      41.734 -14.944  -0.498  1.00  0.00    -0.333 N 
HETATM   16  H   UNL     1      42.509 -14.292  -0.394  1.00  0.00     0.168 HD
BRANCH  15  17
HETATM   17  C   UNL     1      41.605 -15.907   0.526  1.00  0.00     0.035 A 
HETATM   18  C   UNL     1      42.535 -16.928   0.736  1.00  0.00     0.047 A 
HETATM   19  C   UNL     1      42.370 -17.859   1.773  1.00  0.00     0.041 A 
HETATM   20  C   UNL     1      41.238 -17.783   2.590  1.00  0.00     0.018 A 
HETATM   21  C   UNL     1      40.280 -16.795   2.355  1.00  0.00     0.003 A 
HETATM   22  C   UNL     1      40.460 -15.867   1.324  1.00  0.00     0.029 A 
BRANCH  19  23
HETATM   23  C   UNL     1      43.431 -18.887   1.950  1.00  0.00     0.293 C 
HETATM   24  O   UNL     1      44.595 -18.605   2.200  1.00  0.00    -0.259 OA
BRANCH  23  25
HETATM   25  O   UNL     1      42.915 -20.134   1.854  1.00  0.00    -0.323 OA
HETATM   26  C   UNL     1      43.876 -21.183   1.996  1.00  0.00     0.213 C 
ENDBRANCH  23  25
ENDBRANCH  19  23
ENDBRANCH  15  17
ENDBRANCH  13  15
ENDBRANCH  11  13
ENDBRANCH  10  11
ENDBRANCH   4  10
BRANCH   1  27
HETATM   27  C   UNL     1      40.091 -11.934   3.506  1.00  0.00     0.038 C 
HETATM   28  N   UNL     1      39.974 -11.760   4.867  1.00  0.00    -0.277 N 
HETATM   29  C   UNL     1      39.438 -10.670   5.648  1.00  0.00     0.179 C 
HETATM   30  N   UNL     1      40.428 -12.813   5.571  1.00  0.00    -0.172 NA
HETATM   31  C   UNL     1      41.033 -13.610   4.685  1.00  0.00     0.089 C 
HETATM   32  C   UNL     1      40.858 -13.087   3.385  1.00  0.00     0.061 C 
BRANCH  31  33
HETATM   33  C   UNL     1      41.696 -14.855   5.061  1.00  0.00    -0.005 A 
HETATM   34  C   UNL     1      42.962 -15.168   4.567  1.00  0.00     0.016 A 
HETATM   35  C   UNL     1      43.633 -16.325   4.998  1.00  0.00     0.030 A 
HETATM   36  C   UNL     1      43.064 -17.225   5.915  1.00  0.00     0.029 A 
HETATM   37  C   UNL     1      41.777 -16.898   6.378  1.00  0.00     0.030 A 
HETATM   38  C   UNL     1      41.102 -15.740   5.964  1.00  0.00     0.016 A 
BRANCH  36  39
HETATM   39  N   UNL     1      43.742 -18.351   6.389  1.00  0.00    -0.390 N 
HETATM   40  C   UNL     1      43.824 -19.548   5.554  1.00  0.00     0.149 C 
HETATM   41  C   UNL     1      43.738 -18.593   7.833  1.00  0.00     0.149 C 
ENDBRANCH  36  39
ENDBRANCH  31  33
ENDBRANCH   1  27
TORSDOF 10
ENDMDL
MODEL 10
REMARK VINA RESULT:      -8.2      4.313      5.342
REMARK  10 active torsions:
REMARK  status: ('A' for Active; 'I' for Inactive)
REMARK    1  A    between atoms: C_4  and  C_5 
REMARK    2  A    between atoms: C_8  and  N_9 
REMARK    3  A    between atoms: C_15  and  C_16 
REMARK    4  A    between atoms: C_19  and  C_20 
REMARK    5  A    between atoms: C_20  and  N_21 
REMARK    6  A    between atoms: N_21  and  C_22 
REMARK    7  A    between atoms: C_22  and  N_23 
REMARK    8  A    between atoms: N_23  and  C_24 
REMARK    9  A    between atoms: C_26  and  C_27 
REMARK   10  A    between atoms: C_27  and  O_28 
ROOT
HETATM    1  C   UNL     1      39.837 -12.630  -0.053  1.00  0.00     0.067 C 
HETATM    2  C   UNL     1      40.753 -11.394  -0.032  1.00  0.00     0.001 C 
HETATM    3  C   UNL     1      41.286 -11.109   1.388  1.00  0.00     0.040 C 
HETATM    4  C   UNL     1      40.154 -10.757   2.364  1.00  0.00     0.206 C 
HETATM    5  N   UNL     1      38.845 -11.112   1.669  1.00  0.00    -0.065 N 
HETATM    6  H   UNL     1      38.066 -11.017   2.335  1.00  0.00     0.280 HD
HETATM    7  C   UNL     1      38.853 -12.547   1.138  1.00  0.00     0.246 C 
HETATM    8  C   UNL     1      39.854 -10.182  -0.398  1.00  0.00     0.033 C 
HETATM    9  C   UNL     1      38.618 -10.139   0.516  1.00  0.00     0.236 C 
ENDROOT
BRANCH   4  10
HETATM   10  C   UNL     1      40.302 -11.421   3.751  1.00  0.00     0.155 C 
BRANCH  10  11
HETATM   11  N   UNL     1      41.692 -11.743   4.063  1.00  0.00    -0.365 N 
HETATM   12  H   UNL     1      42.230 -11.053   4.581  1.00  0.00     0.161 HD
BRANCH  11  13
HETATM   13  C   UNL     1      42.219 -13.001   4.200  1.00  0.00     0.172 C 
HETATM   14  S   UNL     1      43.444 -13.634   3.265  1.00  0.00    -0.041 SA
BRANCH  13  15
HETATM   15  N   UNL     1      41.636 -13.797   5.152  1.00  0.00    -0.333 N 
HETATM   16  H   UNL     1      40.933 -13.316   5.710  1.00  0.00     0.168 HD
BRANCH  15  17
HETATM   17  C   UNL     1      41.753 -15.185   5.381  1.00  0.00     0.035 A 
HETATM   18  C   UNL     1      42.573 -15.729   6.373  1.00  0.00     0.047 A 
HETATM   19  C   UNL     1      42.652 -17.116   6.570  1.00  0.00     0.041 A 
HETATM   20  C   UNL     1      41.922 -17.970   5.739  1.00  0.00     0.018 A 
HETATM   21  C   UNL     1      41.137 -17.435   4.714  1.00  0.00     0.003 A 
HETATM   22  C   UNL     1      41.061 -16.051   4.533  1.00  0.00     0.029 A 
BRANCH  19  23
HETATM   23  C   UNL     1      43.518 -17.604   7.677  1.00  0.00     0.293 C 
HETATM   24  O   UNL     1      43.493 -17.125   8.802  1.00  0.00    -0.259 OA
BRANCH  23  25
HETATM   25  O   UNL     1      44.264 -18.659   7.275  1.00  0.00    -0.323 OA
HETATM   26  C   UNL     1      43.891 -19.906   7.869  1.00  0.00     0.213 C 
ENDBRANCH  23  25
ENDBRANCH  19  23
ENDBRANCH  15  17
ENDBRANCH  13  15
ENDBRANCH  11  13
ENDBRANCH  10  11
ENDBRANCH   4  10
BRANCH   1  27
HETATM   27  C   UNL     1      40.390 -14.019  -0.210  1.00  0.00     0.038 C 
HETATM   28  N   UNL     1      40.656 -14.785  -1.323  1.00  0.00    -0.277 N 
HETATM   29  C   UNL     1      40.328 -14.594  -2.716  1.00  0.00     0.179 C 
HETATM   30  N   UNL     1      41.365 -15.894  -1.038  1.00  0.00    -0.172 NA
HETATM   31  C   UNL     1      41.400 -15.970   0.296  1.00  0.00     0.089 C 
HETATM   32  C   UNL     1      40.788 -14.824   0.850  1.00  0.00     0.061 C 
BRANCH  31  33
HETATM   33  C   UNL     1      42.052 -17.064   1.011  1.00  0.00    -0.005 A 
HETATM   34  C   UNL     1      41.387 -18.270   1.233  1.00  0.00     0.016 A 
HETATM   35  C   UNL     1      42.045 -19.349   1.844  1.00  0.00     0.030 A 
HETATM   36  C   UNL     1      43.379 -19.266   2.278  1.00  0.00     0.029 A 
HETATM   37  C   UNL     1      44.019 -18.032   2.064  1.00  0.00     0.030 A 
HETATM   38  C   UNL     1      43.375 -16.951   1.444  1.00  0.00     0.016 A 
BRANCH  36  39
HETATM   39  N   UNL     1      44.060 -20.349   2.841  1.00  0.00    -0.390 N 
HETATM   40  C   UNL     1      45.013 -20.117   3.925  1.00  0.00     0.149 C 
HETATM   41  C   UNL     1      44.360 -21.491   1.976  1.00  0.00     0.149 C 
ENDBRANCH  36  39
ENDBRANCH  31  33
ENDBRANCH   1  27
TORSDOF 10
ENDMDL
