MODEL 1
REMARK VINA RESULT:      -9.8      0.000      0.000
REMARK  8 active torsions:
REMARK  status: ('A' for Active; 'I' for Inactive)
REMARK    1  A    between atoms: C_4  and  N_5 
REMARK       I    between atoms: N_5  and  C_6 
REMARK       I    between atoms: C_6  and  N_7 
REMARK    2  A    between atoms: N_7  and  C_8 
REMARK    3  A    between atoms: C_8  and  C_9 
REMARK    4  A    between atoms: C_9  and  C_10 
REMARK    5  A    between atoms: C_14  and  O_15 
REMARK       I    between atoms: N_22  and  C_23 
REMARK    6  A    between atoms: C_23  and  C_24 
REMARK    7  A    between atoms: C_24  and  N_25 
REMARK    8  A    between atoms: N_29  and  C_30 
ROOT
HETATM    1  N   UNL     1      43.047 -13.444   3.799  1.00  0.00    -0.017 N 
HETATM    2  C   UNL     1      41.998 -12.621   3.519  1.00  0.00     0.718 C 
HETATM    3  N   UNL     1      41.882 -12.347   2.178  1.00  0.00    -0.223 N 
HETATM    4  N   UNL     1      41.233 -12.137   4.447  1.00  0.00    -0.026 NA
HETATM    5  C   UNL     1      40.193 -11.301   4.177  1.00  0.00     0.286 C 
HETATM    6  O   UNL     1      39.859 -10.837   3.085  1.00  0.00    -0.269 OA
HETATM    7  H   UNL     1      43.911 -13.266   3.313  1.00  0.00     0.203 HD
HETATM    8  H   UNL     1      41.044 -11.804   1.958  1.00  0.00     0.177 HD
ENDROOT
BRANCH   1   9
HETATM    9  C   UNL     1      43.324 -14.037   5.026  1.00  0.00     0.741 A 
HETATM   10  N   UNL     1      42.758 -15.206   5.379  1.00  0.00    -0.067 NA
HETATM   11  C   UNL     1      43.133 -15.753   6.554  1.00  0.00     0.051 A 
HETATM   12  C   UNL     1      42.516 -17.065   6.931  1.00  0.00     0.071 C 
HETATM   13  C   UNL     1      44.045 -15.148   7.393  1.00  0.00     0.054 A 
HETATM   14  C   UNL     1      44.581 -13.957   6.956  1.00  0.00     0.051 A 
HETATM   15  N   UNL     1      44.239 -13.401   5.775  1.00  0.00    -0.067 NA
HETATM   16  C   UNL     1      45.566 -13.213   7.808  1.00  0.00     0.071 C 
ENDBRANCH   1   9
BRANCH   3  17
HETATM   17  C   UNL     1      42.191 -13.293   1.104  1.00  0.00     0.142 C 
BRANCH  17  18
HETATM   18  C   UNL     1      41.097 -14.349   0.896  1.00  0.00     0.061 C 
BRANCH  18  19
HETATM   19  C   UNL     1      41.156 -15.480   1.879  1.00  0.00    -0.029 A 
HETATM   20  C   UNL     1      42.146 -16.513   1.943  1.00  0.00    -0.002 A 
HETATM   21  C   UNL     1      41.810 -17.347   3.009  1.00  0.00     0.045 A 
HETATM   22  C   UNL     1      43.298 -16.822   1.190  1.00  0.00     0.017 A 
HETATM   23  C   UNL     1      42.581 -18.460   3.369  1.00  0.00     0.067 A 
HETATM   24  N   UNL     1      40.640 -16.866   3.549  1.00  0.00    -0.365 N 
HETATM   25  C   UNL     1      43.721 -18.745   2.611  1.00  0.00     0.070 A 
HETATM   26  C   UNL     1      44.076 -17.938   1.530  1.00  0.00     0.038 A 
HETATM   27  H   UNL     1      40.138 -17.295   4.316  1.00  0.00     0.165 HD
HETATM   28  C   UNL     1      40.244 -15.738   2.884  1.00  0.00     0.096 A 
BRANCH  25  29
HETATM   29  O   UNL     1      44.462 -19.803   3.070  1.00  0.00    -0.356 OA
HETATM   30  C   UNL     1      44.298 -21.029   2.362  1.00  0.00     0.210 C 
ENDBRANCH  25  29
ENDBRANCH  18  19
ENDBRANCH  17  18
ENDBRANCH   3  17
BRANCH   5  31
HETATM   31  C   UNL     1      39.432 -10.901   5.443  1.00  0.00     0.340 C 
BRANCH  31  32
HETATM   32  N   UNL     1      40.263 -11.062   6.722  1.00  0.00    -0.060 N 
HETATM   33  H   UNL     1      40.737 -11.974   6.636  1.00  0.00     0.280 HD
HETATM   34  C   UNL     1      41.368 -10.012   6.802  1.00  0.00     0.255 C 
HETATM   35  C   UNL     1      42.181 -10.149   8.105  1.00  0.00     0.150 C 
HETATM   36  N   UNL     1      41.275 -10.149   9.278  1.00  0.00    -0.378 N 
HETATM   37  C   UNL     1      40.244 -11.203   9.239  1.00  0.00     0.150 C 
HETATM   38  C   UNL     1      39.392 -11.057   7.963  1.00  0.00     0.255 C 
BRANCH  36  39
HETATM   39  C   UNL     1      41.915  -9.897  10.500  1.00  0.00     0.030 A 
HETATM   40  C   UNL     1      42.782 -10.868  11.038  1.00  0.00     0.032 A 
HETATM   41  C   UNL     1      43.467 -10.656  12.237  1.00  0.00     0.044 A 
HETATM   42  C   UNL     1      43.297  -9.460  12.916  1.00  0.00     0.116 A 
HETATM   43  F   UNL     1      43.953  -9.249  14.064  1.00  0.00    -0.206 F 
HETATM   44  C   UNL     1      42.457  -8.477  12.416  1.00  0.00     0.044 A 
HETATM   45  C   UNL     1      41.774  -8.694  11.213  1.00  0.00     0.032 A 
ENDBRANCH  36  39
ENDBRANCH  31  32
ENDBRANCH   5  31
TORSDOF 8
ENDMDL
MODEL 2
REMARK VINA RESULT:      -9.4      2.232      4.361
REMARK  8 active torsions:
REMARK  status: ('A' for Active; 'I' for Inactive)
REMARK    1  A    between atoms: C_4  and  N_5 
REMARK       I    between atoms: N_5  and  C_6 
REMARK       I    between atoms: C_6  and  N_7 
REMARK    2  A    between atoms: N_7  and  C_8 
REMARK    3  A    between atoms: C_8  and  C_9 
REMARK    4  A    between atoms: C_9  and  C_10 
REMARK    5  A    between atoms: C_14  and  O_15 
REMARK       I    between atoms: N_22  and  C_23 
REMARK    6  A    between atoms: C_23  and  C_24 
REMARK    7  A    between atoms: C_24  and  N_25 
REMARK    8  A    between atoms: N_29  and  C_30 
ROOT
HETATM    1  N   UNL     1      41.594 -12.926   5.397  1.00  0.00    -0.017 N 
HETATM    2  C   UNL     1      42.757 -13.482   5.839  1.00  0.00     0.718 C 
HETATM    3  N   UNL     1      43.130 -14.582   5.106  1.00  0.00    -0.223 N 
HETATM    4  N   UNL     1      43.398 -13.019   6.866  1.00  0.00    -0.026 NA
HETATM    5  C   UNL     1      44.552 -13.579   7.323  1.00  0.00     0.286 C 
HETATM    6  O   UNL     1      45.116 -14.594   6.910  1.00  0.00    -0.269 OA
HETATM    7  H   UNL     1      40.850 -13.557   5.147  1.00  0.00     0.203 HD
HETATM    8  H   UNL     1      44.047 -14.945   5.378  1.00  0.00     0.177 HD
ENDROOT
BRANCH   1   9
HETATM    9  C   UNL     1      41.049 -11.716   5.815  1.00  0.00     0.741 A 
HETATM   10  N   UNL     1      40.323 -11.632   6.945  1.00  0.00    -0.067 NA
HETATM   11  C   UNL     1      39.889 -10.410   7.320  1.00  0.00     0.051 A 
HETATM   12  C   UNL     1      39.100 -10.320   8.590  1.00  0.00     0.071 C 
HETATM   13  C   UNL     1      40.148  -9.276   6.581  1.00  0.00     0.054 A 
HETATM   14  C   UNL     1      40.902  -9.447   5.441  1.00  0.00     0.051 A 
HETATM   15  N   UNL     1      41.366 -10.655   5.057  1.00  0.00    -0.067 NA
HETATM   16  C   UNL     1      41.219  -8.275   4.560  1.00  0.00     0.071 C 
ENDBRANCH   1   9
BRANCH   3  17
HETATM   17  C   UNL     1      42.912 -14.738   3.666  1.00  0.00     0.142 C 
BRANCH  17  18
HETATM   18  C   UNL     1      41.977 -15.904   3.320  1.00  0.00     0.061 C 
BRANCH  18  19
HETATM   19  C   UNL     1      42.692 -17.122   2.817  1.00  0.00    -0.029 A 
HETATM   20  C   UNL     1      43.337 -18.128   3.606  1.00  0.00    -0.002 A 
HETATM   21  C   UNL     1      43.868 -19.072   2.729  1.00  0.00     0.045 A 
HETATM   22  C   UNL     1      43.525 -18.323   4.991  1.00  0.00     0.017 A 
HETATM   23  C   UNL     1      44.557 -20.210   3.168  1.00  0.00     0.067 A 
HETATM   24  N   UNL     1      43.592 -18.640   1.452  1.00  0.00    -0.365 N 
HETATM   25  C   UNL     1      44.728 -20.385   4.546  1.00  0.00     0.070 A 
HETATM   26  C   UNL     1      44.221 -19.451   5.449  1.00  0.00     0.038 A 
HETATM   27  H   UNL     1      43.891 -19.108   0.606  1.00  0.00     0.165 HD
HETATM   28  C   UNL     1      42.876 -17.475   1.494  1.00  0.00     0.096 A 
BRANCH  25  29
HETATM   29  O   UNL     1      45.345 -21.556   4.899  1.00  0.00    -0.356 OA
HETATM   30  C   UNL     1      44.667 -22.752   4.524  1.00  0.00     0.210 C 
ENDBRANCH  25  29
ENDBRANCH  18  19
ENDBRANCH  17  18
ENDBRANCH   3  17
BRANCH   5  31
HETATM   31  C   UNL     1      45.121 -12.824   8.526  1.00  0.00     0.340 C 
BRANCH  31  32
HETATM   32  N   UNL     1      44.049 -12.409   9.540  1.00  0.00    -0.060 N 
HETATM   33  H   UNL     1      43.289 -13.100   9.445  1.00  0.00     0.280 HD
HETATM   34  C   UNL     1      44.562 -12.535  10.973  1.00  0.00     0.255 C 
HETATM   35  C   UNL     1      43.497 -12.083  11.993  1.00  0.00     0.150 C 
HETATM   36  N   UNL     1      43.005 -10.726  11.654  1.00  0.00    -0.378 N 
HETATM   37  C   UNL     1      42.448 -10.613  10.294  1.00  0.00     0.150 C 
HETATM   38  C   UNL     1      43.511 -11.020   9.255  1.00  0.00     0.255 C 
BRANCH  36  39
HETATM   39  C   UNL     1      42.329 -10.081  12.701  1.00  0.00     0.030 A 
HETATM   40  C   UNL     1      41.268  -9.205  12.400  1.00  0.00     0.032 A 
HETATM   41  C   UNL     1      40.543  -8.560  13.404  1.00  0.00     0.044 A 
HETATM   42  C   UNL     1      40.867  -8.787  14.732  1.00  0.00     0.116 A 
HETATM   43  F   UNL     1      40.174  -8.174  15.699  1.00  0.00    -0.206 F 
HETATM   44  C   UNL     1      41.901  -9.648  15.069  1.00  0.00     0.044 A 
HETATM   45  C   UNL     1      42.624 -10.293  14.058  1.00  0.00     0.032 A 
ENDBRANCH  36  39
ENDBRANCH  31  32
ENDBRANCH   5  31
TORSDOF 8
ENDMDL
MODEL 3
REMARK VINA RESULT:      -9.0      2.548      5.103
REMARK  8 active torsions:
REMARK  status: ('A' for Active; 'I' for Inactive)
REMARK    1  A    between atoms: C_4  and  N_5 
REMARK       I    between atoms: N_5  and  C_6 
REMARK       I    between atoms: C_6  and  N_7 
REMARK    2  A    between atoms: N_7  and  C_8 
REMARK    3  A    between atoms: C_8  and  C_9 
REMARK    4  A    between atoms: C_9  and  C_10 
REMARK    5  A    between atoms: C_14  and  O_15 
REMARK       I    between atoms: N_22  and  C_23 
REMARK    6  A    between atoms: C_23  and  C_24 
REMARK    7  A    between atoms: C_24  and  N_25 
REMARK    8  A    between atoms: N_29  and  C_30 
ROOT
HETATM    1  N   UNL     1      39.893 -14.935  -0.128  1.00  0.00    -0.017 N 
HETATM    2  C   UNL     1      39.983 -14.976   1.230  1.00  0.00     0.718 C 
HETATM    3  N   UNL     1      40.155 -16.250   1.713  1.00  0.00    -0.223 N 
HETATM    4  N   UNL     1      39.877 -13.911   1.962  1.00  0.00    -0.026 NA
HETATM    5  C   UNL     1      39.949 -13.945   3.321  1.00  0.00     0.286 C 
HETATM    6  O   UNL     1      40.055 -14.935   4.048  1.00  0.00    -0.269 OA
HETATM    7  H   UNL     1      39.338 -15.649  -0.572  1.00  0.00     0.203 HD
HETATM    8  H   UNL     1      40.313 -16.272   2.722  1.00  0.00     0.177 HD
ENDROOT
BRANCH   1   9
HETATM    9  C   UNL     1      39.888 -13.792  -0.920  1.00  0.00     0.741 A 
HETATM   10  N   UNL     1      38.736 -13.205  -1.292  1.00  0.00    -0.067 NA
HETATM   11  C   UNL     1      38.816 -12.059  -1.998  1.00  0.00     0.051 A 
HETATM   12  C   UNL     1      37.528 -11.400  -2.390  1.00  0.00     0.071 C 
HETATM   13  C   UNL     1      40.022 -11.497  -2.359  1.00  0.00     0.054 A 
HETATM   14  C   UNL     1      41.155 -12.156  -1.936  1.00  0.00     0.051 A 
HETATM   15  N   UNL     1      41.100 -13.292  -1.209  1.00  0.00    -0.067 NA
HETATM   16  C   UNL     1      42.514 -11.633  -2.296  1.00  0.00     0.071 C 
ENDBRANCH   1   9
BRANCH   3  17
HETATM   17  C   UNL     1      40.924 -17.299   1.040  1.00  0.00     0.142 C 
BRANCH  17  18
HETATM   18  C   UNL     1      42.441 -17.065   1.091  1.00  0.00     0.061 C 
BRANCH  18  19
HETATM   19  C   UNL     1      43.108 -17.693   2.278  1.00  0.00    -0.029 A 
HETATM   20  C   UNL     1      43.472 -19.070   2.431  1.00  0.00    -0.002 A 
HETATM   21  C   UNL     1      44.066 -19.208   3.684  1.00  0.00     0.045 A 
HETATM   22  C   UNL     1      43.347 -20.218   1.620  1.00  0.00     0.017 A 
HETATM   23  C   UNL     1      44.560 -20.431   4.156  1.00  0.00     0.067 A 
HETATM   24  N   UNL     1      44.032 -17.973   4.289  1.00  0.00    -0.365 N 
HETATM   25  C   UNL     1      44.428 -21.555   3.334  1.00  0.00     0.070 A 
HETATM   26  C   UNL     1      43.826 -21.452   2.081  1.00  0.00     0.038 A 
HETATM   27  H   UNL     1      44.361 -17.778   5.226  1.00  0.00     0.165 HD
HETATM   28  C   UNL     1      43.468 -17.052   3.448  1.00  0.00     0.096 A 
BRANCH  25  29
HETATM   29  O   UNL     1      45.001 -22.696   3.833  1.00  0.00    -0.356 OA
HETATM   30  C   UNL     1      45.331 -22.670   5.219  1.00  0.00     0.210 C 
ENDBRANCH  25  29
ENDBRANCH  18  19
ENDBRANCH  17  18
ENDBRANCH   3  17
BRANCH   5  31
HETATM   31  C   UNL     1      39.825 -12.552   3.940  1.00  0.00     0.340 C 
BRANCH  31  32
HETATM   32  N   UNL     1      40.324 -12.489   5.389  1.00  0.00    -0.060 N 
HETATM   33  H   UNL     1      40.084 -13.400   5.809  1.00  0.00     0.280 HD
HETATM   34  C   UNL     1      41.846 -12.379   5.448  1.00  0.00     0.255 C 
HETATM   35  C   UNL     1      42.347 -12.278   6.902  1.00  0.00     0.150 C 
HETATM   36  N   UNL     1      41.643 -11.183   7.613  1.00  0.00    -0.378 N 
HETATM   37  C   UNL     1      40.175 -11.317   7.616  1.00  0.00     0.150 C 
HETATM   38  C   UNL     1      39.649 -11.377   6.169  1.00  0.00     0.255 C 
BRANCH  36  39
HETATM   39  C   UNL     1      42.272 -10.769   8.797  1.00  0.00     0.030 A 
HETATM   40  C   UNL     1      41.513 -10.117   9.788  1.00  0.00     0.032 A 
HETATM   41  C   UNL     1      42.082  -9.708  10.997  1.00  0.00     0.044 A 
HETATM   42  C   UNL     1      43.425  -9.952  11.234  1.00  0.00     0.116 A 
HETATM   43  F   UNL     1      43.976  -9.567  12.392  1.00  0.00    -0.206 F 
HETATM   44  C   UNL     1      44.204 -10.598  10.285  1.00  0.00     0.044 A 
HETATM   45  C   UNL     1      43.628 -11.006   9.076  1.00  0.00     0.032 A 
ENDBRANCH  36  39
ENDBRANCH  31  32
ENDBRANCH   5  31
TORSDOF 8
ENDMDL
MODEL 4
REMARK VINA RESULT:      -9.0      4.639      7.506
REMARK  8 active torsions:
REMARK  status: ('A' for Active; 'I' for Inactive)
REMARK    1  A    between atoms: C_4  and  N_5 
REMARK       I    between atoms: N_5  and  C_6 
REMARK       I    between atoms: C_6  and  N_7 
REMARK    2  A    between atoms: N_7  and  C_8 
REMARK    3  A    between atoms: C_8  and  C_9 
REMARK    4  A    between atoms: C_9  and  C_10 
REMARK    5  A    between atoms: C_14  and  O_15 
REMARK       I    between atoms: N_22  and  C_23 
REMARK    6  A    between atoms: C_23  and  C_24 
REMARK    7  A    between atoms: C_24  and  N_25 
REMARK    8  A    between atoms: N_29  and  C_30 
ROOT
HETATM    1  N   UNL     1      39.798 -10.206   0.545  1.00  0.00    -0.017 N 
HETATM    2  C   UNL     1      39.505 -10.837   1.716  1.00  0.00     0.718 C 
HETATM    3  N   UNL     1      38.156 -10.890   1.968  1.00  0.00    -0.223 N 
HETATM    4  N   UNL     1      40.428 -11.293   2.504  1.00  0.00    -0.026 NA
HETATM    5  C   UNL     1      40.145 -11.909   3.685  1.00  0.00     0.286 C 
HETATM    6  O   UNL     1      39.041 -12.072   4.207  1.00  0.00    -0.269 OA
HETATM    7  H   UNL     1      39.280  -9.367   0.334  1.00  0.00     0.203 HD
HETATM    8  H   UNL     1      37.932 -11.440   2.800  1.00  0.00     0.177 HD
ENDROOT
BRANCH   1   9
HETATM    9  C   UNL     1      41.045 -10.142  -0.068  1.00  0.00     0.741 A 
HETATM   10  N   UNL     1      41.864  -9.092   0.125  1.00  0.00    -0.067 NA
HETATM   11  C   UNL     1      43.086  -9.138  -0.445  1.00  0.00     0.051 A 
HETATM   12  C   UNL     1      44.000  -7.975  -0.208  1.00  0.00     0.071 C 
HETATM   13  C   UNL     1      43.499 -10.200  -1.221  1.00  0.00     0.054 A 
HETATM   14  C   UNL     1      42.604 -11.237  -1.365  1.00  0.00     0.051 A 
HETATM   15  N   UNL     1      41.385 -11.224  -0.786  1.00  0.00    -0.067 NA
HETATM   16  C   UNL     1      42.954 -12.428  -2.207  1.00  0.00     0.071 C 
ENDBRANCH   1   9
BRANCH   3  17
HETATM   17  C   UNL     1      37.122 -11.044   0.942  1.00  0.00     0.142 C 
BRANCH  17  18
HETATM   18  C   UNL     1      36.884 -12.507   0.541  1.00  0.00     0.061 C 
BRANCH  18  19
HETATM   19  C   UNL     1      38.022 -13.117  -0.221  1.00  0.00    -0.029 A 
HETATM   20  C   UNL     1      38.975 -14.066   0.269  1.00  0.00    -0.002 A 
HETATM   21  C   UNL     1      39.850 -14.358  -0.776  1.00  0.00     0.045 A 
HETATM   22  C   UNL     1      39.179 -14.705   1.511  1.00  0.00     0.017 A 
HETATM   23  C   UNL     1      40.904 -15.271  -0.646  1.00  0.00     0.067 A 
HETATM   24  N   UNL     1      39.471 -13.588  -1.851  1.00  0.00    -0.365 N 
HETATM   25  C   UNL     1      41.086 -15.895   0.593  1.00  0.00     0.070 A 
HETATM   26  C   UNL     1      40.236 -15.614   1.662  1.00  0.00     0.038 A 
HETATM   27  H   UNL     1      39.950 -13.563  -2.742  1.00  0.00     0.165 HD
HETATM   28  C   UNL     1      38.366 -12.846  -1.532  1.00  0.00     0.096 A 
BRANCH  25  29
HETATM   29  O   UNL     1      42.089 -16.829   0.619  1.00  0.00    -0.356 OA
HETATM   30  C   UNL     1      41.835 -17.991   1.404  1.00  0.00     0.210 C 
ENDBRANCH  25  29
ENDBRANCH  18  19
ENDBRANCH  17  18
ENDBRANCH   3  17
BRANCH   5  31
HETATM   31  C   UNL     1      41.409 -12.381   4.406  1.00  0.00     0.340 C 
BRANCH  31  32
HETATM   32  N   UNL     1      41.657 -13.888   4.266  1.00  0.00    -0.060 N 
HETATM   33  H   UNL     1      41.104 -14.189   3.449  1.00  0.00     0.280 HD
HETATM   34  C   UNL     1      43.116 -14.181   3.924  1.00  0.00     0.255 C 
HETATM   35  C   UNL     1      43.376 -15.697   3.819  1.00  0.00     0.150 C 
HETATM   36  N   UNL     1      42.901 -16.385   5.043  1.00  0.00    -0.378 N 
HETATM   37  C   UNL     1      41.476 -16.159   5.344  1.00  0.00     0.150 C 
HETATM   38  C   UNL     1      41.203 -14.650   5.496  1.00  0.00     0.255 C 
BRANCH  36  39
HETATM   39  C   UNL     1      43.415 -17.680   5.211  1.00  0.00     0.030 A 
HETATM   40  C   UNL     1      43.254 -18.330   6.450  1.00  0.00     0.032 A 
HETATM   41  C   UNL     1      43.721 -19.630   6.662  1.00  0.00     0.044 A 
HETATM   42  C   UNL     1      44.355 -20.303   5.630  1.00  0.00     0.116 A 
HETATM   43  F   UNL     1      44.801 -21.549   5.826  1.00  0.00    -0.206 F 
HETATM   44  C   UNL     1      44.526 -19.698   4.394  1.00  0.00     0.044 A 
HETATM   45  C   UNL     1      44.056 -18.396   4.187  1.00  0.00     0.032 A 
ENDBRANCH  36  39
ENDBRANCH  31  32
ENDBRANCH   5  31
TORSDOF 8
ENDMDL
MODEL 5
REMARK VINA RESULT:      -8.8      4.975      8.243
REMARK  8 active torsions:
REMARK  status: ('A' for Active; 'I' for Inactive)
REMARK    1  A    between atoms: C_4  and  N_5 
REMARK       I    between atoms: N_5  and  C_6 
REMARK       I    between atoms: C_6  and  N_7 
REMARK    2  A    between atoms: N_7  and  C_8 
REMARK    3  A    between atoms: C_8  and  C_9 
REMARK    4  A    between atoms: C_9  and  C_10 
REMARK    5  A    between atoms: C_14  and  O_15 
REMARK       I    between atoms: N_22  and  C_23 
REMARK    6  A    between atoms: C_23  and  C_24 
REMARK    7  A    between atoms: C_24  and  N_25 
REMARK    8  A    between atoms: N_29  and  C_30 
ROOT
HETATM    1  N   UNL     1      39.740  -9.725   0.374  1.00  0.00    -0.017 N 
HETATM    2  C   UNL     1      39.262 -10.267   1.529  1.00  0.00     0.718 C 
HETATM    3  N   UNL     1      37.912 -10.070   1.687  1.00  0.00    -0.223 N 
HETATM    4  N   UNL     1      40.032 -10.864   2.383  1.00  0.00    -0.026 NA
HETATM    5  C   UNL     1      39.565 -11.393   3.547  1.00  0.00     0.286 C 
HETATM    6  O   UNL     1      38.418 -11.342   3.994  1.00  0.00    -0.269 OA
HETATM    7  H   UNL     1      39.399  -8.813   0.120  1.00  0.00     0.203 HD
HETATM    8  H   UNL     1      37.537 -10.553   2.507  1.00  0.00     0.177 HD
ENDROOT
BRANCH   1   9
HETATM    9  C   UNL     1      41.016  -9.901  -0.152  1.00  0.00     0.741 A 
HETATM   10  N   UNL     1      41.340 -11.011  -0.839  1.00  0.00    -0.067 NA
HETATM   11  C   UNL     1      42.575 -11.075  -1.379  1.00  0.00     0.051 A 
HETATM   12  C   UNL     1      42.922 -12.305  -2.162  1.00  0.00     0.071 C 
HETATM   13  C   UNL     1      43.499 -10.063  -1.229  1.00  0.00     0.054 A 
HETATM   14  C   UNL     1      43.088  -8.959  -0.516  1.00  0.00     0.051 A 
HETATM   15  N   UNL     1      41.850  -8.863   0.014  1.00  0.00    -0.067 NA
HETATM   16  C   UNL     1      44.029  -7.815  -0.282  1.00  0.00     0.071 C 
ENDBRANCH   1   9
BRANCH   3  17
HETATM   17  C   UNL     1      36.937 -10.059   0.594  1.00  0.00     0.142 C 
BRANCH  17  18
HETATM   18  C   UNL     1      36.265 -11.421   0.371  1.00  0.00     0.061 C 
BRANCH  18  19
HETATM   19  C   UNL     1      37.234 -12.542   0.140  1.00  0.00    -0.029 A 
HETATM   20  C   UNL     1      37.990 -12.795  -1.050  1.00  0.00    -0.002 A 
HETATM   21  C   UNL     1      38.759 -13.934  -0.821  1.00  0.00     0.045 A 
HETATM   22  C   UNL     1      38.089 -12.162  -2.307  1.00  0.00     0.017 A 
HETATM   23  C   UNL     1      39.637 -14.458  -1.779  1.00  0.00     0.067 A 
HETATM   24  N   UNL     1      38.457 -14.383   0.443  1.00  0.00    -0.365 N 
HETATM   25  C   UNL     1      39.722 -13.812  -3.018  1.00  0.00     0.070 A 
HETATM   26  C   UNL     1      38.954 -12.678  -3.281  1.00  0.00     0.038 A 
HETATM   27  H   UNL     1      38.838 -15.219   0.867  1.00  0.00     0.165 HD
HETATM   28  C   UNL     1      37.549 -13.547   1.035  1.00  0.00     0.096 A 
BRANCH  25  29
HETATM   29  O   UNL     1      40.654 -14.339  -3.873  1.00  0.00    -0.356 OA
HETATM   30  C   UNL     1      41.405 -15.441  -3.370  1.00  0.00     0.210 C 
ENDBRANCH  25  29
ENDBRANCH  18  19
ENDBRANCH  17  18
ENDBRANCH   3  17
BRANCH   5  31
HETATM   31  C   UNL     1      40.672 -12.068   4.359  1.00  0.00     0.340 C 
BRANCH  31  32
HETATM   32  N   UNL     1      41.270 -13.295   3.659  1.00  0.00    -0.060 N 
HETATM   33  H   UNL     1      41.254 -13.080   2.651  1.00  0.00     0.280 HD
HETATM   34  C   UNL     1      42.739 -13.486   4.032  1.00  0.00     0.255 C 
HETATM   35  C   UNL     1      43.332 -14.740   3.358  1.00  0.00     0.150 C 
HETATM   36  N   UNL     1      42.487 -15.924   3.645  1.00  0.00    -0.378 N 
HETATM   37  C   UNL     1      41.081 -15.772   3.229  1.00  0.00     0.150 C 
HETATM   38  C   UNL     1      40.456 -14.547   3.925  1.00  0.00     0.255 C 
BRANCH  36  39
HETATM   39  C   UNL     1      43.118 -17.153   3.403  1.00  0.00     0.030 A 
HETATM   40  C   UNL     1      43.468 -17.974   4.493  1.00  0.00     0.032 A 
HETATM   41  C   UNL     1      44.073 -19.220   4.307  1.00  0.00     0.044 A 
HETATM   42  C   UNL     1      44.333 -19.667   3.021  1.00  0.00     0.116 A 
HETATM   43  F   UNL     1      44.908 -20.861   2.837  1.00  0.00    -0.206 F 
HETATM   44  C   UNL     1      43.997 -18.889   1.923  1.00  0.00     0.044 A 
HETATM   45  C   UNL     1      43.391 -17.642   2.115  1.00  0.00     0.032 A 
ENDBRANCH  36  39
ENDBRANCH  31  32
ENDBRANCH   5  31
TORSDOF 8
ENDMDL
MODEL 6
REMARK VINA RESULT:      -8.7      4.043      9.734
REMARK  8 active torsions:
REMARK  status: ('A' for Active; 'I' for Inactive)
REMARK    1  A    between atoms: C_4  and  N_5 
REMARK       I    between atoms: N_5  and  C_6 
REMARK       I    between atoms: C_6  and  N_7 
REMARK    2  A    between atoms: N_7  and  C_8 
REMARK    3  A    between atoms: C_8  and  C_9 
REMARK    4  A    between atoms: C_9  and  C_10 
REMARK    5  A    between atoms: C_14  and  O_15 
REMARK       I    between atoms: N_22  and  C_23 
REMARK    6  A    between atoms: C_23  and  C_24 
REMARK    7  A    between atoms: C_24  and  N_25 
REMARK    8  A    between atoms: N_29  and  C_30 
ROOT
HETATM    1  N   UNL     1      43.945 -16.884   5.971  1.00  0.00    -0.017 N 
HETATM    2  C   UNL     1      43.003 -15.900   5.941  1.00  0.00     0.718 C 
HETATM    3  N   UNL     1      43.196 -14.952   6.915  1.00  0.00    -0.223 N 
HETATM    4  N   UNL     1      42.021 -15.908   5.095  1.00  0.00    -0.026 NA
HETATM    5  C   UNL     1      41.066 -14.938   5.069  1.00  0.00     0.286 C 
HETATM    6  O   UNL     1      40.940 -13.983   5.837  1.00  0.00    -0.269 OA
HETATM    7  H   UNL     1      44.212 -17.235   6.876  1.00  0.00     0.203 HD
HETATM    8  H   UNL     1      42.544 -14.168   6.837  1.00  0.00     0.177 HD
ENDROOT
BRANCH   1   9
HETATM    9  C   UNL     1      44.123 -17.883   5.019  1.00  0.00     0.741 A 
HETATM   10  N   UNL     1      44.463 -19.134   5.377  1.00  0.00    -0.067 NA
HETATM   11  C   UNL     1      44.546 -20.064   4.403  1.00  0.00     0.051 A 
HETATM   12  C   UNL     1      44.904 -21.460   4.811  1.00  0.00     0.071 C 
HETATM   13  C   UNL     1      44.317 -19.765   3.077  1.00  0.00     0.054 A 
HETATM   14  C   UNL     1      43.969 -18.463   2.794  1.00  0.00     0.051 A 
HETATM   15  N   UNL     1      43.858 -17.521   3.754  1.00  0.00    -0.067 NA
HETATM   16  C   UNL     1      43.720 -18.036   1.378  1.00  0.00     0.071 C 
ENDBRANCH   1   9
BRANCH   3  17
HETATM   17  C   UNL     1      44.505 -14.499   7.390  1.00  0.00     0.142 C 
BRANCH  17  18
HETATM   18  C   UNL     1      44.687 -12.977   7.304  1.00  0.00     0.061 C 
BRANCH  18  19
HETATM   19  C   UNL     1      44.701 -12.295   8.639  1.00  0.00    -0.029 A 
HETATM   20  C   UNL     1      43.738 -11.359   9.138  1.00  0.00    -0.002 A 
HETATM   21  C   UNL     1      44.144 -10.983  10.417  1.00  0.00     0.045 A 
HETATM   22  C   UNL     1      42.557 -10.790   8.617  1.00  0.00     0.017 A 
HETATM   23  C   UNL     1      43.417 -10.085  11.208  1.00  0.00     0.067 A 
HETATM   24  N   UNL     1      45.329 -11.633  10.675  1.00  0.00    -0.365 N 
HETATM   25  C   UNL     1      42.246  -9.536  10.673  1.00  0.00     0.070 A 
HETATM   26  C   UNL     1      41.821  -9.881   9.390  1.00  0.00     0.038 A 
HETATM   27  H   UNL     1      45.878 -11.522  11.518  1.00  0.00     0.165 HD
HETATM   28  C   UNL     1      45.667 -12.432   9.617  1.00  0.00     0.096 A 
BRANCH  25  29
HETATM   29  O   UNL     1      41.552  -8.725  11.533  1.00  0.00    -0.356 OA
HETATM   30  C   UNL     1      41.004  -9.365  12.682  1.00  0.00     0.210 C 
ENDBRANCH  25  29
ENDBRANCH  18  19
ENDBRANCH  17  18
ENDBRANCH   3  17
BRANCH   5  31
HETATM   31  C   UNL     1      40.042 -15.167   3.957  1.00  0.00     0.340 C 
BRANCH  31  32
HETATM   32  N   UNL     1      40.223 -14.218   2.766  1.00  0.00    -0.060 N 
HETATM   33  H   UNL     1      39.852 -13.306   3.075  1.00  0.00     0.280 HD
HETATM   34  C   UNL     1      41.701 -13.995   2.453  1.00  0.00     0.255 C 
HETATM   35  C   UNL     1      41.884 -13.069   1.233  1.00  0.00     0.150 C 
HETATM   36  N   UNL     1      41.102 -13.579   0.081  1.00  0.00    -0.378 N 
HETATM   37  C   UNL     1      39.662 -13.735   0.356  1.00  0.00     0.150 C 
HETATM   38  C   UNL     1      39.455 -14.691   1.547  1.00  0.00     0.255 C 
BRANCH  36  39
HETATM   39  C   UNL     1      41.484 -13.039  -1.156  1.00  0.00     0.030 A 
HETATM   40  C   UNL     1      42.390 -11.961  -1.189  1.00  0.00     0.032 A 
HETATM   41  C   UNL     1      42.825 -11.405  -2.394  1.00  0.00     0.044 A 
HETATM   42  C   UNL     1      42.361 -11.926  -3.592  1.00  0.00     0.116 A 
HETATM   43  F   UNL     1      42.777 -11.400  -4.750  1.00  0.00    -0.206 F 
HETATM   44  C   UNL     1      41.473 -12.991  -3.601  1.00  0.00     0.044 A 
HETATM   45  C   UNL     1      41.041 -13.545  -2.390  1.00  0.00     0.032 A 
ENDBRANCH  36  39
ENDBRANCH  31  32
ENDBRANCH   5  31
TORSDOF 8
ENDMDL
MODEL 7
REMARK VINA RESULT:      -8.6      3.400      9.110
REMARK  8 active torsions:
REMARK  status: ('A' for Active; 'I' for Inactive)
REMARK    1  A    between atoms: C_4  and  N_5 
REMARK       I    between atoms: N_5  and  C_6 
REMARK       I    between atoms: C_6  and  N_7 
REMARK    2  A    between atoms: N_7  and  C_8 
REMARK    3  A    between atoms: C_8  and  C_9 
REMARK    4  A    between atoms: C_9  and  C_10 
REMARK    5  A    between atoms: C_14  and  O_15 
REMARK       I    between atoms: N_22  and  C_23 
REMARK    6  A    between atoms: C_23  and  C_24 
REMARK    7  A    between atoms: C_24  and  N_25 
REMARK    8  A    between atoms: N_29  and  C_30 
ROOT
HETATM    1  N   UNL     1      40.932 -12.555   4.852  1.00  0.00    -0.017 N 
HETATM    2  C   UNL     1      40.582 -12.488   3.537  1.00  0.00     0.718 C 
HETATM    3  N   UNL     1      40.157 -11.237   3.164  1.00  0.00    -0.223 N 
HETATM    4  N   UNL     1      40.621 -13.523   2.757  1.00  0.00    -0.026 NA
HETATM    5  C   UNL     1      40.258 -13.469   1.447  1.00  0.00     0.286 C 
HETATM    6  O   UNL     1      39.796 -12.508   0.830  1.00  0.00    -0.269 OA
HETATM    7  H   UNL     1      40.333 -12.083   5.510  1.00  0.00     0.203 HD
HETATM    8  H   UNL     1      39.981 -11.163   2.159  1.00  0.00     0.177 HD
ENDROOT
BRANCH   1   9
HETATM    9  C   UNL     1      41.556 -13.625   5.484  1.00  0.00     0.741 A 
HETATM   10  N   UNL     1      40.900 -14.775   5.721  1.00  0.00    -0.067 NA
HETATM   11  C   UNL     1      41.595 -15.791   6.273  1.00  0.00     0.051 A 
HETATM   12  C   UNL     1      40.863 -17.076   6.513  1.00  0.00     0.071 C 
HETATM   13  C   UNL     1      42.926 -15.675   6.614  1.00  0.00     0.054 A 
HETATM   14  C   UNL     1      43.526 -14.467   6.335  1.00  0.00     0.051 A 
HETATM   15  N   UNL     1      42.857 -13.444   5.763  1.00  0.00    -0.067 NA
HETATM   16  C   UNL     1      44.965 -14.237   6.688  1.00  0.00     0.071 C 
ENDBRANCH   1   9
BRANCH   3  17
HETATM   17  C   UNL     1      40.694  -9.982   3.694  1.00  0.00     0.142 C 
BRANCH  17  18
HETATM   18  C   UNL     1      39.719  -9.256   4.632  1.00  0.00     0.061 C 
BRANCH  18  19
HETATM   19  C   UNL     1      40.289  -8.967   5.989  1.00  0.00    -0.029 A 
HETATM   20  C   UNL     1      40.107  -9.741   7.180  1.00  0.00    -0.002 A 
HETATM   21  C   UNL     1      40.814  -9.109   8.201  1.00  0.00     0.045 A 
HETATM   22  C   UNL     1      39.401 -10.923   7.489  1.00  0.00     0.017 A 
HETATM   23  C   UNL     1      40.867  -9.611   9.508  1.00  0.00     0.067 A 
HETATM   24  N   UNL     1      41.374  -7.972   7.665  1.00  0.00    -0.365 N 
HETATM   25  C   UNL     1      40.162 -10.786   9.790  1.00  0.00     0.070 A 
HETATM   26  C   UNL     1      39.434 -11.435   8.794  1.00  0.00     0.038 A 
HETATM   27  H   UNL     1      41.914  -7.292   8.185  1.00  0.00     0.165 HD
HETATM   28  C   UNL     1      41.073  -7.883   6.333  1.00  0.00     0.096 A 
BRANCH  25  29
HETATM   29  O   UNL     1      40.322 -11.253  11.069  1.00  0.00    -0.356 OA
HETATM   30  C   UNL     1      40.795 -10.305  12.022  1.00  0.00     0.210 C 
ENDBRANCH  25  29
ENDBRANCH  18  19
ENDBRANCH  17  18
ENDBRANCH   3  17
BRANCH   5  31
HETATM   31  C   UNL     1      40.428 -14.818   0.745  1.00  0.00     0.340 C 
BRANCH  31  32
HETATM   32  N   UNL     1      41.456 -15.728   1.428  1.00  0.00    -0.060 N 
HETATM   33  H   UNL     1      42.051 -15.104   1.995  1.00  0.00     0.280 HD
HETATM   34  C   UNL     1      40.784 -16.685   2.410  1.00  0.00     0.255 C 
HETATM   35  C   UNL     1      41.812 -17.626   3.070  1.00  0.00     0.150 C 
HETATM   36  N   UNL     1      42.624 -18.308   2.034  1.00  0.00    -0.378 N 
HETATM   37  C   UNL     1      43.327 -17.389   1.122  1.00  0.00     0.150 C 
HETATM   38  C   UNL     1      42.313 -16.467   0.418  1.00  0.00     0.255 C 
BRANCH  36  39
HETATM   39  C   UNL     1      43.315 -19.438   2.496  1.00  0.00     0.030 A 
HETATM   40  C   UNL     1      43.934 -19.398   3.761  1.00  0.00     0.032 A 
HETATM   41  C   UNL     1      44.611 -20.504   4.281  1.00  0.00     0.044 A 
HETATM   42  C   UNL     1      44.674 -21.674   3.541  1.00  0.00     0.116 A 
HETATM   43  F   UNL     1      45.318 -22.738   4.036  1.00  0.00    -0.206 F 
HETATM   44  C   UNL     1      44.072 -21.754   2.295  1.00  0.00     0.044 A 
HETATM   45  C   UNL     1      43.394 -20.643   1.779  1.00  0.00     0.032 A 
ENDBRANCH  36  39
ENDBRANCH  31  32
ENDBRANCH   5  31
TORSDOF 8
ENDMDL
MODEL 8
REMARK VINA RESULT:      -8.6      2.766      5.435
REMARK  8 active torsions:
REMARK  status: ('A' for Active; 'I' for Inactive)
REMARK    1  A    between atoms: C_4  and  N_5 
REMARK       I    between atoms: N_5  and  C_6 
REMARK       I    between atoms: C_6  and  N_7 
REMARK    2  A    between atoms: N_7  and  C_8 
REMARK    3  A    between atoms: C_8  and  C_9 
REMARK    4  A    between atoms: C_9  and  C_10 
REMARK    5  A    between atoms: C_14  and  O_15 
REMARK       I    between atoms: N_22  and  C_23 
REMARK    6  A    between atoms: C_23  and  C_24 
REMARK    7  A    between atoms: C_24  and  N_25 
REMARK    8  A    between atoms: N_29  and  C_30 
ROOT
HETATM    1  N   UNL     1      40.212 -15.441  -0.140  1.00  0.00    -0.017 N 
HETATM    2  C   UNL     1      40.340 -15.339   1.212  1.00  0.00     0.718 C 
HETATM    3  N   UNL     1      40.504 -16.558   1.823  1.00  0.00    -0.223 N 
HETATM    4  N   UNL     1      40.272 -14.201   1.830  1.00  0.00    -0.026 NA
HETATM    5  C   UNL     1      40.382 -14.093   3.182  1.00  0.00     0.286 C 
HETATM    6  O   UNL     1      40.492 -15.002   4.007  1.00  0.00    -0.269 OA
HETATM    7  H   UNL     1      39.633 -16.186  -0.491  1.00  0.00     0.203 HD
HETATM    8  H   UNL     1      40.690 -16.476   2.825  1.00  0.00     0.177 HD
ENDROOT
BRANCH   1   9
HETATM    9  C   UNL     1      40.205 -14.387  -1.048  1.00  0.00     0.741 A 
HETATM   10  N   UNL     1      39.055 -13.795  -1.420  1.00  0.00    -0.067 NA
HETATM   11  C   UNL     1      39.137 -12.733  -2.249  1.00  0.00     0.051 A 
HETATM   12  C   UNL     1      37.855 -12.065  -2.642  1.00  0.00     0.071 C 
HETATM   13  C   UNL     1      40.341 -12.264  -2.730  1.00  0.00     0.054 A 
HETATM   14  C   UNL     1      41.471 -12.922  -2.298  1.00  0.00     0.051 A 
HETATM   15  N   UNL     1      41.416 -13.972  -1.452  1.00  0.00    -0.067 NA
HETATM   16  C   UNL     1      42.826 -12.498  -2.782  1.00  0.00     0.071 C 
ENDBRANCH   1   9
BRANCH   3  17
HETATM   17  C   UNL     1      41.236 -17.688   1.245  1.00  0.00     0.142 C 
BRANCH  17  18
HETATM   18  C   UNL     1      42.760 -17.528   1.333  1.00  0.00     0.061 C 
BRANCH  18  19
HETATM   19  C   UNL     1      43.414 -18.494   2.276  1.00  0.00    -0.029 A 
HETATM   20  C   UNL     1      43.319 -18.500   3.704  1.00  0.00    -0.002 A 
HETATM   21  C   UNL     1      44.082 -19.569   4.170  1.00  0.00     0.045 A 
HETATM   22  C   UNL     1      42.655 -17.689   4.650  1.00  0.00     0.017 A 
HETATM   23  C   UNL     1      44.196 -19.880   5.531  1.00  0.00     0.067 A 
HETATM   24  N   UNL     1      44.653 -20.169   3.073  1.00  0.00    -0.365 N 
HETATM   25  C   UNL     1      43.527 -19.065   6.451  1.00  0.00     0.070 A 
HETATM   26  C   UNL     1      42.767 -17.979   6.018  1.00  0.00     0.038 A 
HETATM   27  H   UNL     1      45.292 -20.953   3.109  1.00  0.00     0.165 HD
HETATM   28  C   UNL     1      44.250 -19.538   1.927  1.00  0.00     0.096 A 
BRANCH  25  29
HETATM   29  O   UNL     1      43.627 -19.476   7.755  1.00  0.00    -0.356 OA
HETATM   30  C   UNL     1      44.442 -18.669   8.600  1.00  0.00     0.210 C 
ENDBRANCH  25  29
ENDBRANCH  18  19
ENDBRANCH  17  18
ENDBRANCH   3  17
BRANCH   5  31
HETATM   31  C   UNL     1      40.300 -12.639   3.652  1.00  0.00     0.340 C 
BRANCH  31  32
HETATM   32  N   UNL     1      40.473 -12.485   5.168  1.00  0.00    -0.060 N 
HETATM   33  H   UNL     1      41.033 -13.297   5.471  1.00  0.00     0.280 HD
HETATM   34  C   UNL     1      41.299 -11.246   5.509  1.00  0.00     0.255 C 
HETATM   35  C   UNL     1      41.444 -11.069   7.034  1.00  0.00     0.150 C 
HETATM   36  N   UNL     1      40.110 -11.093   7.682  1.00  0.00    -0.378 N 
HETATM   37  C   UNL     1      39.333 -12.316   7.410  1.00  0.00     0.150 C 
HETATM   38  C   UNL     1      39.140 -12.489   5.891  1.00  0.00     0.255 C 
BRANCH  36  39
HETATM   39  C   UNL     1      40.096 -10.577   8.987  1.00  0.00     0.030 A 
HETATM   40  C   UNL     1      41.288 -10.562   9.736  1.00  0.00     0.032 A 
HETATM   41  C   UNL     1      41.336 -10.034  11.029  1.00  0.00     0.044 A 
HETATM   42  C   UNL     1      40.185  -9.507  11.592  1.00  0.00     0.116 A 
HETATM   43  F   UNL     1      40.225  -8.996  12.828  1.00  0.00    -0.206 F 
HETATM   44  C   UNL     1      38.993  -9.498  10.883  1.00  0.00     0.044 A 
HETATM   45  C   UNL     1      38.951 -10.027   9.588  1.00  0.00     0.032 A 
ENDBRANCH  36  39
ENDBRANCH  31  32
ENDBRANCH   5  31
TORSDOF 8
ENDMDL
MODEL 9
REMARK VINA RESULT:      -8.6      3.414      8.966
REMARK  8 active torsions:
REMARK  status: ('A' for Active; 'I' for Inactive)
REMARK    1  A    between atoms: C_4  and  N_5 
REMARK       I    between atoms: N_5  and  C_6 
REMARK       I    between atoms: C_6  and  N_7 
REMARK    2  A    between atoms: N_7  and  C_8 
REMARK    3  A    between atoms: C_8  and  C_9 
REMARK    4  A    between atoms: C_9  and  C_10 
REMARK    5  A    between atoms: C_14  and  O_15 
REMARK       I    between atoms: N_22  and  C_23 
REMARK    6  A    between atoms: C_23  and  C_24 
REMARK    7  A    between atoms: C_24  and  N_25 
REMARK    8  A    between atoms: N_29  and  C_30 
ROOT
HETATM    1  N   UNL     1      41.488 -12.840   6.135  1.00  0.00    -0.017 N 
HETATM    2  C   UNL     1      40.876 -12.607   4.940  1.00  0.00     0.718 C 
HETATM    3  N   UNL     1      40.102 -11.473   4.954  1.00  0.00    -0.223 N 
HETATM    4  N   UNL     1      41.003 -13.410   3.930  1.00  0.00    -0.026 NA
HETATM    5  C   UNL     1      40.382 -13.193   2.739  1.00  0.00     0.286 C 
HETATM    6  O   UNL     1      39.591 -12.292   2.451  1.00  0.00    -0.269 OA
HETATM    7  H   UNL     1      40.939 -12.696   6.967  1.00  0.00     0.203 HD
HETATM    8  H   UNL     1      39.715 -11.249   4.034  1.00  0.00     0.177 HD
ENDROOT
BRANCH   1   9
HETATM    9  C   UNL     1      42.461 -13.800   6.388  1.00  0.00     0.741 A 
HETATM   10  N   UNL     1      42.147 -15.106   6.476  1.00  0.00    -0.067 NA
HETATM   11  C   UNL     1      43.157 -15.983   6.652  1.00  0.00     0.051 A 
HETATM   12  C   UNL     1      42.803 -17.437   6.727  1.00  0.00     0.071 C 
HETATM   13  C   UNL     1      44.472 -15.582   6.762  1.00  0.00     0.054 A 
HETATM   14  C   UNL     1      44.710 -14.229   6.657  1.00  0.00     0.051 A 
HETATM   15  N   UNL     1      43.718 -13.335   6.459  1.00  0.00    -0.067 NA
HETATM   16  C   UNL     1      46.105 -13.694   6.785  1.00  0.00     0.071 C 
ENDBRANCH   1   9
BRANCH   3  17
HETATM   17  C   UNL     1      40.421 -10.254   5.699  1.00  0.00     0.142 C 
BRANCH  17  18
HETATM   18  C   UNL     1      39.286  -9.797   6.626  1.00  0.00     0.061 C 
BRANCH  18  19
HETATM   19  C   UNL     1      39.513 -10.133   8.069  1.00  0.00    -0.029 A 
HETATM   20  C   UNL     1      40.767 -10.421   8.699  1.00  0.00    -0.002 A 
HETATM   21  C   UNL     1      40.511 -10.676  10.045  1.00  0.00     0.045 A 
HETATM   22  C   UNL     1      42.102 -10.494   8.247  1.00  0.00     0.017 A 
HETATM   23  C   UNL     1      41.524 -10.978  10.963  1.00  0.00     0.067 A 
HETATM   24  N   UNL     1      39.150 -10.586  10.223  1.00  0.00    -0.365 N 
HETATM   25  C   UNL     1      42.841 -11.042  10.494  1.00  0.00     0.070 A 
HETATM   26  C   UNL     1      43.128 -10.805   9.150  1.00  0.00     0.038 A 
HETATM   27  H   UNL     1      38.668 -10.761  11.096  1.00  0.00     0.165 HD
HETATM   28  C   UNL     1      38.541 -10.250   9.045  1.00  0.00     0.096 A 
BRANCH  25  29
HETATM   29  O   UNL     1      43.781 -11.269  11.464  1.00  0.00    -0.356 OA
HETATM   30  C   UNL     1      44.628 -12.396  11.256  1.00  0.00     0.210 C 
ENDBRANCH  25  29
ENDBRANCH  18  19
ENDBRANCH  17  18
ENDBRANCH   3  17
BRANCH   5  31
HETATM   31  C   UNL     1      40.722 -14.270   1.707  1.00  0.00     0.340 C 
BRANCH  31  32
HETATM   32  N   UNL     1      41.646 -15.363   2.259  1.00  0.00    -0.060 N 
HETATM   33  H   UNL     1      42.190 -14.917   3.013  1.00  0.00     0.280 HD
HETATM   34  C   UNL     1      40.846 -16.486   2.915  1.00  0.00     0.255 C 
HETATM   35  C   UNL     1      41.771 -17.604   3.438  1.00  0.00     0.150 C 
HETATM   36  N   UNL     1      42.674 -18.069   2.359  1.00  0.00    -0.378 N 
HETATM   37  C   UNL     1      43.497 -17.001   1.763  1.00  0.00     0.150 C 
HETATM   38  C   UNL     1      42.590 -15.892   1.196  1.00  0.00     0.255 C 
BRANCH  36  39
HETATM   39  C   UNL     1      43.282 -19.308   2.611  1.00  0.00     0.030 A 
HETATM   40  C   UNL     1      43.108 -20.361   1.692  1.00  0.00     0.032 A 
HETATM   41  C   UNL     1      43.713 -21.606   1.880  1.00  0.00     0.044 A 
HETATM   42  C   UNL     1      44.510 -21.815   2.995  1.00  0.00     0.116 A 
HETATM   43  F   UNL     1      45.096 -23.004   3.179  1.00  0.00    -0.206 F 
HETATM   44  C   UNL     1      44.711 -20.800   3.919  1.00  0.00     0.044 A 
HETATM   45  C   UNL     1      44.103 -19.554   3.724  1.00  0.00     0.032 A 
ENDBRANCH  36  39
ENDBRANCH  31  32
ENDBRANCH   5  31
TORSDOF 8
ENDMDL
MODEL 10
REMARK VINA RESULT:      -8.4      3.082      4.970
REMARK  8 active torsions:
REMARK  status: ('A' for Active; 'I' for Inactive)
REMARK    1  A    between atoms: C_4  and  N_5 
REMARK       I    between atoms: N_5  and  C_6 
REMARK       I    between atoms: C_6  and  N_7 
REMARK    2  A    between atoms: N_7  and  C_8 
REMARK    3  A    between atoms: C_8  and  C_9 
REMARK    4  A    between atoms: C_9  and  C_10 
REMARK    5  A    between atoms: C_14  and  O_15 
REMARK       I    between atoms: N_22  and  C_23 
REMARK    6  A    between atoms: C_23  and  C_24 
REMARK    7  A    between atoms: C_24  and  N_25 
REMARK    8  A    between atoms: N_29  and  C_30 
ROOT
HETATM    1  N   UNL     1      42.517 -13.965   2.425  1.00  0.00    -0.017 N 
HETATM    2  C   UNL     1      41.760 -12.899   2.808  1.00  0.00     0.718 C 
HETATM    3  N   UNL     1      41.848 -11.844   1.933  1.00  0.00    -0.223 N 
HETATM    4  N   UNL     1      41.071 -12.899   3.906  1.00  0.00    -0.026 NA
HETATM    5  C   UNL     1      40.325 -11.833   4.304  1.00  0.00     0.286 C 
HETATM    6  O   UNL     1      40.232 -10.730   3.761  1.00  0.00    -0.269 OA
HETATM    7  H   UNL     1      43.439 -13.768   2.070  1.00  0.00     0.203 HD
HETATM    8  H   UNL     1      41.212 -11.080   2.171  1.00  0.00     0.177 HD
ENDROOT
BRANCH   1   9
HETATM    9  C   UNL     1      42.508 -15.231   3.001  1.00  0.00     0.741 A 
HETATM   10  N   UNL     1      41.812 -15.481   4.125  1.00  0.00    -0.067 NA
HETATM   11  C   UNL     1      41.795 -16.751   4.581  1.00  0.00     0.051 A 
HETATM   12  C   UNL     1      41.000 -17.027   5.821  1.00  0.00     0.071 C 
HETATM   13  C   UNL     1      42.474 -17.771   3.950  1.00  0.00     0.054 A 
HETATM   14  C   UNL     1      43.158 -17.433   2.803  1.00  0.00     0.051 A 
HETATM   15  N   UNL     1      43.172 -16.175   2.316  1.00  0.00    -0.067 NA
HETATM   16  C   UNL     1      43.944 -18.470   2.057  1.00  0.00     0.071 C 
ENDBRANCH   1   9
BRANCH   3  17
HETATM   17  C   UNL     1      41.989 -11.975   0.481  1.00  0.00     0.142 C 
BRANCH  17  18
HETATM   18  C   UNL     1      40.652 -11.877  -0.268  1.00  0.00     0.061 C 
BRANCH  18  19
HETATM   19  C   UNL     1      40.297 -13.117  -1.033  1.00  0.00    -0.029 A 
HETATM   20  C   UNL     1      39.214 -13.277  -1.956  1.00  0.00    -0.002 A 
HETATM   21  C   UNL     1      39.261 -14.586  -2.432  1.00  0.00     0.045 A 
HETATM   22  C   UNL     1      38.190 -12.430  -2.430  1.00  0.00     0.017 A 
HETATM   23  C   UNL     1      38.349 -15.082  -3.373  1.00  0.00     0.067 A 
HETATM   24  N   UNL     1      40.307 -15.213  -1.796  1.00  0.00    -0.365 N 
HETATM   25  C   UNL     1      37.345 -14.223  -3.832  1.00  0.00     0.070 A 
HETATM   26  C   UNL     1      37.263 -12.912  -3.364  1.00  0.00     0.038 A 
HETATM   27  H   UNL     1      40.558 -16.186  -1.916  1.00  0.00     0.165 HD
HETATM   28  C   UNL     1      40.944 -14.335  -0.961  1.00  0.00     0.096 A 
BRANCH  25  29
HETATM   29  O   UNL     1      36.539 -14.756  -4.804  1.00  0.00    -0.356 OA
HETATM   30  C   UNL     1      35.266 -14.136  -4.964  1.00  0.00     0.210 C 
ENDBRANCH  25  29
ENDBRANCH  18  19
ENDBRANCH  17  18
ENDBRANCH   3  17
BRANCH   5  31
HETATM   31  C   UNL     1      39.586 -12.103   5.616  1.00  0.00     0.340 C 
BRANCH  31  32
HETATM   32  N   UNL     1      40.112 -11.266   6.788  1.00  0.00    -0.060 N 
HETATM   33  H   UNL     1      39.871 -10.288   6.566  1.00  0.00     0.280 HD
HETATM   34  C   UNL     1      39.379 -11.603   8.084  1.00  0.00     0.255 C 
HETATM   35  C   UNL     1      39.931 -10.789   9.272  1.00  0.00     0.150 C 
HETATM   36  N   UNL     1      41.402 -10.947   9.362  1.00  0.00    -0.378 N 
HETATM   37  C   UNL     1      42.123 -10.562   8.135  1.00  0.00     0.150 C 
HETATM   38  C   UNL     1      41.615 -11.395   6.943  1.00  0.00     0.255 C 
BRANCH  36  39
HETATM   39  C   UNL     1      41.947 -10.564  10.597  1.00  0.00     0.030 A 
HETATM   40  C   UNL     1      43.345 -10.451  10.728  1.00  0.00     0.032 A 
HETATM   41  C   UNL     1      43.939 -10.045  11.926  1.00  0.00     0.044 A 
HETATM   42  C   UNL     1      43.137  -9.743  13.015  1.00  0.00     0.116 A 
HETATM   43  F   UNL     1      43.699  -9.350  14.164  1.00  0.00    -0.206 F 
HETATM   44  C   UNL     1      41.756  -9.837  12.923  1.00  0.00     0.044 A 
HETATM   45  C   UNL     1      41.167 -10.242  11.720  1.00  0.00     0.032 A 
ENDBRANCH  36  39
ENDBRANCH  31  32
ENDBRANCH   5  31
TORSDOF 8
ENDMDL
