MODEL 1
REMARK VINA RESULT:      -7.7      0.000      0.000
REMARK  3 active torsions:
REMARK  status: ('A' for Active; 'I' for Inactive)
REMARK    1  A    between atoms: C_5  and  N_6 
REMARK       I    between atoms: N_6  and  C_7 
REMARK    2  A    between atoms: C_7  and  C_8 
REMARK    3  A    between atoms: C_8  and  C_9 
ROOT
HETATM    1  C   UNL     1      40.744 -14.574   1.946  1.00  0.00     0.286 C 
HETATM    2  N   UNL     1      41.691 -13.698   1.126  1.00  0.00    -0.056 N 
HETATM    3  H   UNL     1      41.663 -12.751   1.557  1.00  0.00     0.278 HD
HETATM    4  H   UNL     1      42.659 -14.029   1.219  1.00  0.00     0.278 HD
HETATM    5  C   UNL     1      41.257 -13.649  -0.307  1.00  0.00     0.209 C 
HETATM    6  C   UNL     1      41.307 -15.087  -0.876  1.00  0.00     0.115 C 
HETATM    7  N   UNL     1      40.568 -16.040  -0.051  1.00  0.00    -0.353 N 
HETATM    8  C   UNL     1      40.585 -15.981   1.330  1.00  0.00     0.249 C 
HETATM    9  O   UNL     1      40.401 -16.990   1.998  1.00  0.00    -0.271 OA
HETATM   10  C   UNL     1      42.154 -12.715  -1.106  1.00  0.00     0.035 C 
HETATM   11  C   UNL     1      41.715 -12.702  -2.572  1.00  0.00     0.002 C 
HETATM   12  C   UNL     1      41.652 -14.108  -3.173  1.00  0.00     0.002 C 
HETATM   13  C   UNL     1      40.824 -15.079  -2.326  1.00  0.00     0.027 C 
HETATM   14  H   UNL     1      40.483 -16.996  -0.394  1.00  0.00     0.163 HD
ENDROOT
BRANCH   1  15
HETATM   15  C   UNL     1      41.175 -14.629   3.416  1.00  0.00     0.146 C 
BRANCH  15  16
HETATM   16  C   UNL     1      42.641 -14.293   3.525  1.00  0.00     0.224 C 
HETATM   17  N   UNL     1      43.616 -15.231   3.454  1.00  0.00    -0.327 N 
HETATM   18  H   UNL     1      44.529 -14.845   3.682  1.00  0.00     0.169 HD
HETATM   19  O   UNL     1      42.963 -13.108   3.693  1.00  0.00    -0.273 OA
BRANCH  17  20
HETATM   20  C   UNL     1      43.620 -16.607   3.155  1.00  0.00     0.034 A 
HETATM   21  C   UNL     1      43.300 -17.629   4.047  1.00  0.00     0.030 A 
HETATM   22  C   UNL     1      43.325 -18.968   3.634  1.00  0.00     0.009 A 
HETATM   23  C   UNL     1      43.671 -19.306   2.324  1.00  0.00    -0.062 A 
HETATM   24  C   UNL     1      43.676 -20.737   1.869  1.00  0.00     0.048 C 
HETATM   25  C   UNL     1      43.964 -18.284   1.420  1.00  0.00     0.009 A 
HETATM   26  C   UNL     1      43.932 -16.949   1.832  1.00  0.00     0.030 A 
ENDBRANCH  17  20
ENDBRANCH  15  16
ENDBRANCH   1  15
TORSDOF 3
ENDMDL
MODEL 2
REMARK VINA RESULT:      -7.5      3.208      4.709
REMARK  3 active torsions:
REMARK  status: ('A' for Active; 'I' for Inactive)
REMARK    1  A    between atoms: C_5  and  N_6 
REMARK       I    between atoms: N_6  and  C_7 
REMARK    2  A    between atoms: C_7  and  C_8 
REMARK    3  A    between atoms: C_8  and  C_9 
ROOT
HETATM    1  C   UNL     1      41.243 -16.346   3.157  1.00  0.00     0.286 C 
HETATM    2  N   UNL     1      40.292 -15.246   2.685  1.00  0.00    -0.056 N 
HETATM    3  H   UNL     1      40.608 -14.974   1.731  1.00  0.00     0.278 HD
HETATM    4  H   UNL     1      39.339 -15.616   2.580  1.00  0.00     0.278 HD
HETATM    5  C   UNL     1      40.334 -14.076   3.620  1.00  0.00     0.209 C 
HETATM    6  C   UNL     1      39.871 -14.557   5.015  1.00  0.00     0.115 C 
HETATM    7  N   UNL     1      40.613 -15.728   5.477  1.00  0.00    -0.353 N 
HETATM    8  C   UNL     1      40.971 -16.751   4.622  1.00  0.00     0.249 C 
HETATM    9  O   UNL     1      41.136 -17.888   5.046  1.00  0.00    -0.271 OA
HETATM   10  C   UNL     1      39.447 -12.951   3.107  1.00  0.00     0.035 C 
HETATM   11  C   UNL     1      39.478 -11.778   4.089  1.00  0.00     0.002 C 
HETATM   12  C   UNL     1      39.119 -12.203   5.516  1.00  0.00     0.002 C 
HETATM   13  C   UNL     1      39.947 -13.394   6.006  1.00  0.00     0.027 C 
HETATM   14  H   UNL     1      40.426 -16.063   6.421  1.00  0.00     0.163 HD
ENDROOT
BRANCH   1  15
HETATM   15  C   UNL     1      41.213 -17.549   2.206  1.00  0.00     0.146 C 
BRANCH  15  16
HETATM   16  C   UNL     1      42.367 -17.459   1.241  1.00  0.00     0.224 C 
HETATM   17  N   UNL     1      43.476 -18.230   1.348  1.00  0.00    -0.327 N 
HETATM   18  H   UNL     1      44.201 -17.941   0.696  1.00  0.00     0.169 HD
HETATM   19  O   UNL     1      42.297 -16.639   0.313  1.00  0.00    -0.273 OA
BRANCH  17  20
HETATM   20  C   UNL     1      43.828 -19.314   2.173  1.00  0.00     0.034 A 
HETATM   21  C   UNL     1      43.854 -20.652   1.783  1.00  0.00     0.030 A 
HETATM   22  C   UNL     1      44.234 -21.651   2.691  1.00  0.00     0.009 A 
HETATM   23  C   UNL     1      44.594 -21.327   4.001  1.00  0.00    -0.062 A 
HETATM   24  C   UNL     1      45.026 -22.389   4.970  1.00  0.00     0.048 C 
HETATM   25  C   UNL     1      44.597 -19.986   4.387  1.00  0.00     0.009 A 
HETATM   26  C   UNL     1      44.223 -18.992   3.478  1.00  0.00     0.030 A 
ENDBRANCH  17  20
ENDBRANCH  15  16
ENDBRANCH   1  15
TORSDOF 3
ENDMDL
MODEL 3
REMARK VINA RESULT:      -7.4      2.410      6.308
REMARK  3 active torsions:
REMARK  status: ('A' for Active; 'I' for Inactive)
REMARK    1  A    between atoms: C_5  and  N_6 
REMARK       I    between atoms: N_6  and  C_7 
REMARK    2  A    between atoms: C_7  and  C_8 
REMARK    3  A    between atoms: C_8  and  C_9 
ROOT
HETATM    1  C   UNL     1      43.521 -17.701   4.797  1.00  0.00     0.286 C 
HETATM    2  N   UNL     1      43.663 -18.178   3.351  1.00  0.00    -0.056 N 
HETATM    3  H   UNL     1      42.878 -17.746   2.821  1.00  0.00     0.278 HD
HETATM    4  H   UNL     1      44.529 -17.811   2.936  1.00  0.00     0.278 HD
HETATM    5  C   UNL     1      43.603 -19.672   3.280  1.00  0.00     0.209 C 
HETATM    6  C   UNL     1      44.784 -20.243   4.100  1.00  0.00     0.115 C 
HETATM    7  N   UNL     1      44.834 -19.703   5.457  1.00  0.00    -0.353 N 
HETATM    8  C   UNL     1      44.550 -18.379   5.728  1.00  0.00     0.249 C 
HETATM    9  O   UNL     1      45.037 -17.826   6.706  1.00  0.00    -0.271 OA
HETATM   10  C   UNL     1      43.666 -20.141   1.833  1.00  0.00     0.035 C 
HETATM   11  C   UNL     1      43.634 -21.671   1.782  1.00  0.00     0.002 C 
HETATM   12  C   UNL     1      44.723 -22.305   2.651  1.00  0.00     0.002 C 
HETATM   13  C   UNL     1      44.723 -21.771   4.086  1.00  0.00     0.027 C 
HETATM   14  H   UNL     1      45.534 -20.084   6.092  1.00  0.00     0.163 HD
ENDROOT
BRANCH   1  15
HETATM   15  C   UNL     1      43.578 -16.172   4.883  1.00  0.00     0.146 C 
BRANCH  15  16
HETATM   16  C   UNL     1      42.210 -15.634   5.218  1.00  0.00     0.224 C 
HETATM   17  N   UNL     1      41.295 -15.313   4.271  1.00  0.00    -0.327 N 
HETATM   18  H   UNL     1      40.487 -14.842   4.671  1.00  0.00     0.169 HD
HETATM   19  O   UNL     1      41.914 -15.475   6.411  1.00  0.00    -0.273 OA
BRANCH  17  20
HETATM   20  C   UNL     1      41.247 -15.476   2.874  1.00  0.00     0.034 A 
HETATM   21  C   UNL     1      40.868 -16.642   2.209  1.00  0.00     0.030 A 
HETATM   22  C   UNL     1      40.845 -16.686   0.808  1.00  0.00     0.009 A 
HETATM   23  C   UNL     1      41.200 -15.568   0.050  1.00  0.00    -0.062 A 
HETATM   24  C   UNL     1      41.153 -15.601  -1.449  1.00  0.00     0.048 C 
HETATM   25  C   UNL     1      41.552 -14.391   0.713  1.00  0.00     0.009 A 
HETATM   26  C   UNL     1      41.568 -14.347   2.109  1.00  0.00     0.030 A 
ENDBRANCH  17  20
ENDBRANCH  15  16
ENDBRANCH   1  15
TORSDOF 3
ENDMDL
MODEL 4
REMARK VINA RESULT:      -7.4      2.491      3.522
REMARK  3 active torsions:
REMARK  status: ('A' for Active; 'I' for Inactive)
REMARK    1  A    between atoms: C_5  and  N_6 
REMARK       I    between atoms: N_6  and  C_7 
REMARK    2  A    between atoms: C_7  and  C_8 
REMARK    3  A    between atoms: C_8  and  C_9 
ROOT
HETATM    1  C   UNL     1      41.709 -16.029   4.603  1.00  0.00     0.286 C 
HETATM    2  N   UNL     1      41.409 -16.578   3.209  1.00  0.00    -0.056 N 
HETATM    3  H   UNL     1      42.261 -17.094   2.907  1.00  0.00     0.278 HD
HETATM    4  H   UNL     1      40.651 -17.272   3.251  1.00  0.00     0.278 HD
HETATM    5  C   UNL     1      41.089 -15.465   2.260  1.00  0.00     0.209 C 
HETATM    6  C   UNL     1      39.828 -14.735   2.779  1.00  0.00     0.115 C 
HETATM    7  N   UNL     1      39.955 -14.324   4.175  1.00  0.00    -0.353 N 
HETATM    8  C   UNL     1      40.571 -15.122   5.120  1.00  0.00     0.249 C 
HETATM    9  O   UNL     1      40.267 -15.033   6.302  1.00  0.00    -0.271 OA
HETATM   10  C   UNL     1      40.868 -16.007   0.855  1.00  0.00     0.035 C 
HETATM   11  C   UNL     1      40.512 -14.859  -0.093  1.00  0.00     0.002 C 
HETATM   12  C   UNL     1      39.325 -14.033   0.410  1.00  0.00     0.002 C 
HETATM   13  C   UNL     1      39.502 -13.560   1.856  1.00  0.00     0.027 C 
HETATM   14  H   UNL     1      39.201 -13.767   4.574  1.00  0.00     0.163 HD
ENDROOT
BRANCH   1  15
HETATM   15  C   UNL     1      42.041 -17.159   5.584  1.00  0.00     0.146 C 
BRANCH  15  16
HETATM   16  C   UNL     1      43.490 -17.066   5.989  1.00  0.00     0.224 C 
HETATM   17  N   UNL     1      44.428 -17.949   5.569  1.00  0.00    -0.327 N 
HETATM   18  H   UNL     1      45.316 -17.813   6.046  1.00  0.00     0.169 HD
HETATM   19  O   UNL     1      43.833 -16.145   6.744  1.00  0.00    -0.273 OA
BRANCH  17  20
HETATM   20  C   UNL     1      44.418 -19.006   4.640  1.00  0.00     0.034 A 
HETATM   21  C   UNL     1      44.702 -20.340   4.930  1.00  0.00     0.030 A 
HETATM   22  C   UNL     1      44.649 -21.315   3.924  1.00  0.00     0.009 A 
HETATM   23  C   UNL     1      44.313 -20.971   2.612  1.00  0.00    -0.062 A 
HETATM   24  C   UNL     1      44.230 -22.014   1.536  1.00  0.00     0.048 C 
HETATM   25  C   UNL     1      43.999 -19.642   2.324  1.00  0.00     0.009 A 
HETATM   26  C   UNL     1      44.047 -18.674   3.330  1.00  0.00     0.030 A 
ENDBRANCH  17  20
ENDBRANCH  15  16
ENDBRANCH   1  15
TORSDOF 3
ENDMDL
MODEL 5
REMARK VINA RESULT:      -7.2      2.018      6.636
REMARK  3 active torsions:
REMARK  status: ('A' for Active; 'I' for Inactive)
REMARK    1  A    between atoms: C_5  and  N_6 
REMARK       I    between atoms: N_6  and  C_7 
REMARK    2  A    between atoms: C_7  and  C_8 
REMARK    3  A    between atoms: C_8  and  C_9 
ROOT
HETATM    1  C   UNL     1      41.080 -17.029   2.514  1.00  0.00     0.286 C 
HETATM    2  N   UNL     1      42.326 -17.679   1.914  1.00  0.00    -0.056 N 
HETATM    3  H   UNL     1      42.044 -18.055   0.985  1.00  0.00     0.278 HD
HETATM    4  H   UNL     1      43.049 -16.971   1.731  1.00  0.00     0.278 HD
HETATM    5  C   UNL     1      42.833 -18.771   2.805  1.00  0.00     0.209 C 
HETATM    6  C   UNL     1      43.216 -18.146   4.167  1.00  0.00     0.115 C 
HETATM    7  N   UNL     1      42.133 -17.349   4.740  1.00  0.00    -0.353 N 
HETATM    8  C   UNL     1      41.324 -16.546   3.960  1.00  0.00     0.249 C 
HETATM    9  O   UNL     1      40.780 -15.560   4.439  1.00  0.00    -0.271 OA
HETATM   10  C   UNL     1      44.027 -19.469   2.169  1.00  0.00     0.035 C 
HETATM   11  C   UNL     1      44.549 -20.560   3.107  1.00  0.00     0.002 C 
HETATM   12  C   UNL     1      44.861 -20.025   4.507  1.00  0.00     0.002 C 
HETATM   13  C   UNL     1      43.694 -19.244   5.117  1.00  0.00     0.027 C 
HETATM   14  H   UNL     1      42.273 -16.965   5.673  1.00  0.00     0.163 HD
ENDROOT
BRANCH   1  15
HETATM   15  C   UNL     1      40.549 -15.912   1.609  1.00  0.00     0.146 C 
BRANCH  15  16
HETATM   16  C   UNL     1      41.705 -15.204   0.950  1.00  0.00     0.224 C 
HETATM   17  N   UNL     1      41.710 -14.873  -0.364  1.00  0.00    -0.327 N 
HETATM   18  H   UNL     1      42.618 -14.526  -0.663  1.00  0.00     0.169 HD
HETATM   19  O   UNL     1      42.693 -14.918   1.641  1.00  0.00    -0.273 OA
BRANCH  17  20
HETATM   20  C   UNL     1      40.741 -14.930  -1.383  1.00  0.00     0.034 A 
HETATM   21  C   UNL     1      40.802 -15.745  -2.513  1.00  0.00     0.030 A 
HETATM   22  C   UNL     1      39.768 -15.728  -3.460  1.00  0.00     0.009 A 
HETATM   23  C   UNL     1      38.658 -14.897  -3.292  1.00  0.00    -0.062 A 
HETATM   24  C   UNL     1      37.537 -14.893  -4.290  1.00  0.00     0.048 C 
HETATM   25  C   UNL     1      38.580 -14.101  -2.148  1.00  0.00     0.009 A 
HETATM   26  C   UNL     1      39.608 -14.124  -1.203  1.00  0.00     0.030 A 
ENDBRANCH  17  20
ENDBRANCH  15  16
ENDBRANCH   1  15
TORSDOF 3
ENDMDL
MODEL 6
REMARK VINA RESULT:      -7.2      1.762      7.121
REMARK  3 active torsions:
REMARK  status: ('A' for Active; 'I' for Inactive)
REMARK    1  A    between atoms: C_5  and  N_6 
REMARK       I    between atoms: N_6  and  C_7 
REMARK    2  A    between atoms: C_7  and  C_8 
REMARK    3  A    between atoms: C_8  and  C_9 
ROOT
HETATM    1  C   UNL     1      42.525 -17.745   2.342  1.00  0.00     0.286 C 
HETATM    2  N   UNL     1      43.286 -18.936   1.759  1.00  0.00    -0.056 N 
HETATM    3  H   UNL     1      42.700 -19.308   0.984  1.00  0.00     0.278 HD
HETATM    4  H   UNL     1      44.168 -18.625   1.331  1.00  0.00     0.278 HD
HETATM    5  C   UNL     1      43.516 -19.980   2.807  1.00  0.00     0.209 C 
HETATM    6  C   UNL     1      44.376 -19.355   3.932  1.00  0.00     0.115 C 
HETATM    7  N   UNL     1      43.813 -18.104   4.435  1.00  0.00    -0.353 N 
HETATM    8  C   UNL     1      43.223 -17.177   3.597  1.00  0.00     0.249 C 
HETATM    9  O   UNL     1      43.200 -15.992   3.900  1.00  0.00    -0.271 OA
HETATM   10  C   UNL     1      44.204 -21.198   2.207  1.00  0.00     0.035 C 
HETATM   11  C   UNL     1      44.458 -22.241   3.299  1.00  0.00     0.002 C 
HETATM   12  C   UNL     1      45.227 -21.662   4.490  1.00  0.00     0.002 C 
HETATM   13  C   UNL     1      44.589 -20.383   5.042  1.00  0.00     0.027 C 
HETATM   14  H   UNL     1      44.274 -17.665   5.231  1.00  0.00     0.163 HD
ENDROOT
BRANCH   1  15
HETATM   15  C   UNL     1      42.280 -16.670   1.277  1.00  0.00     0.146 C 
BRANCH  15  16
HETATM   16  C   UNL     1      40.808 -16.359   1.203  1.00  0.00     0.224 C 
HETATM   17  N   UNL     1      40.292 -15.447   0.343  1.00  0.00    -0.327 N 
HETATM   18  H   UNL     1      39.307 -15.272   0.525  1.00  0.00     0.169 HD
HETATM   19  O   UNL     1      40.038 -16.962   1.966  1.00  0.00    -0.273 OA
BRANCH  17  20
HETATM   20  C   UNL     1      40.836 -14.695  -0.714  1.00  0.00     0.034 A 
HETATM   21  C   UNL     1      40.906 -15.104  -2.045  1.00  0.00     0.030 A 
HETATM   22  C   UNL     1      41.460 -14.263  -3.020  1.00  0.00     0.009 A 
HETATM   23  C   UNL     1      41.953 -13.001  -2.680  1.00  0.00    -0.062 A 
HETATM   24  C   UNL     1      42.524 -12.086  -3.724  1.00  0.00     0.048 C 
HETATM   25  C   UNL     1      41.857 -12.576  -1.355  1.00  0.00     0.009 A 
HETATM   26  C   UNL     1      41.299 -13.414  -0.385  1.00  0.00     0.030 A 
ENDBRANCH  17  20
ENDBRANCH  15  16
ENDBRANCH   1  15
TORSDOF 3
ENDMDL
MODEL 7
REMARK VINA RESULT:      -7.2      3.110      4.734
REMARK  3 active torsions:
REMARK  status: ('A' for Active; 'I' for Inactive)
REMARK    1  A    between atoms: C_5  and  N_6 
REMARK       I    between atoms: N_6  and  C_7 
REMARK    2  A    between atoms: C_7  and  C_8 
REMARK    3  A    between atoms: C_8  and  C_9 
ROOT
HETATM    1  C   UNL     1      40.941 -16.656   3.021  1.00  0.00     0.286 C 
HETATM    2  N   UNL     1      42.267 -16.052   3.485  1.00  0.00    -0.056 N 
HETATM    3  H   UNL     1      42.866 -16.851   3.780  1.00  0.00     0.278 HD
HETATM    4  H   UNL     1      42.753 -15.603   2.698  1.00  0.00     0.278 HD
HETATM    5  C   UNL     1      42.046 -15.098   4.617  1.00  0.00     0.209 C 
HETATM    6  C   UNL     1      41.138 -13.952   4.112  1.00  0.00     0.115 C 
HETATM    7  N   UNL     1      39.913 -14.444   3.486  1.00  0.00    -0.353 N 
HETATM    8  C   UNL     1      39.903 -15.565   2.679  1.00  0.00     0.249 C 
HETATM    9  O   UNL     1      39.056 -15.695   1.805  1.00  0.00    -0.271 OA
HETATM   10  C   UNL     1      43.373 -14.558   5.129  1.00  0.00     0.035 C 
HETATM   11  C   UNL     1      43.125 -13.562   6.264  1.00  0.00     0.002 C 
HETATM   12  C   UNL     1      42.156 -12.447   5.860  1.00  0.00     0.002 C 
HETATM   13  C   UNL     1      40.853 -12.983   5.260  1.00  0.00     0.027 C 
HETATM   14  H   UNL     1      39.221 -13.755   3.195  1.00  0.00     0.163 HD
ENDROOT
BRANCH   1  15
HETATM   15  C   UNL     1      41.155 -17.638   1.864  1.00  0.00     0.146 C 
BRANCH  15  16
HETATM   16  C   UNL     1      42.465 -17.337   1.181  1.00  0.00     0.224 C 
HETATM   17  N   UNL     1      43.600 -18.034   1.431  1.00  0.00    -0.327 N 
HETATM   18  H   UNL     1      44.409 -17.609   0.986  1.00  0.00     0.169 HD
HETATM   19  O   UNL     1      42.503 -16.408   0.361  1.00  0.00    -0.273 OA
BRANCH  17  20
HETATM   20  C   UNL     1      43.884 -19.190   2.181  1.00  0.00     0.034 A 
HETATM   21  C   UNL     1      43.843 -20.498   1.699  1.00  0.00     0.030 A 
HETATM   22  C   UNL     1      44.158 -21.576   2.537  1.00  0.00     0.009 A 
HETATM   23  C   UNL     1      44.519 -21.365   3.870  1.00  0.00    -0.062 A 
HETATM   24  C   UNL     1      44.882 -22.513   4.766  1.00  0.00     0.048 C 
HETATM   25  C   UNL     1      44.589 -20.055   4.348  1.00  0.00     0.009 A 
HETATM   26  C   UNL     1      44.280 -18.982   3.509  1.00  0.00     0.030 A 
ENDBRANCH  17  20
ENDBRANCH  15  16
ENDBRANCH   1  15
TORSDOF 3
ENDMDL
MODEL 8
REMARK VINA RESULT:      -7.1      2.317      6.888
REMARK  3 active torsions:
REMARK  status: ('A' for Active; 'I' for Inactive)
REMARK    1  A    between atoms: C_5  and  N_6 
REMARK       I    between atoms: N_6  and  C_7 
REMARK    2  A    between atoms: C_7  and  C_8 
REMARK    3  A    between atoms: C_8  and  C_9 
ROOT
HETATM    1  C   UNL     1      40.773 -15.610   0.058  1.00  0.00     0.286 C 
HETATM    2  N   UNL     1      42.258 -15.957   0.158  1.00  0.00    -0.056 N 
HETATM    3  H   UNL     1      42.562 -16.226  -0.800  1.00  0.00     0.278 HD
HETATM    4  H   UNL     1      42.806 -15.125   0.412  1.00  0.00     0.278 HD
HETATM    5  C   UNL     1      42.474 -17.079   1.126  1.00  0.00     0.209 C 
HETATM    6  C   UNL     1      41.986 -16.616   2.519  1.00  0.00     0.115 C 
HETATM    7  N   UNL     1      40.621 -16.096   2.488  1.00  0.00    -0.353 N 
HETATM    8  C   UNL     1      40.157 -15.320   1.444  1.00  0.00     0.249 C 
HETATM    9  O   UNL     1      39.251 -14.516   1.622  1.00  0.00    -0.271 OA
HETATM   10  C   UNL     1      43.943 -17.476   1.166  1.00  0.00     0.035 C 
HETATM   11  C   UNL     1      44.148 -18.602   2.182  1.00  0.00     0.002 C 
HETATM   12  C   UNL     1      43.601 -18.245   3.566  1.00  0.00     0.002 C 
HETATM   13  C   UNL     1      42.149 -17.758   3.522  1.00  0.00     0.027 C 
HETATM   14  H   UNL     1      40.192 -15.842   3.377  1.00  0.00     0.163 HD
ENDROOT
BRANCH   1  15
HETATM   15  C   UNL     1      40.538 -14.464  -0.933  1.00  0.00     0.146 C 
BRANCH  15  16
HETATM   16  C   UNL     1      41.284 -14.743  -2.213  1.00  0.00     0.224 C 
HETATM   17  N   UNL     1      42.005 -13.798  -2.864  1.00  0.00    -0.327 N 
HETATM   18  H   UNL     1      42.324 -14.125  -3.772  1.00  0.00     0.169 HD
HETATM   19  O   UNL     1      41.228 -15.885  -2.691  1.00  0.00    -0.273 OA
BRANCH  17  20
HETATM   20  C   UNL     1      42.377 -12.476  -2.553  1.00  0.00     0.034 A 
HETATM   21  C   UNL     1      42.867 -12.042  -1.322  1.00  0.00     0.030 A 
HETATM   22  C   UNL     1      43.218 -10.699  -1.130  1.00  0.00     0.009 A 
HETATM   23  C   UNL     1      43.085  -9.769  -2.164  1.00  0.00    -0.062 A 
HETATM   24  C   UNL     1      43.483  -8.335  -1.972  1.00  0.00     0.048 C 
HETATM   25  C   UNL     1      42.622 -10.206  -3.406  1.00  0.00     0.009 A 
HETATM   26  C   UNL     1      42.278 -11.547  -3.597  1.00  0.00     0.030 A 
ENDBRANCH  17  20
ENDBRANCH  15  16
ENDBRANCH   1  15
TORSDOF 3
ENDMDL
MODEL 9
REMARK VINA RESULT:      -7.0      2.034      2.849
REMARK  3 active torsions:
REMARK  status: ('A' for Active; 'I' for Inactive)
REMARK    1  A    between atoms: C_5  and  N_6 
REMARK       I    between atoms: N_6  and  C_7 
REMARK    2  A    between atoms: C_7  and  C_8 
REMARK    3  A    between atoms: C_8  and  C_9 
ROOT
HETATM    1  C   UNL     1      40.266 -16.204   2.437  1.00  0.00     0.286 C 
HETATM    2  N   UNL     1      39.940 -14.748   2.769  1.00  0.00    -0.056 N 
HETATM    3  H   UNL     1      39.480 -14.756   3.703  1.00  0.00     0.278 HD
HETATM    4  H   UNL     1      40.803 -14.201   2.876  1.00  0.00     0.278 HD
HETATM    5  C   UNL     1      39.036 -14.159   1.730  1.00  0.00     0.209 C 
HETATM    6  C   UNL     1      39.773 -14.196   0.371  1.00  0.00     0.115 C 
HETATM    7  N   UNL     1      40.283 -15.527   0.048  1.00  0.00    -0.353 N 
HETATM    8  C   UNL     1      40.833 -16.353   1.008  1.00  0.00     0.249 C 
HETATM    9  O   UNL     1      41.661 -17.200   0.699  1.00  0.00    -0.271 OA
HETATM   10  C   UNL     1      38.648 -12.736   2.104  1.00  0.00     0.035 C 
HETATM   11  C   UNL     1      37.750 -12.140   1.016  1.00  0.00     0.002 C 
HETATM   12  C   UNL     1      38.383 -12.229  -0.375  1.00  0.00     0.002 C 
HETATM   13  C   UNL     1      38.858 -13.644  -0.722  1.00  0.00     0.027 C 
HETATM   14  H   UNL     1      40.714 -15.658  -0.866  1.00  0.00     0.163 HD
ENDROOT
BRANCH   1  15
HETATM   15  C   UNL     1      41.189 -16.820   3.495  1.00  0.00     0.146 C 
BRANCH  15  16
HETATM   16  C   UNL     1      42.575 -16.246   3.352  1.00  0.00     0.224 C 
HETATM   17  N   UNL     1      43.689 -17.017   3.316  1.00  0.00    -0.327 N 
HETATM   18  H   UNL     1      44.537 -16.457   3.352  1.00  0.00     0.169 HD
HETATM   19  O   UNL     1      42.698 -15.015   3.268  1.00  0.00    -0.273 OA
BRANCH  17  20
HETATM   20  C   UNL     1      43.905 -18.407   3.261  1.00  0.00     0.034 A 
HETATM   21  C   UNL     1      43.739 -19.207   2.132  1.00  0.00     0.030 A 
HETATM   22  C   UNL     1      43.997 -20.584   2.191  1.00  0.00     0.009 A 
HETATM   23  C   UNL     1      44.425 -21.181   3.378  1.00  0.00    -0.062 A 
HETATM   24  C   UNL     1      44.728 -22.650   3.441  1.00  0.00     0.048 C 
HETATM   25  C   UNL     1      44.622 -20.378   4.503  1.00  0.00     0.009 A 
HETATM   26  C   UNL     1      44.369 -19.005   4.440  1.00  0.00     0.030 A 
ENDBRANCH  17  20
ENDBRANCH  15  16
ENDBRANCH   1  15
TORSDOF 3
ENDMDL
MODEL 10
REMARK VINA RESULT:      -6.9      2.471      7.314
REMARK  3 active torsions:
REMARK  status: ('A' for Active; 'I' for Inactive)
REMARK    1  A    between atoms: C_5  and  N_6 
REMARK       I    between atoms: N_6  and  C_7 
REMARK    2  A    between atoms: C_7  and  C_8 
REMARK    3  A    between atoms: C_8  and  C_9 
ROOT
HETATM    1  C   UNL     1      43.370 -17.851   3.345  1.00  0.00     0.286 C 
HETATM    2  N   UNL     1      44.164 -18.996   2.716  1.00  0.00    -0.056 N 
HETATM    3  H   UNL     1      43.784 -19.124   1.755  1.00  0.00     0.278 HD
HETATM    4  H   UNL     1      45.150 -18.731   2.604  1.00  0.00     0.278 HD
HETATM    5  C   UNL     1      44.014 -20.248   3.524  1.00  0.00     0.209 C 
HETATM    6  C   UNL     1      44.580 -19.981   4.939  1.00  0.00     0.115 C 
HETATM    7  N   UNL     1      44.003 -18.788   5.555  1.00  0.00    -0.353 N 
HETATM    8  C   UNL     1      43.741 -17.643   4.829  1.00  0.00     0.249 C 
HETATM    9  O   UNL     1      43.731 -16.548   5.377  1.00  0.00    -0.271 OA
HETATM   10  C   UNL     1      44.739 -21.406   2.855  1.00  0.00     0.035 C 
HETATM   11  C   UNL     1      44.601 -22.669   3.710  1.00  0.00     0.002 C 
HETATM   12  C   UNL     1      45.058 -22.447   5.154  1.00  0.00     0.002 C 
HETATM   13  C   UNL     1      44.398 -21.227   5.805  1.00  0.00     0.027 C 
HETATM   14  H   UNL     1      44.262 -18.583   6.519  1.00  0.00     0.163 HD
ENDROOT
BRANCH   1  15
HETATM   15  C   UNL     1      43.513 -16.564   2.524  1.00  0.00     0.146 C 
BRANCH  15  16
HETATM   16  C   UNL     1      43.112 -16.828   1.096  1.00  0.00     0.224 C 
HETATM   17  N   UNL     1      42.076 -16.195   0.495  1.00  0.00    -0.327 N 
HETATM   18  H   UNL     1      41.867 -16.594  -0.417  1.00  0.00     0.169 HD
HETATM   19  O   UNL     1      43.757 -17.665   0.447  1.00  0.00    -0.273 OA
BRANCH  17  20
HETATM   20  C   UNL     1      41.234 -15.134   0.877  1.00  0.00     0.034 A 
HETATM   21  C   UNL     1      41.439 -13.789   0.571  1.00  0.00     0.030 A 
HETATM   22  C   UNL     1      40.523 -12.815   0.995  1.00  0.00     0.009 A 
HETATM   23  C   UNL     1      39.390 -13.170   1.731  1.00  0.00    -0.062 A 
HETATM   24  C   UNL     1      38.394 -12.136   2.165  1.00  0.00     0.048 C 
HETATM   25  C   UNL     1      39.166 -14.519   2.013  1.00  0.00     0.009 A 
HETATM   26  C   UNL     1      40.077 -15.488   1.584  1.00  0.00     0.030 A 
ENDBRANCH  17  20
ENDBRANCH  15  16
ENDBRANCH   1  15
TORSDOF 3
ENDMDL
