MODEL 1
REMARK VINA RESULT:      -9.5      0.000      0.000
REMARK  5 active torsions:
REMARK  status: ('A' for Active; 'I' for Inactive)
REMARK    1  A    between atoms: C_2  and  C_3 
REMARK    2  A    between atoms: C_5  and  N_6 
REMARK       I    between atoms: N_6  and  C_7 
REMARK    3  A    between atoms: C_7  and  C_8 
REMARK    4  A    between atoms: C_16  and  C_17 
REMARK    5  A    between atoms: C_19  and  O_20 
ROOT
HETATM    1  C   UNL     1      42.094 -16.101   2.053  1.00  0.00     0.047 A 
HETATM    2  C   UNL     1      42.493 -15.320   3.155  1.00  0.00     0.008 A 
HETATM    3  C   UNL     1      43.236 -15.994   4.141  1.00  0.00     0.068 A 
HETATM    4  C   UNL     1      43.644 -15.292   5.267  1.00  0.00     0.032 A 
HETATM    5  C   UNL     1      43.355 -13.936   5.439  1.00  0.00     0.002 A 
HETATM    6  C   UNL     1      42.649 -13.254   4.460  1.00  0.00     0.001 A 
HETATM    7  C   UNL     1      42.223 -13.936   3.322  1.00  0.00     0.015 A 
HETATM    8  N   UNL     1      43.573 -17.292   4.044  1.00  0.00    -0.248 NA
HETATM    9  C   UNL     1      43.223 -18.015   2.949  1.00  0.00     0.069 A 
HETATM   10  C   UNL     1      42.486 -17.437   1.932  1.00  0.00     0.050 A 
ENDROOT
BRANCH   1  11
HETATM   11  C   UNL     1      41.210 -15.603   0.972  1.00  0.00     0.257 C 
HETATM   12  N   UNL     1      41.826 -15.495  -0.260  1.00  0.00    -0.323 N 
HETATM   13  H   UNL     1      42.782 -15.828  -0.324  1.00  0.00     0.169 HD
HETATM   14  O   UNL     1      40.072 -15.271   1.271  1.00  0.00    -0.267 OA
BRANCH  12  15
HETATM   15  C   UNL     1      41.300 -14.912  -1.432  1.00  0.00     0.035 A 
HETATM   16  C   UNL     1      40.299 -15.493  -2.215  1.00  0.00     0.044 A 
HETATM   17  C   UNL     1      39.788 -14.821  -3.338  1.00  0.00     0.011 A 
HETATM   18  C   UNL     1      40.308 -13.572  -3.693  1.00  0.00     0.015 A 
HETATM   19  C   UNL     1      41.317 -12.994  -2.924  1.00  0.00     0.003 A 
HETATM   20  C   UNL     1      41.804 -13.657  -1.797  1.00  0.00     0.029 A 
BRANCH  17  21
HETATM   21  C   UNL     1      38.684 -15.461  -4.115  1.00  0.00     0.155 C 
HETATM   22  C   UNL     1      37.268 -15.003  -3.882  1.00  0.00     0.096 C 
HETATM   23  O   UNL     1      38.934 -16.349  -4.927  1.00  0.00    -0.293 OA
ENDBRANCH  17  21
ENDBRANCH  12  15
ENDBRANCH   1  11
BRANCH   9  24
HETATM   24  C   UNL     1      43.669 -19.429   2.936  1.00  0.00    -0.005 A 
HETATM   25  C   UNL     1      44.244 -20.054   4.065  1.00  0.00     0.050 A 
HETATM   26  C   UNL     1      44.649 -21.394   4.039  1.00  0.00     0.069 A 
HETATM   27  C   UNL     1      44.504 -22.131   2.865  1.00  0.00     0.037 A 
HETATM   28  C   UNL     1      43.952 -21.543   1.731  1.00  0.00     0.004 A 
HETATM   29  C   UNL     1      43.539 -20.210   1.770  1.00  0.00     0.014 A 
BRANCH  26  30
HETATM   30  O   UNL     1      45.205 -22.084   5.081  1.00  0.00    -0.356 OA
HETATM   31  C   UNL     1      44.566 -21.970   6.346  1.00  0.00     0.210 C 
ENDBRANCH  26  30
ENDBRANCH   9  24
TORSDOF 5
ENDMDL
MODEL 2
REMARK VINA RESULT:      -9.4      3.693      7.781
REMARK  5 active torsions:
REMARK  status: ('A' for Active; 'I' for Inactive)
REMARK    1  A    between atoms: C_2  and  C_3 
REMARK    2  A    between atoms: C_5  and  N_6 
REMARK       I    between atoms: N_6  and  C_7 
REMARK    3  A    between atoms: C_7  and  C_8 
REMARK    4  A    between atoms: C_16  and  C_17 
REMARK    5  A    between atoms: C_19  and  O_20 
ROOT
HETATM    1  C   UNL     1      42.648 -15.133   4.044  1.00  0.00     0.047 A 
HETATM    2  C   UNL     1      41.417 -14.924   3.392  1.00  0.00     0.008 A 
HETATM    3  C   UNL     1      40.921 -16.018   2.662  1.00  0.00     0.068 A 
HETATM    4  C   UNL     1      39.723 -15.876   1.975  1.00  0.00     0.032 A 
HETATM    5  C   UNL     1      38.990 -14.688   2.003  1.00  0.00     0.002 A 
HETATM    6  C   UNL     1      39.454 -13.611   2.744  1.00  0.00     0.001 A 
HETATM    7  C   UNL     1      40.657 -13.725   3.438  1.00  0.00     0.015 A 
HETATM    8  N   UNL     1      41.555 -17.202   2.599  1.00  0.00    -0.248 NA
HETATM    9  C   UNL     1      42.715 -17.401   3.276  1.00  0.00     0.069 A 
HETATM   10  C   UNL     1      43.280 -16.379   4.016  1.00  0.00     0.050 A 
ENDROOT
BRANCH   1  11
HETATM   11  C   UNL     1      43.386 -14.067   4.764  1.00  0.00     0.257 C 
HETATM   12  N   UNL     1      44.072 -14.508   5.880  1.00  0.00    -0.323 N 
HETATM   13  H   UNL     1      44.067 -15.507   6.055  1.00  0.00     0.169 HD
HETATM   14  O   UNL     1      43.267 -12.918   4.365  1.00  0.00    -0.267 OA
BRANCH  12  15
HETATM   15  C   UNL     1      44.731 -13.719   6.846  1.00  0.00     0.035 A 
HETATM   16  C   UNL     1      44.154 -13.313   8.052  1.00  0.00     0.044 A 
HETATM   17  C   UNL     1      44.897 -12.575   8.989  1.00  0.00     0.011 A 
HETATM   18  C   UNL     1      46.218 -12.218   8.698  1.00  0.00     0.015 A 
HETATM   19  C   UNL     1      46.794 -12.608   7.491  1.00  0.00     0.003 A 
HETATM   20  C   UNL     1      46.057 -13.361   6.575  1.00  0.00     0.029 A 
BRANCH  17  21
HETATM   21  C   UNL     1      44.251 -12.206  10.285  1.00  0.00     0.155 C 
HETATM   22  C   UNL     1      43.549 -10.878  10.396  1.00  0.00     0.096 C 
HETATM   23  O   UNL     1      44.299 -12.976  11.242  1.00  0.00    -0.293 OA
ENDBRANCH  17  21
ENDBRANCH  12  15
ENDBRANCH   1  11
BRANCH   9  24
HETATM   24  C   UNL     1      43.313 -18.753   3.157  1.00  0.00    -0.005 A 
HETATM   25  C   UNL     1      44.108 -19.323   4.175  1.00  0.00     0.050 A 
HETATM   26  C   UNL     1      44.655 -20.606   4.051  1.00  0.00     0.069 A 
HETATM   27  C   UNL     1      44.430 -21.337   2.887  1.00  0.00     0.037 A 
HETATM   28  C   UNL     1      43.661 -20.801   1.859  1.00  0.00     0.004 A 
HETATM   29  C   UNL     1      43.109 -19.526   1.996  1.00  0.00     0.014 A 
BRANCH  26  30
HETATM   30  O   UNL     1      45.427 -21.242   4.984  1.00  0.00    -0.356 OA
HETATM   31  C   UNL     1      45.253 -22.648   5.118  1.00  0.00     0.210 C 
ENDBRANCH  26  30
ENDBRANCH   9  24
TORSDOF 5
ENDMDL
MODEL 3
REMARK VINA RESULT:      -9.3      1.868      7.949
REMARK  5 active torsions:
REMARK  status: ('A' for Active; 'I' for Inactive)
REMARK    1  A    between atoms: C_2  and  C_3 
REMARK    2  A    between atoms: C_5  and  N_6 
REMARK       I    between atoms: N_6  and  C_7 
REMARK    3  A    between atoms: C_7  and  C_8 
REMARK    4  A    between atoms: C_16  and  C_17 
REMARK    5  A    between atoms: C_19  and  O_20 
ROOT
HETATM    1  C   UNL     1      41.127 -15.649   3.013  1.00  0.00     0.047 A 
HETATM    2  C   UNL     1      40.522 -14.561   3.672  1.00  0.00     0.008 A 
HETATM    3  C   UNL     1      40.235 -13.445   2.866  1.00  0.00     0.068 A 
HETATM    4  C   UNL     1      39.658 -12.327   3.453  1.00  0.00     0.032 A 
HETATM    5  C   UNL     1      39.338 -12.287   4.813  1.00  0.00     0.002 A 
HETATM    6  C   UNL     1      39.590 -13.392   5.611  1.00  0.00     0.001 A 
HETATM    7  C   UNL     1      40.173 -14.525   5.048  1.00  0.00     0.015 A 
HETATM    8  N   UNL     1      40.492 -13.409   1.547  1.00  0.00    -0.248 NA
HETATM    9  C   UNL     1      41.030 -14.486   0.920  1.00  0.00     0.069 A 
HETATM   10  C   UNL     1      41.350 -15.627   1.633  1.00  0.00     0.050 A 
ENDROOT
BRANCH   1  11
HETATM   11  C   UNL     1      41.609 -16.865   3.710  1.00  0.00     0.257 C 
HETATM   12  N   UNL     1      42.922 -17.195   3.431  1.00  0.00    -0.323 N 
HETATM   13  H   UNL     1      43.441 -16.550   2.847  1.00  0.00     0.169 HD
HETATM   14  O   UNL     1      40.809 -17.490   4.390  1.00  0.00    -0.267 OA
BRANCH  12  15
HETATM   15  C   UNL     1      43.609 -18.366   3.813  1.00  0.00     0.035 A 
HETATM   16  C   UNL     1      43.608 -19.552   3.074  1.00  0.00     0.044 A 
HETATM   17  C   UNL     1      44.366 -20.659   3.495  1.00  0.00     0.011 A 
HETATM   18  C   UNL     1      45.104 -20.582   4.681  1.00  0.00     0.015 A 
HETATM   19  C   UNL     1      45.097 -19.406   5.429  1.00  0.00     0.003 A 
HETATM   20  C   UNL     1      44.360 -18.303   4.993  1.00  0.00     0.029 A 
BRANCH  17  21
HETATM   21  C   UNL     1      44.371 -21.888   2.646  1.00  0.00     0.155 C 
HETATM   22  C   UNL     1      43.912 -21.787   1.215  1.00  0.00     0.096 C 
HETATM   23  O   UNL     1      44.741 -22.962   3.115  1.00  0.00    -0.293 OA
ENDBRANCH  17  21
ENDBRANCH  12  15
ENDBRANCH   1  11
BRANCH   9  24
HETATM   24  C   UNL     1      41.247 -14.346  -0.540  1.00  0.00    -0.005 A 
HETATM   25  C   UNL     1      40.709 -15.255  -1.478  1.00  0.00     0.050 A 
HETATM   26  C   UNL     1      40.914 -15.101  -2.855  1.00  0.00     0.069 A 
HETATM   27  C   UNL     1      41.685 -14.036  -3.318  1.00  0.00     0.037 A 
HETATM   28  C   UNL     1      42.239 -13.129  -2.421  1.00  0.00     0.004 A 
HETATM   29  C   UNL     1      42.019 -13.283  -1.050  1.00  0.00     0.014 A 
BRANCH  26  30
HETATM   30  O   UNL     1      40.427 -15.921  -3.835  1.00  0.00    -0.356 OA
HETATM   31  C   UNL     1      39.014 -15.977  -3.989  1.00  0.00     0.210 C 
ENDBRANCH  26  30
ENDBRANCH   9  24
TORSDOF 5
ENDMDL
MODEL 4
REMARK VINA RESULT:      -9.3      2.144      2.926
REMARK  5 active torsions:
REMARK  status: ('A' for Active; 'I' for Inactive)
REMARK    1  A    between atoms: C_2  and  C_3 
REMARK    2  A    between atoms: C_5  and  N_6 
REMARK       I    between atoms: N_6  and  C_7 
REMARK    3  A    between atoms: C_7  and  C_8 
REMARK    4  A    between atoms: C_16  and  C_17 
REMARK    5  A    between atoms: C_19  and  O_20 
ROOT
HETATM    1  C   UNL     1      41.220 -15.718   2.015  1.00  0.00     0.047 A 
HETATM    2  C   UNL     1      40.883 -15.249   3.300  1.00  0.00     0.008 A 
HETATM    3  C   UNL     1      41.263 -16.079   4.369  1.00  0.00     0.068 A 
HETATM    4  C   UNL     1      40.943 -15.690   5.663  1.00  0.00     0.032 A 
HETATM    5  C   UNL     1      40.273 -14.495   5.933  1.00  0.00     0.002 A 
HETATM    6  C   UNL     1      39.919 -13.654   4.888  1.00  0.00     0.001 A 
HETATM    7  C   UNL     1      40.223 -14.023   3.579  1.00  0.00     0.015 A 
HETATM    8  N   UNL     1      41.927 -17.235   4.198  1.00  0.00    -0.248 NA
HETATM    9  C   UNL     1      42.289 -17.645   2.955  1.00  0.00     0.069 A 
HETATM   10  C   UNL     1      41.952 -16.896   1.843  1.00  0.00     0.050 A 
ENDROOT
BRANCH   1  11
HETATM   11  C   UNL     1      40.804 -15.045   0.761  1.00  0.00     0.257 C 
HETATM   12  N   UNL     1      41.853 -14.683  -0.063  1.00  0.00    -0.323 N 
HETATM   13  H   UNL     1      42.781 -14.971   0.226  1.00  0.00     0.169 HD
HETATM   14  O   UNL     1      39.615 -14.810   0.605  1.00  0.00    -0.267 OA
BRANCH  12  15
HETATM   15  C   UNL     1      41.790 -13.900  -1.234  1.00  0.00     0.035 A 
HETATM   16  C   UNL     1      42.271 -12.592  -1.329  1.00  0.00     0.044 A 
HETATM   17  C   UNL     1      42.222 -11.898  -2.551  1.00  0.00     0.011 A 
HETATM   18  C   UNL     1      41.659 -12.512  -3.674  1.00  0.00     0.015 A 
HETATM   19  C   UNL     1      41.165 -13.812  -3.581  1.00  0.00     0.003 A 
HETATM   20  C   UNL     1      41.237 -14.503  -2.371  1.00  0.00     0.029 A 
BRANCH  17  21
HETATM   21  C   UNL     1      42.793 -10.518  -2.614  1.00  0.00     0.155 C 
HETATM   22  C   UNL     1      43.556  -9.991  -1.427  1.00  0.00     0.096 C 
HETATM   23  O   UNL     1      42.636  -9.829  -3.619  1.00  0.00    -0.293 OA
ENDBRANCH  17  21
ENDBRANCH  12  15
ENDBRANCH   1  11
BRANCH   9  24
HETATM   24  C   UNL     1      43.040 -18.922   2.886  1.00  0.00    -0.005 A 
HETATM   25  C   UNL     1      43.899 -19.354   3.921  1.00  0.00     0.050 A 
HETATM   26  C   UNL     1      44.592 -20.568   3.845  1.00  0.00     0.069 A 
HETATM   27  C   UNL     1      44.451 -21.367   2.712  1.00  0.00     0.037 A 
HETATM   28  C   UNL     1      43.622 -20.967   1.669  1.00  0.00     0.004 A 
HETATM   29  C   UNL     1      42.926 -19.760   1.759  1.00  0.00     0.014 A 
BRANCH  26  30
HETATM   30  O   UNL     1      45.435 -21.071   4.798  1.00  0.00    -0.356 OA
HETATM   31  C   UNL     1      45.140 -22.369   5.302  1.00  0.00     0.210 C 
ENDBRANCH  26  30
ENDBRANCH   9  24
TORSDOF 5
ENDMDL
MODEL 5
REMARK VINA RESULT:      -9.2      1.509      2.429
REMARK  5 active torsions:
REMARK  status: ('A' for Active; 'I' for Inactive)
REMARK    1  A    between atoms: C_2  and  C_3 
REMARK    2  A    between atoms: C_5  and  N_6 
REMARK       I    between atoms: N_6  and  C_7 
REMARK    3  A    between atoms: C_7  and  C_8 
REMARK    4  A    between atoms: C_16  and  C_17 
REMARK    5  A    between atoms: C_19  and  O_20 
ROOT
HETATM    1  C   UNL     1      42.645 -16.285   3.848  1.00  0.00     0.047 A 
HETATM    2  C   UNL     1      43.159 -15.534   4.923  1.00  0.00     0.008 A 
HETATM    3  C   UNL     1      43.913 -16.255   5.865  1.00  0.00     0.068 A 
HETATM    4  C   UNL     1      44.432 -15.583   6.963  1.00  0.00     0.032 A 
HETATM    5  C   UNL     1      44.242 -14.212   7.149  1.00  0.00     0.002 A 
HETATM    6  C   UNL     1      43.524 -13.484   6.212  1.00  0.00     0.001 A 
HETATM    7  C   UNL     1      42.988 -14.135   5.103  1.00  0.00     0.015 A 
HETATM    8  N   UNL     1      44.159 -17.572   5.750  1.00  0.00    -0.248 NA
HETATM    9  C   UNL     1      43.698 -18.269   4.680  1.00  0.00     0.069 A 
HETATM   10  C   UNL     1      42.942 -17.643   3.706  1.00  0.00     0.050 A 
ENDROOT
BRANCH   1  11
HETATM   11  C   UNL     1      41.733 -15.728   2.820  1.00  0.00     0.257 C 
HETATM   12  N   UNL     1      42.376 -15.205   1.715  1.00  0.00    -0.323 N 
HETATM   13  H   UNL     1      43.383 -15.314   1.678  1.00  0.00     0.169 HD
HETATM   14  O   UNL     1      40.535 -15.714   3.066  1.00  0.00    -0.267 OA
BRANCH  12  15
HETATM   15  C   UNL     1      41.799 -14.474   0.655  1.00  0.00     0.035 A 
HETATM   16  C   UNL     1      41.424 -15.034  -0.569  1.00  0.00     0.044 A 
HETATM   17  C   UNL     1      40.801 -14.248  -1.554  1.00  0.00     0.011 A 
HETATM   18  C   UNL     1      40.583 -12.886  -1.318  1.00  0.00     0.015 A 
HETATM   19  C   UNL     1      40.968 -12.320  -0.104  1.00  0.00     0.003 A 
HETATM   20  C   UNL     1      41.565 -13.112   0.879  1.00  0.00     0.029 A 
BRANCH  17  21
HETATM   21  C   UNL     1      40.374 -14.902  -2.828  1.00  0.00     0.155 C 
HETATM   22  C   UNL     1      38.921 -14.852  -3.221  1.00  0.00     0.096 C 
HETATM   23  O   UNL     1      41.200 -15.473  -3.537  1.00  0.00    -0.293 OA
ENDBRANCH  17  21
ENDBRANCH  12  15
ENDBRANCH   1  11
BRANCH   9  24
HETATM   24  C   UNL     1      44.051 -19.710   4.643  1.00  0.00    -0.005 A 
HETATM   25  C   UNL     1      44.170 -20.431   3.434  1.00  0.00     0.050 A 
HETATM   26  C   UNL     1      44.515 -21.787   3.416  1.00  0.00     0.069 A 
HETATM   27  C   UNL     1      44.729 -22.455   4.620  1.00  0.00     0.037 A 
HETATM   28  C   UNL     1      44.610 -21.779   5.829  1.00  0.00     0.004 A 
HETATM   29  C   UNL     1      44.277 -20.423   5.837  1.00  0.00     0.014 A 
BRANCH  26  30
HETATM   30  O   UNL     1      44.662 -22.563   2.299  1.00  0.00    -0.356 OA
HETATM   31  C   UNL     1      44.059 -22.091   1.100  1.00  0.00     0.210 C 
ENDBRANCH  26  30
ENDBRANCH   9  24
TORSDOF 5
ENDMDL
MODEL 6
REMARK VINA RESULT:      -9.1      0.874      1.630
REMARK  5 active torsions:
REMARK  status: ('A' for Active; 'I' for Inactive)
REMARK    1  A    between atoms: C_2  and  C_3 
REMARK    2  A    between atoms: C_5  and  N_6 
REMARK       I    between atoms: N_6  and  C_7 
REMARK    3  A    between atoms: C_7  and  C_8 
REMARK    4  A    between atoms: C_16  and  C_17 
REMARK    5  A    between atoms: C_19  and  O_20 
ROOT
HETATM    1  C   UNL     1      42.087 -15.928   2.354  1.00  0.00     0.047 A 
HETATM    2  C   UNL     1      42.323 -14.957   3.348  1.00  0.00     0.008 A 
HETATM    3  C   UNL     1      43.005 -15.410   4.491  1.00  0.00     0.068 A 
HETATM    4  C   UNL     1      43.252 -14.512   5.521  1.00  0.00     0.032 A 
HETATM    5  C   UNL     1      42.861 -13.173   5.446  1.00  0.00     0.002 A 
HETATM    6  C   UNL     1      42.214 -12.709   4.311  1.00  0.00     0.001 A 
HETATM    7  C   UNL     1      41.948 -13.590   3.265  1.00  0.00     0.015 A 
HETATM    8  N   UNL     1      43.432 -16.676   4.635  1.00  0.00    -0.248 NA
HETATM    9  C   UNL     1      43.240 -17.585   3.644  1.00  0.00     0.069 A 
HETATM   10  C   UNL     1      42.574 -17.231   2.485  1.00  0.00     0.050 A 
ENDROOT
BRANCH   1  11
HETATM   11  C   UNL     1      41.285 -15.674   1.133  1.00  0.00     0.257 C 
HETATM   12  N   UNL     1      42.014 -15.174   0.071  1.00  0.00    -0.323 N 
HETATM   13  H   UNL     1      43.017 -15.100   0.199  1.00  0.00     0.169 HD
HETATM   14  O   UNL     1      40.078 -15.851   1.194  1.00  0.00    -0.267 OA
BRANCH  12  15
HETATM   15  C   UNL     1      41.516 -14.692  -1.157  1.00  0.00     0.035 A 
HETATM   16  C   UNL     1      40.543 -15.345  -1.919  1.00  0.00     0.044 A 
HETATM   17  C   UNL     1      40.057 -14.770  -3.106  1.00  0.00     0.011 A 
HETATM   18  C   UNL     1      40.575 -13.546  -3.544  1.00  0.00     0.015 A 
HETATM   19  C   UNL     1      41.555 -12.897  -2.796  1.00  0.00     0.003 A 
HETATM   20  C   UNL     1      42.016 -13.464  -1.606  1.00  0.00     0.029 A 
BRANCH  17  21
HETATM   21  C   UNL     1      38.982 -15.484  -3.860  1.00  0.00     0.155 C 
HETATM   22  C   UNL     1      37.543 -15.174  -3.544  1.00  0.00     0.096 C 
HETATM   23  O   UNL     1      39.276 -16.310  -4.720  1.00  0.00    -0.293 OA
ENDBRANCH  17  21
ENDBRANCH  12  15
ENDBRANCH   1  11
BRANCH   9  24
HETATM   24  C   UNL     1      43.776 -18.945   3.898  1.00  0.00    -0.005 A 
HETATM   25  C   UNL     1      43.901 -19.914   2.878  1.00  0.00     0.050 A 
HETATM   26  C   UNL     1      44.420 -21.189   3.132  1.00  0.00     0.069 A 
HETATM   27  C   UNL     1      44.806 -21.525   4.428  1.00  0.00     0.037 A 
HETATM   28  C   UNL     1      44.686 -20.598   5.459  1.00  0.00     0.004 A 
HETATM   29  C   UNL     1      44.179 -19.325   5.194  1.00  0.00     0.014 A 
BRANCH  26  30
HETATM   30  O   UNL     1      44.586 -22.185   2.210  1.00  0.00    -0.356 OA
HETATM   31  C   UNL     1      43.919 -22.032   0.963  1.00  0.00     0.210 C 
ENDBRANCH  26  30
ENDBRANCH   9  24
TORSDOF 5
ENDMDL
MODEL 7
REMARK VINA RESULT:      -8.8      1.373      1.927
REMARK  5 active torsions:
REMARK  status: ('A' for Active; 'I' for Inactive)
REMARK    1  A    between atoms: C_2  and  C_3 
REMARK    2  A    between atoms: C_5  and  N_6 
REMARK       I    between atoms: N_6  and  C_7 
REMARK    3  A    between atoms: C_7  and  C_8 
REMARK    4  A    between atoms: C_16  and  C_17 
REMARK    5  A    between atoms: C_19  and  O_20 
ROOT
HETATM    1  C   UNL     1      42.020 -16.124   2.091  1.00  0.00     0.047 A 
HETATM    2  C   UNL     1      42.437 -15.345   3.189  1.00  0.00     0.008 A 
HETATM    3  C   UNL     1      43.206 -16.017   4.155  1.00  0.00     0.068 A 
HETATM    4  C   UNL     1      43.633 -15.318   5.276  1.00  0.00     0.032 A 
HETATM    5  C   UNL     1      43.336 -13.965   5.461  1.00  0.00     0.002 A 
HETATM    6  C   UNL     1      42.603 -13.284   4.500  1.00  0.00     0.001 A 
HETATM    7  C   UNL     1      42.158 -13.965   3.369  1.00  0.00     0.015 A 
HETATM    8  N   UNL     1      43.552 -17.312   4.044  1.00  0.00    -0.248 NA
HETATM    9  C   UNL     1      43.183 -18.033   2.954  1.00  0.00     0.069 A 
HETATM   10  C   UNL     1      42.420 -17.456   1.955  1.00  0.00     0.050 A 
ENDROOT
BRANCH   1  11
HETATM   11  C   UNL     1      41.109 -15.628   1.033  1.00  0.00     0.257 C 
HETATM   12  N   UNL     1      41.723 -15.405  -0.185  1.00  0.00    -0.323 N 
HETATM   13  H   UNL     1      42.700 -15.666  -0.258  1.00  0.00     0.169 HD
HETATM   14  O   UNL     1      39.949 -15.396   1.339  1.00  0.00    -0.267 OA
BRANCH  12  15
HETATM   15  C   UNL     1      41.164 -14.794  -1.327  1.00  0.00     0.035 A 
HETATM   16  C   UNL     1      40.940 -13.420  -1.450  1.00  0.00     0.044 A 
HETATM   17  C   UNL     1      40.430 -12.883  -2.645  1.00  0.00     0.011 A 
HETATM   18  C   UNL     1      40.116 -13.735  -3.709  1.00  0.00     0.015 A 
HETATM   19  C   UNL     1      40.324 -15.107  -3.586  1.00  0.00     0.003 A 
HETATM   20  C   UNL     1      40.852 -15.632  -2.405  1.00  0.00     0.029 A 
BRANCH  17  21
HETATM   21  C   UNL     1      40.254 -11.402  -2.746  1.00  0.00     0.155 C 
HETATM   22  C   UNL     1      40.003 -10.789  -4.099  1.00  0.00     0.096 C 
HETATM   23  O   UNL     1      40.316 -10.702  -1.738  1.00  0.00    -0.293 OA
ENDBRANCH  17  21
ENDBRANCH  12  15
ENDBRANCH   1  11
BRANCH   9  24
HETATM   24  C   UNL     1      43.641 -19.443   2.923  1.00  0.00    -0.005 A 
HETATM   25  C   UNL     1      44.260 -20.064   4.031  1.00  0.00     0.050 A 
HETATM   26  C   UNL     1      44.675 -21.400   3.990  1.00  0.00     0.069 A 
HETATM   27  C   UNL     1      44.496 -22.137   2.821  1.00  0.00     0.037 A 
HETATM   28  C   UNL     1      43.900 -21.554   1.707  1.00  0.00     0.004 A 
HETATM   29  C   UNL     1      43.478 -20.224   1.762  1.00  0.00     0.014 A 
BRANCH  26  30
HETATM   30  O   UNL     1      45.272 -22.087   5.012  1.00  0.00    -0.356 OA
HETATM   31  C   UNL     1      44.597 -22.100   6.264  1.00  0.00     0.210 C 
ENDBRANCH  26  30
ENDBRANCH   9  24
TORSDOF 5
ENDMDL
MODEL 8
REMARK VINA RESULT:      -8.5      2.115      5.143
REMARK  5 active torsions:
REMARK  status: ('A' for Active; 'I' for Inactive)
REMARK    1  A    between atoms: C_2  and  C_3 
REMARK    2  A    between atoms: C_5  and  N_6 
REMARK       I    between atoms: N_6  and  C_7 
REMARK    3  A    between atoms: C_7  and  C_8 
REMARK    4  A    between atoms: C_16  and  C_17 
REMARK    5  A    between atoms: C_19  and  O_20 
ROOT
HETATM    1  C   UNL     1      41.918 -15.995   2.426  1.00  0.00     0.047 A 
HETATM    2  C   UNL     1      42.565 -17.236   2.591  1.00  0.00     0.008 A 
HETATM    3  C   UNL     1      43.369 -17.355   3.738  1.00  0.00     0.068 A 
HETATM    4  C   UNL     1      44.055 -18.542   3.954  1.00  0.00     0.032 A 
HETATM    5  C   UNL     1      43.955 -19.625   3.077  1.00  0.00     0.002 A 
HETATM    6  C   UNL     1      43.143 -19.529   1.957  1.00  0.00     0.001 A 
HETATM    7  C   UNL     1      42.447 -18.347   1.714  1.00  0.00     0.015 A 
HETATM    8  N   UNL     1      43.504 -16.369   4.643  1.00  0.00    -0.248 NA
HETATM    9  C   UNL     1      42.831 -15.199   4.493  1.00  0.00     0.069 A 
HETATM   10  C   UNL     1      42.022 -14.990   3.391  1.00  0.00     0.050 A 
ENDROOT
BRANCH   1  11
HETATM   11  C   UNL     1      41.124 -15.638   1.226  1.00  0.00     0.257 C 
HETATM   12  N   UNL     1      41.885 -15.314   0.119  1.00  0.00    -0.323 N 
HETATM   13  H   UNL     1      42.889 -15.419   0.209  1.00  0.00     0.169 HD
HETATM   14  O   UNL     1      39.908 -15.591   1.337  1.00  0.00    -0.267 OA
BRANCH  12  15
HETATM   15  C   UNL     1      41.430 -14.788  -1.108  1.00  0.00     0.035 A 
HETATM   16  C   UNL     1      40.471 -15.404  -1.917  1.00  0.00     0.044 A 
HETATM   17  C   UNL     1      40.028 -14.786  -3.099  1.00  0.00     0.011 A 
HETATM   18  C   UNL     1      40.576 -13.558  -3.486  1.00  0.00     0.015 A 
HETATM   19  C   UNL     1      41.543 -12.947  -2.690  1.00  0.00     0.003 A 
HETATM   20  C   UNL     1      41.961 -13.555  -1.505  1.00  0.00     0.029 A 
BRANCH  17  21
HETATM   21  C   UNL     1      38.966 -15.461  -3.905  1.00  0.00     0.155 C 
HETATM   22  C   UNL     1      37.525 -15.101  -3.657  1.00  0.00     0.096 C 
HETATM   23  O   UNL     1      39.271 -16.296  -4.753  1.00  0.00    -0.293 OA
ENDBRANCH  17  21
ENDBRANCH  12  15
ENDBRANCH   1  11
BRANCH   9  24
HETATM   24  C   UNL     1      43.034 -14.192   5.563  1.00  0.00    -0.005 A 
HETATM   25  C   UNL     1      44.075 -14.293   6.512  1.00  0.00     0.050 A 
HETATM   26  C   UNL     1      44.260 -13.327   7.508  1.00  0.00     0.069 A 
HETATM   27  C   UNL     1      43.384 -12.246   7.585  1.00  0.00     0.037 A 
HETATM   28  C   UNL     1      42.340 -12.122   6.673  1.00  0.00     0.004 A 
HETATM   29  C   UNL     1      42.172 -13.083   5.675  1.00  0.00     0.014 A 
BRANCH  26  30
HETATM   30  O   UNL     1      45.241 -13.335   8.461  1.00  0.00    -0.356 OA
HETATM   31  C   UNL     1      46.073 -12.183   8.542  1.00  0.00     0.210 C 
ENDBRANCH  26  30
ENDBRANCH   9  24
TORSDOF 5
ENDMDL
MODEL 9
REMARK VINA RESULT:      -8.5      2.171      8.689
REMARK  5 active torsions:
REMARK  status: ('A' for Active; 'I' for Inactive)
REMARK    1  A    between atoms: C_2  and  C_3 
REMARK    2  A    between atoms: C_5  and  N_6 
REMARK       I    between atoms: N_6  and  C_7 
REMARK    3  A    between atoms: C_7  and  C_8 
REMARK    4  A    between atoms: C_16  and  C_17 
REMARK    5  A    between atoms: C_19  and  O_20 
ROOT
HETATM    1  C   UNL     1      41.476 -15.014   2.413  1.00  0.00     0.047 A 
HETATM    2  C   UNL     1      40.750 -14.059   3.152  1.00  0.00     0.008 A 
HETATM    3  C   UNL     1      39.823 -13.299   2.419  1.00  0.00     0.068 A 
HETATM    4  C   UNL     1      39.087 -12.324   3.078  1.00  0.00     0.032 A 
HETATM    5  C   UNL     1      39.229 -12.090   4.448  1.00  0.00     0.002 A 
HETATM    6  C   UNL     1      40.119 -12.854   5.188  1.00  0.00     0.001 A 
HETATM    7  C   UNL     1      40.873 -13.836   4.549  1.00  0.00     0.015 A 
HETATM    8  N   UNL     1      39.612 -13.473   1.102  1.00  0.00    -0.248 NA
HETATM    9  C   UNL     1      40.285 -14.433   0.417  1.00  0.00     0.069 A 
HETATM   10  C   UNL     1      41.222 -15.225   1.055  1.00  0.00     0.050 A 
ENDROOT
BRANCH   1  11
HETATM   11  C   UNL     1      42.577 -15.828   2.982  1.00  0.00     0.257 C 
HETATM   12  N   UNL     1      42.323 -17.186   3.007  1.00  0.00    -0.323 N 
HETATM   13  H   UNL     1      41.459 -17.498   2.576  1.00  0.00     0.169 HD
HETATM   14  O   UNL     1      43.549 -15.241   3.433  1.00  0.00    -0.267 OA
BRANCH  12  15
HETATM   15  C   UNL     1      43.099 -18.191   3.622  1.00  0.00     0.035 A 
HETATM   16  C   UNL     1      43.126 -18.427   4.999  1.00  0.00     0.044 A 
HETATM   17  C   UNL     1      43.883 -19.487   5.528  1.00  0.00     0.011 A 
HETATM   18  C   UNL     1      44.640 -20.293   4.671  1.00  0.00     0.015 A 
HETATM   19  C   UNL     1      44.627 -20.053   3.299  1.00  0.00     0.003 A 
HETATM   20  C   UNL     1      43.855 -19.013   2.777  1.00  0.00     0.029 A 
BRANCH  17  21
HETATM   21  C   UNL     1      43.843 -19.729   7.002  1.00  0.00     0.155 C 
HETATM   22  C   UNL     1      43.518 -21.112   7.504  1.00  0.00     0.096 C 
HETATM   23  O   UNL     1      44.068 -18.810   7.786  1.00  0.00    -0.293 OA
ENDBRANCH  17  21
ENDBRANCH  12  15
ENDBRANCH   1  11
BRANCH   9  24
HETATM   24  C   UNL     1      39.955 -14.554  -1.024  1.00  0.00    -0.005 A 
HETATM   25  C   UNL     1      38.803 -13.965  -1.590  1.00  0.00     0.050 A 
HETATM   26  C   UNL     1      38.512 -14.079  -2.955  1.00  0.00     0.069 A 
HETATM   27  C   UNL     1      39.366 -14.809  -3.778  1.00  0.00     0.037 A 
HETATM   28  C   UNL     1      40.504 -15.412  -3.251  1.00  0.00     0.004 A 
HETATM   29  C   UNL     1      40.793 -15.283  -1.891  1.00  0.00     0.014 A 
BRANCH  26  30
HETATM   30  O   UNL     1      37.430 -13.537  -3.592  1.00  0.00    -0.356 OA
HETATM   31  C   UNL     1      36.624 -14.421  -4.363  1.00  0.00     0.210 C 
ENDBRANCH  26  30
ENDBRANCH   9  24
TORSDOF 5
ENDMDL
MODEL 10
REMARK VINA RESULT:      -8.4      1.852      8.314
REMARK  5 active torsions:
REMARK  status: ('A' for Active; 'I' for Inactive)
REMARK    1  A    between atoms: C_2  and  C_3 
REMARK    2  A    between atoms: C_5  and  N_6 
REMARK       I    between atoms: N_6  and  C_7 
REMARK    3  A    between atoms: C_7  and  C_8 
REMARK    4  A    between atoms: C_16  and  C_17 
REMARK    5  A    between atoms: C_19  and  O_20 
ROOT
HETATM    1  C   UNL     1      41.646 -14.698   2.848  1.00  0.00     0.047 A 
HETATM    2  C   UNL     1      41.378 -13.548   3.616  1.00  0.00     0.008 A 
HETATM    3  C   UNL     1      41.297 -12.342   2.898  1.00  0.00     0.068 A 
HETATM    4  C   UNL     1      41.058 -11.165   3.594  1.00  0.00     0.032 A 
HETATM    5  C   UNL     1      40.878 -11.147   4.979  1.00  0.00     0.002 A 
HETATM    6  C   UNL     1      40.926 -12.334   5.694  1.00  0.00     0.001 A 
HETATM    7  C   UNL     1      41.170 -13.529   5.021  1.00  0.00     0.015 A 
HETATM    8  N   UNL     1      41.439 -12.274   1.563  1.00  0.00    -0.248 NA
HETATM    9  C   UNL     1      41.646 -13.401   0.834  1.00  0.00     0.069 A 
HETATM   10  C   UNL     1      41.746 -14.632   1.456  1.00  0.00     0.050 A 
ENDROOT
BRANCH   1  11
HETATM   11  C   UNL     1      41.882 -16.039   3.434  1.00  0.00     0.257 C 
HETATM   12  N   UNL     1      43.150 -16.542   3.207  1.00  0.00    -0.323 N 
HETATM   13  H   UNL     1      43.806 -15.930   2.735  1.00  0.00     0.169 HD
HETATM   14  O   UNL     1      40.944 -16.597   3.985  1.00  0.00    -0.267 OA
BRANCH  12  15
HETATM   15  C   UNL     1      43.621 -17.839   3.499  1.00  0.00     0.035 A 
HETATM   16  C   UNL     1      43.623 -18.402   4.777  1.00  0.00     0.044 A 
HETATM   17  C   UNL     1      44.058 -19.724   4.976  1.00  0.00     0.011 A 
HETATM   18  C   UNL     1      44.521 -20.472   3.888  1.00  0.00     0.015 A 
HETATM   19  C   UNL     1      44.534 -19.910   2.613  1.00  0.00     0.003 A 
HETATM   20  C   UNL     1      44.080 -18.604   2.419  1.00  0.00     0.029 A 
BRANCH  17  21
HETATM   21  C   UNL     1      43.996 -20.299   6.355  1.00  0.00     0.155 C 
HETATM   22  C   UNL     1      43.843 -19.365   7.526  1.00  0.00     0.096 C 
HETATM   23  O   UNL     1      44.073 -21.513   6.522  1.00  0.00    -0.293 OA
ENDBRANCH  17  21
ENDBRANCH  12  15
ENDBRANCH   1  11
BRANCH   9  24
HETATM   24  C   UNL     1      41.762 -13.212  -0.633  1.00  0.00    -0.005 A 
HETATM   25  C   UNL     1      41.188 -14.110  -1.561  1.00  0.00     0.050 A 
HETATM   26  C   UNL     1      41.297 -13.911  -2.942  1.00  0.00     0.069 A 
HETATM   27  C   UNL     1      42.005 -12.811  -3.422  1.00  0.00     0.037 A 
HETATM   28  C   UNL     1      42.593 -11.913  -2.536  1.00  0.00     0.004 A 
HETATM   29  C   UNL     1      42.469 -12.113  -1.160  1.00  0.00     0.014 A 
BRANCH  26  30
HETATM   30  O   UNL     1      40.769 -14.717  -3.913  1.00  0.00    -0.356 OA
HETATM   31  C   UNL     1      39.975 -15.816  -3.480  1.00  0.00     0.210 C 
ENDBRANCH  26  30
ENDBRANCH   9  24
TORSDOF 5
ENDMDL
