MODEL 1
REMARK VINA RESULT:      -8.4      0.000      0.000
REMARK  7 active torsions:
REMARK  status: ('A' for Active; 'I' for Inactive)
REMARK    1  A    between atoms: C_2  and  N_3 
REMARK       I    between atoms: N_3  and  C_4 
REMARK    2  A    between atoms: C_4  and  C_5 
REMARK    3  A    between atoms: C_9  and  N_10 
REMARK       I    between atoms: N_10  and  C_11 
REMARK    4  A    between atoms: C_11  and  C_12 
REMARK    5  A    between atoms: C_12  and  S_13 
REMARK    6  A    between atoms: S_13  and  C_14 
REMARK    7  A    between atoms: C_14  and  C_15 
ROOT
HETATM    1  N   UNL     1      42.366 -16.080   4.579  1.00  0.00    -0.326 N 
HETATM    2  C   UNL     1      41.598 -16.061   5.735  1.00  0.00     0.231 C 
HETATM    3  O   UNL     1      40.444 -15.657   5.845  1.00  0.00    -0.272 OA
HETATM    4  H   UNL     1      43.294 -16.470   4.683  1.00  0.00     0.169 HD
ENDROOT
BRANCH   2   5
HETATM    5  C   UNL     1      42.343 -16.623   6.944  1.00  0.00     0.177 C 
BRANCH   5   6
HETATM    6  S   UNL     1      44.135 -16.352   6.699  1.00  0.00    -0.147 SA
BRANCH   6   7
HETATM    7  C   UNL     1      44.772 -18.067   6.841  1.00  0.00     0.113 C 
HETATM    8  C   UNL     1      44.164 -18.778   8.048  1.00  0.00     0.029 C 
BRANCH   7   9
HETATM    9  C   UNL     1      44.619 -18.857   5.575  1.00  0.00     0.118 A 
HETATM   10  N   UNL     1      44.166 -18.414   4.418  1.00  0.00    -0.232 NA
HETATM   11  C   UNL     1      44.117 -19.507   3.589  1.00  0.00     0.085 A 
HETATM   12  C   UNL     1      44.570 -20.646   4.242  1.00  0.00     0.062 A 
HETATM   13  C   UNL     1      43.688 -19.606   2.257  1.00  0.00     0.034 A 
HETATM   14  N   UNL     1      44.883 -20.208   5.503  1.00  0.00    -0.342 N 
HETATM   15  C   UNL     1      44.636 -21.902   3.637  1.00  0.00     0.032 A 
HETATM   16  H   UNL     1      45.251 -20.771   6.257  1.00  0.00     0.167 HD
HETATM   17  C   UNL     1      44.205 -21.982   2.308  1.00  0.00     0.002 A 
HETATM   18  C   UNL     1      43.734 -20.856   1.627  1.00  0.00     0.002 A 
ENDBRANCH   7   9
ENDBRANCH   6   7
ENDBRANCH   5   6
ENDBRANCH   2   5
BRANCH   1  19
HETATM   19  C   UNL     1      41.981 -15.725   3.266  1.00  0.00     0.040 A 
HETATM   20  C   UNL     1      42.294 -14.429   2.793  1.00  0.00    -0.034 A 
HETATM   21  C   UNL     1      41.968 -14.074   1.467  1.00  0.00     0.026 A 
HETATM   22  C   UNL     1      42.970 -13.398   3.657  1.00  0.00     0.050 C 
HETATM   23  C   UNL     1      41.343 -14.988   0.612  1.00  0.00     0.032 A 
HETATM   24  C   UNL     1      41.001 -16.249   1.097  1.00  0.00     0.019 A 
HETATM   25  C   UNL     1      41.320 -16.613   2.410  1.00  0.00     0.031 A 
BRANCH  23  26
HETATM   26  C   UNL     1      41.015 -14.656  -0.805  1.00  0.00     0.251 C 
HETATM   27  N   UNL     1      41.406 -15.580  -1.755  1.00  0.00    -0.357 N 
HETATM   28  H   UNL     1      41.728 -16.489  -1.455  1.00  0.00     0.162 HD
HETATM   29  O   UNL     1      40.397 -13.633  -1.071  1.00  0.00    -0.268 OA
BRANCH  27  30
HETATM   30  C   UNL     1      41.043 -15.429  -3.149  1.00  0.00     0.118 C 
HETATM   31  C   UNL     1      39.773 -16.192  -3.478  1.00  0.00     0.026 C 
ENDBRANCH  27  30
ENDBRANCH  23  26
ENDBRANCH   1  19
TORSDOF 7
ENDMDL
MODEL 2
REMARK VINA RESULT:      -8.1      1.704      1.886
REMARK  7 active torsions:
REMARK  status: ('A' for Active; 'I' for Inactive)
REMARK    1  A    between atoms: C_2  and  N_3 
REMARK       I    between atoms: N_3  and  C_4 
REMARK    2  A    between atoms: C_4  and  C_5 
REMARK    3  A    between atoms: C_9  and  N_10 
REMARK       I    between atoms: N_10  and  C_11 
REMARK    4  A    between atoms: C_11  and  C_12 
REMARK    5  A    between atoms: C_12  and  S_13 
REMARK    6  A    between atoms: S_13  and  C_14 
REMARK    7  A    between atoms: C_14  and  C_15 
ROOT
HETATM    1  N   UNL     1      42.382 -15.195   3.749  1.00  0.00    -0.326 N 
HETATM    2  C   UNL     1      43.397 -14.389   4.246  1.00  0.00     0.231 C 
HETATM    3  O   UNL     1      44.108 -13.622   3.604  1.00  0.00    -0.272 OA
HETATM    4  H   UNL     1      41.893 -15.749   4.440  1.00  0.00     0.169 HD
ENDROOT
BRANCH   2   5
HETATM    5  C   UNL     1      43.573 -14.532   5.756  1.00  0.00     0.177 C 
BRANCH   5   6
HETATM    6  S   UNL     1      42.616 -15.985   6.318  1.00  0.00    -0.147 SA
BRANCH   6   7
HETATM    7  C   UNL     1      43.950 -17.230   6.514  1.00  0.00     0.113 C 
HETATM    8  C   UNL     1      43.855 -17.925   7.870  1.00  0.00     0.029 C 
BRANCH   7   9
HETATM    9  C   UNL     1      44.017 -18.204   5.375  1.00  0.00     0.118 A 
HETATM   10  N   UNL     1      43.507 -18.045   4.169  1.00  0.00    -0.232 NA
HETATM   11  C   UNL     1      43.732 -19.226   3.505  1.00  0.00     0.085 A 
HETATM   12  C   UNL     1      44.414 -20.125   4.313  1.00  0.00     0.062 A 
HETATM   13  C   UNL     1      43.373 -19.607   2.204  1.00  0.00     0.034 A 
HETATM   14  N   UNL     1      44.584 -19.454   5.496  1.00  0.00    -0.342 N 
HETATM   15  C   UNL     1      44.782 -21.406   3.894  1.00  0.00     0.032 A 
HETATM   16  H   UNL     1      45.050 -19.806   6.321  1.00  0.00     0.167 HD
HETATM   17  C   UNL     1      44.417 -21.769   2.593  1.00  0.00     0.002 A 
HETATM   18  C   UNL     1      43.720 -20.889   1.760  1.00  0.00     0.002 A 
ENDBRANCH   7   9
ENDBRANCH   6   7
ENDBRANCH   5   6
ENDBRANCH   2   5
BRANCH   1  19
HETATM   19  C   UNL     1      41.883 -15.260   2.428  1.00  0.00     0.040 A 
HETATM   20  C   UNL     1      40.652 -14.628   2.135  1.00  0.00    -0.034 A 
HETATM   21  C   UNL     1      40.165 -14.633   0.811  1.00  0.00     0.026 A 
HETATM   22  C   UNL     1      39.828 -13.941   3.190  1.00  0.00     0.050 C 
HETATM   23  C   UNL     1      40.884 -15.251  -0.217  1.00  0.00     0.032 A 
HETATM   24  C   UNL     1      42.077 -15.907   0.086  1.00  0.00     0.019 A 
HETATM   25  C   UNL     1      42.571 -15.907   1.396  1.00  0.00     0.031 A 
BRANCH  23  26
HETATM   26  C   UNL     1      40.414 -15.246  -1.633  1.00  0.00     0.251 C 
HETATM   27  N   UNL     1      39.249 -14.550  -1.887  1.00  0.00    -0.357 N 
HETATM   28  H   UNL     1      38.868 -13.948  -1.171  1.00  0.00     0.162 HD
HETATM   29  O   UNL     1      41.072 -15.805  -2.502  1.00  0.00    -0.268 OA
BRANCH  27  30
HETATM   30  C   UNL     1      38.754 -14.374  -3.237  1.00  0.00     0.118 C 
HETATM   31  C   UNL     1      37.490 -15.180  -3.474  1.00  0.00     0.026 C 
ENDBRANCH  27  30
ENDBRANCH  23  26
ENDBRANCH   1  19
TORSDOF 7
ENDMDL
MODEL 3
REMARK VINA RESULT:      -7.6      2.722      6.521
REMARK  7 active torsions:
REMARK  status: ('A' for Active; 'I' for Inactive)
REMARK    1  A    between atoms: C_2  and  N_3 
REMARK       I    between atoms: N_3  and  C_4 
REMARK    2  A    between atoms: C_4  and  C_5 
REMARK    3  A    between atoms: C_9  and  N_10 
REMARK       I    between atoms: N_10  and  C_11 
REMARK    4  A    between atoms: C_11  and  C_12 
REMARK    5  A    between atoms: C_12  and  S_13 
REMARK    6  A    between atoms: S_13  and  C_14 
REMARK    7  A    between atoms: C_14  and  C_15 
ROOT
HETATM    1  N   UNL     1      41.834 -14.478   5.402  1.00  0.00    -0.326 N 
HETATM    2  C   UNL     1      42.175 -13.196   4.991  1.00  0.00     0.231 C 
HETATM    3  O   UNL     1      43.015 -12.893   4.150  1.00  0.00    -0.272 OA
HETATM    4  H   UNL     1      41.101 -14.528   6.097  1.00  0.00     0.169 HD
ENDROOT
BRANCH   2   5
HETATM    5  C   UNL     1      41.368 -12.117   5.709  1.00  0.00     0.177 C 
BRANCH   5   6
HETATM    6  S   UNL     1      39.590 -12.492   5.509  1.00  0.00    -0.147 SA
BRANCH   6   7
HETATM    7  C   UNL     1      39.381 -12.246   3.702  1.00  0.00     0.113 C 
HETATM    8  C   UNL     1      40.067 -10.962   3.242  1.00  0.00     0.029 C 
BRANCH   7   9
HETATM    9  C   UNL     1      39.798 -13.439   2.895  1.00  0.00     0.118 A 
HETATM   10  N   UNL     1      39.435 -14.692   3.093  1.00  0.00    -0.232 NA
HETATM   11  C   UNL     1      40.135 -15.437   2.175  1.00  0.00     0.085 A 
HETATM   12  C   UNL     1      40.929 -14.622   1.379  1.00  0.00     0.062 A 
HETATM   13  C   UNL     1      40.147 -16.824   1.966  1.00  0.00     0.034 A 
HETATM   14  N   UNL     1      40.699 -13.358   1.855  1.00  0.00    -0.342 N 
HETATM   15  C   UNL     1      41.745 -15.111   0.356  1.00  0.00     0.032 A 
HETATM   16  H   UNL     1      41.111 -12.504   1.506  1.00  0.00     0.167 HD
HETATM   17  C   UNL     1      41.744 -16.497   0.161  1.00  0.00     0.002 A 
HETATM   18  C   UNL     1      40.962 -17.343   0.953  1.00  0.00     0.002 A 
ENDBRANCH   7   9
ENDBRANCH   6   7
ENDBRANCH   5   6
ENDBRANCH   2   5
BRANCH   1  19
HETATM   19  C   UNL     1      42.305 -15.713   4.898  1.00  0.00     0.040 A 
HETATM   20  C   UNL     1      41.692 -16.907   5.344  1.00  0.00    -0.034 A 
HETATM   21  C   UNL     1      42.110 -18.145   4.812  1.00  0.00     0.026 A 
HETATM   22  C   UNL     1      40.598 -16.913   6.378  1.00  0.00     0.050 C 
HETATM   23  C   UNL     1      43.119 -18.207   3.846  1.00  0.00     0.032 A 
HETATM   24  C   UNL     1      43.747 -17.030   3.441  1.00  0.00     0.019 A 
HETATM   25  C   UNL     1      43.340 -15.796   3.961  1.00  0.00     0.031 A 
BRANCH  23  26
HETATM   26  C   UNL     1      43.561 -19.496   3.238  1.00  0.00     0.251 C 
HETATM   27  N   UNL     1      44.352 -20.305   4.030  1.00  0.00    -0.357 N 
HETATM   28  H   UNL     1      44.452 -20.088   5.012  1.00  0.00     0.162 HD
HETATM   29  O   UNL     1      43.192 -19.804   2.112  1.00  0.00    -0.268 OA
BRANCH  27  30
HETATM   30  C   UNL     1      44.748 -21.630   3.598  1.00  0.00     0.118 C 
HETATM   31  C   UNL     1      44.839 -22.592   4.769  1.00  0.00     0.026 C 
ENDBRANCH  27  30
ENDBRANCH  23  26
ENDBRANCH   1  19
TORSDOF 7
ENDMDL
MODEL 4
REMARK VINA RESULT:      -7.3      4.762      8.486
REMARK  7 active torsions:
REMARK  status: ('A' for Active; 'I' for Inactive)
REMARK    1  A    between atoms: C_2  and  N_3 
REMARK       I    between atoms: N_3  and  C_4 
REMARK    2  A    between atoms: C_4  and  C_5 
REMARK    3  A    between atoms: C_9  and  N_10 
REMARK       I    between atoms: N_10  and  C_11 
REMARK    4  A    between atoms: C_11  and  C_12 
REMARK    5  A    between atoms: C_12  and  S_13 
REMARK    6  A    between atoms: S_13  and  C_14 
REMARK    7  A    between atoms: C_14  and  C_15 
ROOT
HETATM    1  N   UNL     1      40.901 -14.545   4.436  1.00  0.00    -0.326 N 
HETATM    2  C   UNL     1      41.219 -13.415   5.176  1.00  0.00     0.231 C 
HETATM    3  O   UNL     1      42.253 -13.216   5.807  1.00  0.00    -0.272 OA
HETATM    4  H   UNL     1      40.004 -14.517   3.968  1.00  0.00     0.169 HD
ENDROOT
BRANCH   2   5
HETATM    5  C   UNL     1      40.115 -12.361   5.141  1.00  0.00     0.177 C 
BRANCH   5   6
HETATM    6  S   UNL     1      39.491 -12.117   6.843  1.00  0.00    -0.147 SA
BRANCH   6   7
HETATM    7  C   UNL     1      40.254 -10.503   7.269  1.00  0.00     0.113 C 
HETATM    8  C   UNL     1      39.189  -9.483   7.666  1.00  0.00     0.029 C 
BRANCH   7   9
HETATM    9  C   UNL     1      41.344 -10.621   8.292  1.00  0.00     0.118 A 
HETATM   10  N   UNL     1      41.368 -10.064   9.488  1.00  0.00    -0.232 NA
HETATM   11  C   UNL     1      42.595 -10.370  10.022  1.00  0.00     0.085 A 
HETATM   12  C   UNL     1      43.336 -11.151   9.145  1.00  0.00     0.062 A 
HETATM   13  C   UNL     1      43.153 -10.009  11.257  1.00  0.00     0.034 A 
HETATM   14  N   UNL     1      42.521 -11.297   8.053  1.00  0.00    -0.342 N 
HETATM   15  C   UNL     1      44.622 -11.616   9.431  1.00  0.00     0.032 A 
HETATM   16  H   UNL     1      42.736 -11.815   7.212  1.00  0.00     0.167 HD
HETATM   17  C   UNL     1      45.162 -11.246  10.668  1.00  0.00     0.002 A 
HETATM   18  C   UNL     1      44.444 -10.452  11.567  1.00  0.00     0.002 A 
ENDBRANCH   7   9
ENDBRANCH   6   7
ENDBRANCH   5   6
ENDBRANCH   2   5
BRANCH   1  19
HETATM   19  C   UNL     1      41.709 -15.675   4.171  1.00  0.00     0.040 A 
HETATM   20  C   UNL     1      41.620 -16.792   5.033  1.00  0.00    -0.034 A 
HETATM   21  C   UNL     1      42.377 -17.949   4.754  1.00  0.00     0.026 A 
HETATM   22  C   UNL     1      40.740 -16.798   6.255  1.00  0.00     0.050 C 
HETATM   23  C   UNL     1      43.211 -18.009   3.633  1.00  0.00     0.032 A 
HETATM   24  C   UNL     1      43.325 -16.889   2.810  1.00  0.00     0.019 A 
HETATM   25  C   UNL     1      42.578 -15.736   3.076  1.00  0.00     0.031 A 
BRANCH  23  26
HETATM   26  C   UNL     1      43.999 -19.229   3.290  1.00  0.00     0.251 C 
HETATM   27  N   UNL     1      44.295 -20.078   4.338  1.00  0.00    -0.357 N 
HETATM   28  H   UNL     1      43.838 -19.942   5.228  1.00  0.00     0.162 HD
HETATM   29  O   UNL     1      44.314 -19.451   2.128  1.00  0.00    -0.268 OA
BRANCH  27  30
HETATM   30  C   UNL     1      44.953 -21.350   4.115  1.00  0.00     0.118 C 
HETATM   31  C   UNL     1      44.897 -22.227   5.353  1.00  0.00     0.026 C 
ENDBRANCH  27  30
ENDBRANCH  23  26
ENDBRANCH   1  19
TORSDOF 7
ENDMDL
MODEL 5
REMARK VINA RESULT:      -7.2      3.406      6.656
REMARK  7 active torsions:
REMARK  status: ('A' for Active; 'I' for Inactive)
REMARK    1  A    between atoms: C_2  and  N_3 
REMARK       I    between atoms: N_3  and  C_4 
REMARK    2  A    between atoms: C_4  and  C_5 
REMARK    3  A    between atoms: C_9  and  N_10 
REMARK       I    between atoms: N_10  and  C_11 
REMARK    4  A    between atoms: C_11  and  C_12 
REMARK    5  A    between atoms: C_12  and  S_13 
REMARK    6  A    between atoms: S_13  and  C_14 
REMARK    7  A    between atoms: C_14  and  C_15 
ROOT
HETATM    1  N   UNL     1      41.334 -14.527   2.841  1.00  0.00    -0.326 N 
HETATM    2  C   UNL     1      41.980 -14.114   1.683  1.00  0.00     0.231 C 
HETATM    3  O   UNL     1      42.366 -12.980   1.422  1.00  0.00    -0.272 OA
HETATM    4  H   UNL     1      41.109 -15.512   2.882  1.00  0.00     0.169 HD
ENDROOT
BRANCH   2   5
HETATM    5  C   UNL     1      42.195 -15.256   0.693  1.00  0.00     0.177 C 
BRANCH   5   6
HETATM    6  S   UNL     1      41.233 -16.705   1.260  1.00  0.00    -0.147 SA
BRANCH   6   7
HETATM    7  C   UNL     1      42.576 -17.807   1.854  1.00  0.00     0.113 C 
HETATM    8  C   UNL     1      43.885 -17.516   1.124  1.00  0.00     0.029 C 
BRANCH   7   9
HETATM    9  C   UNL     1      42.735 -17.787   3.345  1.00  0.00     0.118 A 
HETATM   10  N   UNL     1      41.859 -17.345   4.227  1.00  0.00    -0.232 NA
HETATM   11  C   UNL     1      42.475 -17.439   5.450  1.00  0.00     0.085 A 
HETATM   12  C   UNL     1      43.752 -17.970   5.323  1.00  0.00     0.062 A 
HETATM   13  C   UNL     1      42.005 -17.080   6.722  1.00  0.00     0.034 A 
HETATM   14  N   UNL     1      43.895 -18.183   3.977  1.00  0.00    -0.342 N 
HETATM   15  C   UNL     1      44.605 -18.183   6.407  1.00  0.00     0.032 A 
HETATM   16  H   UNL     1      44.707 -18.569   3.516  1.00  0.00     0.167 HD
HETATM   17  C   UNL     1      44.120 -17.821   7.669  1.00  0.00     0.002 A 
HETATM   18  C   UNL     1      42.843 -17.274   7.827  1.00  0.00     0.002 A 
ENDBRANCH   7   9
ENDBRANCH   6   7
ENDBRANCH   5   6
ENDBRANCH   2   5
BRANCH   1  19
HETATM   19  C   UNL     1      41.050 -13.771   4.002  1.00  0.00     0.040 A 
HETATM   20  C   UNL     1      42.094 -13.517   4.920  1.00  0.00    -0.034 A 
HETATM   21  C   UNL     1      41.845 -12.718   6.056  1.00  0.00     0.026 A 
HETATM   22  C   UNL     1      43.482 -14.070   4.735  1.00  0.00     0.050 C 
HETATM   23  C   UNL     1      40.578 -12.170   6.284  1.00  0.00     0.032 A 
HETATM   24  C   UNL     1      39.542 -12.459   5.396  1.00  0.00     0.019 A 
HETATM   25  C   UNL     1      39.779 -13.249   4.265  1.00  0.00     0.031 A 
BRANCH  23  26
HETATM   26  C   UNL     1      40.288 -11.294   7.456  1.00  0.00     0.251 C 
HETATM   27  N   UNL     1      41.283 -11.199   8.408  1.00  0.00    -0.357 N 
HETATM   28  H   UNL     1      42.201 -11.567   8.202  1.00  0.00     0.162 HD
HETATM   29  O   UNL     1      39.231 -10.678   7.518  1.00  0.00    -0.268 OA
BRANCH  27  30
HETATM   30  C   UNL     1      41.169 -10.291   9.532  1.00  0.00     0.118 C 
HETATM   31  C   UNL     1      40.728 -11.018  10.789  1.00  0.00     0.026 C 
ENDBRANCH  27  30
ENDBRANCH  23  26
ENDBRANCH   1  19
TORSDOF 7
ENDMDL
MODEL 6
REMARK VINA RESULT:      -7.1      5.065      8.787
REMARK  7 active torsions:
REMARK  status: ('A' for Active; 'I' for Inactive)
REMARK    1  A    between atoms: C_2  and  N_3 
REMARK       I    between atoms: N_3  and  C_4 
REMARK    2  A    between atoms: C_4  and  C_5 
REMARK    3  A    between atoms: C_9  and  N_10 
REMARK       I    between atoms: N_10  and  C_11 
REMARK    4  A    between atoms: C_11  and  C_12 
REMARK    5  A    between atoms: C_12  and  S_13 
REMARK    6  A    between atoms: S_13  and  C_14 
REMARK    7  A    between atoms: C_14  and  C_15 
ROOT
HETATM    1  N   UNL     1      40.987 -14.510   4.735  1.00  0.00    -0.326 N 
HETATM    2  C   UNL     1      41.420 -13.366   5.392  1.00  0.00     0.231 C 
HETATM    3  O   UNL     1      42.467 -13.229   6.017  1.00  0.00    -0.272 OA
HETATM    4  H   UNL     1      40.100 -14.423   4.256  1.00  0.00     0.169 HD
ENDROOT
BRANCH   2   5
HETATM    5  C   UNL     1      40.433 -12.208   5.265  1.00  0.00     0.177 C 
BRANCH   5   6
HETATM    6  S   UNL     1      39.901 -11.711   6.943  1.00  0.00    -0.147 SA
BRANCH   6   7
HETATM    7  C   UNL     1      41.100 -10.371   7.308  1.00  0.00     0.113 C 
HETATM    8  C   UNL     1      40.565  -9.017   6.848  1.00  0.00     0.029 C 
BRANCH   7   9
HETATM    9  C   UNL     1      41.544 -10.353   8.742  1.00  0.00     0.118 A 
HETATM   10  N   UNL     1      42.665  -9.845   9.215  1.00  0.00    -0.232 NA
HETATM   11  C   UNL     1      42.680 -10.144  10.555  1.00  0.00     0.085 A 
HETATM   12  C   UNL     1      41.531 -10.835  10.920  1.00  0.00     0.062 A 
HETATM   13  C   UNL     1      43.650  -9.863  11.528  1.00  0.00     0.034 A 
HETATM   14  N   UNL     1      40.825 -10.955   9.752  1.00  0.00    -0.342 N 
HETATM   15  C   UNL     1      41.276 -11.261  12.225  1.00  0.00     0.032 A 
HETATM   16  H   UNL     1      39.926 -11.404   9.641  1.00  0.00     0.167 HD
HETATM   17  C   UNL     1      42.254 -10.971  13.183  1.00  0.00     0.002 A 
HETATM   18  C   UNL     1      43.425 -10.288  12.843  1.00  0.00     0.002 A 
ENDBRANCH   7   9
ENDBRANCH   6   7
ENDBRANCH   5   6
ENDBRANCH   2   5
BRANCH   1  19
HETATM   19  C   UNL     1      41.673 -15.735   4.566  1.00  0.00     0.040 A 
HETATM   20  C   UNL     1      42.551 -15.875   3.466  1.00  0.00    -0.034 A 
HETATM   21  C   UNL     1      43.287 -17.069   3.311  1.00  0.00     0.026 A 
HETATM   22  C   UNL     1      42.737 -14.790   2.440  1.00  0.00     0.050 C 
HETATM   23  C   UNL     1      43.163 -18.114   4.232  1.00  0.00     0.032 A 
HETATM   24  C   UNL     1      42.265 -17.985   5.291  1.00  0.00     0.019 A 
HETATM   25  C   UNL     1      41.531 -16.805   5.456  1.00  0.00     0.031 A 
BRANCH  23  26
HETATM   26  C   UNL     1      43.951 -19.375   4.116  1.00  0.00     0.251 C 
HETATM   27  N   UNL     1      43.900 -20.017   2.894  1.00  0.00    -0.357 N 
HETATM   28  H   UNL     1      43.494 -19.539   2.102  1.00  0.00     0.162 HD
HETATM   29  O   UNL     1      44.624 -19.770   5.060  1.00  0.00    -0.268 OA
BRANCH  27  30
HETATM   30  C   UNL     1      44.712 -21.185   2.620  1.00  0.00     0.118 C 
HETATM   31  C   UNL     1      44.128 -22.015   1.492  1.00  0.00     0.026 C 
ENDBRANCH  27  30
ENDBRANCH  23  26
ENDBRANCH   1  19
TORSDOF 7
ENDMDL
MODEL 7
REMARK VINA RESULT:      -7.0      2.830      7.730
REMARK  7 active torsions:
REMARK  status: ('A' for Active; 'I' for Inactive)
REMARK    1  A    between atoms: C_2  and  N_3 
REMARK       I    between atoms: N_3  and  C_4 
REMARK    2  A    between atoms: C_4  and  C_5 
REMARK    3  A    between atoms: C_9  and  N_10 
REMARK       I    between atoms: N_10  and  C_11 
REMARK    4  A    between atoms: C_11  and  C_12 
REMARK    5  A    between atoms: C_12  and  S_13 
REMARK    6  A    between atoms: S_13  and  C_14 
REMARK    7  A    between atoms: C_14  and  C_15 
ROOT
HETATM    1  N   UNL     1      42.076 -14.744   3.057  1.00  0.00    -0.326 N 
HETATM    2  C   UNL     1      42.793 -13.568   3.230  1.00  0.00     0.231 C 
HETATM    3  O   UNL     1      44.000 -13.464   3.423  1.00  0.00    -0.272 OA
HETATM    4  H   UNL     1      41.086 -14.626   2.890  1.00  0.00     0.169 HD
ENDROOT
BRANCH   2   5
HETATM    5  C   UNL     1      41.909 -12.326   3.151  1.00  0.00     0.177 C 
BRANCH   5   6
HETATM    6  S   UNL     1      41.459 -12.043   1.401  1.00  0.00    -0.147 SA
BRANCH   6   7
HETATM    7  C   UNL     1      39.858 -12.933   1.302  1.00  0.00     0.113 C 
HETATM    8  C   UNL     1      38.710 -12.051   1.789  1.00  0.00     0.029 C 
BRANCH   7   9
HETATM    9  C   UNL     1      39.594 -13.519  -0.054  1.00  0.00     0.118 A 
HETATM   10  N   UNL     1      38.510 -13.354  -0.787  1.00  0.00    -0.232 NA
HETATM   11  C   UNL     1      38.679 -14.148  -1.894  1.00  0.00     0.085 A 
HETATM   12  C   UNL     1      39.904 -14.801  -1.853  1.00  0.00     0.062 A 
HETATM   13  C   UNL     1      37.819 -14.369  -2.981  1.00  0.00     0.034 A 
HETATM   14  N   UNL     1      40.467 -14.385  -0.675  1.00  0.00    -0.342 N 
HETATM   15  C   UNL     1      40.344 -15.669  -2.854  1.00  0.00     0.032 A 
HETATM   16  H   UNL     1      41.372 -14.658  -0.316  1.00  0.00     0.167 HD
HETATM   17  C   UNL     1      39.474 -15.877  -3.931  1.00  0.00     0.002 A 
HETATM   18  C   UNL     1      38.230 -15.243  -3.995  1.00  0.00     0.002 A 
ENDBRANCH   7   9
ENDBRANCH   6   7
ENDBRANCH   5   6
ENDBRANCH   2   5
BRANCH   1  19
HETATM   19  C   UNL     1      42.570 -16.067   2.981  1.00  0.00     0.040 A 
HETATM   20  C   UNL     1      42.197 -16.991   3.985  1.00  0.00    -0.034 A 
HETATM   21  C   UNL     1      42.633 -18.330   3.896  1.00  0.00     0.026 A 
HETATM   22  C   UNL     1      41.341 -16.601   5.160  1.00  0.00     0.050 C 
HETATM   23  C   UNL     1      43.427 -18.757   2.827  1.00  0.00     0.032 A 
HETATM   24  C   UNL     1      43.825 -17.832   1.863  1.00  0.00     0.019 A 
HETATM   25  C   UNL     1      43.397 -16.501   1.939  1.00  0.00     0.031 A 
BRANCH  23  26
HETATM   26  C   UNL     1      43.878 -20.172   2.685  1.00  0.00     0.251 C 
HETATM   27  N   UNL     1      44.602 -20.691   3.741  1.00  0.00    -0.357 N 
HETATM   28  H   UNL     1      44.647 -20.176   4.609  1.00  0.00     0.162 HD
HETATM   29  O   UNL     1      43.572 -20.820   1.692  1.00  0.00    -0.268 OA
BRANCH  27  30
HETATM   30  C   UNL     1      44.995 -22.085   3.774  1.00  0.00     0.118 C 
HETATM   31  C   UNL     1      44.983 -22.631   5.190  1.00  0.00     0.026 C 
ENDBRANCH  27  30
ENDBRANCH  23  26
ENDBRANCH   1  19
TORSDOF 7
ENDMDL
MODEL 8
REMARK VINA RESULT:      -7.0      5.194      8.808
REMARK  7 active torsions:
REMARK  status: ('A' for Active; 'I' for Inactive)
REMARK    1  A    between atoms: C_2  and  N_3 
REMARK       I    between atoms: N_3  and  C_4 
REMARK    2  A    between atoms: C_4  and  C_5 
REMARK    3  A    between atoms: C_9  and  N_10 
REMARK       I    between atoms: N_10  and  C_11 
REMARK    4  A    between atoms: C_11  and  C_12 
REMARK    5  A    between atoms: C_12  and  S_13 
REMARK    6  A    between atoms: S_13  and  C_14 
REMARK    7  A    between atoms: C_14  and  C_15 
ROOT
HETATM    1  N   UNL     1      43.222 -14.173   5.872  1.00  0.00    -0.326 N 
HETATM    2  C   UNL     1      42.291 -13.152   5.740  1.00  0.00     0.231 C 
HETATM    3  O   UNL     1      41.427 -13.052   4.874  1.00  0.00    -0.272 OA
HETATM    4  H   UNL     1      43.845 -14.090   6.665  1.00  0.00     0.169 HD
ENDROOT
BRANCH   2   5
HETATM    5  C   UNL     1      42.424 -12.092   6.830  1.00  0.00     0.177 C 
BRANCH   5   6
HETATM    6  S   UNL     1      41.283 -10.716   6.445  1.00  0.00    -0.147 SA
BRANCH   6   7
HETATM    7  C   UNL     1      40.153 -10.782   7.889  1.00  0.00     0.113 C 
HETATM    8  C   UNL     1      39.314 -12.057   7.869  1.00  0.00     0.029 C 
BRANCH   7   9
HETATM    9  C   UNL     1      40.859 -10.582   9.198  1.00  0.00     0.118 A 
HETATM   10  N   UNL     1      41.914  -9.820   9.417  1.00  0.00    -0.232 NA
HETATM   11  C   UNL     1      42.261 -10.026  10.729  1.00  0.00     0.085 A 
HETATM   12  C   UNL     1      41.388 -10.917  11.339  1.00  0.00     0.062 A 
HETATM   13  C   UNL     1      43.321  -9.486  11.473  1.00  0.00     0.034 A 
HETATM   14  N   UNL     1      40.507 -11.257  10.346  1.00  0.00    -0.342 N 
HETATM   15  C   UNL     1      41.498 -11.305  12.676  1.00  0.00     0.032 A 
HETATM   16  H   UNL     1      39.724 -11.890  10.433  1.00  0.00     0.167 HD
HETATM   17  C   UNL     1      42.561 -10.757  13.403  1.00  0.00     0.002 A 
HETATM   18  C   UNL     1      43.462  -9.865  12.814  1.00  0.00     0.002 A 
ENDBRANCH   7   9
ENDBRANCH   6   7
ENDBRANCH   5   6
ENDBRANCH   2   5
BRANCH   1  19
HETATM   19  C   UNL     1      43.340 -15.355   5.105  1.00  0.00     0.040 A 
HETATM   20  C   UNL     1      43.445 -16.594   5.778  1.00  0.00    -0.034 A 
HETATM   21  C   UNL     1      43.507 -17.790   5.031  1.00  0.00     0.026 A 
HETATM   22  C   UNL     1      43.493 -16.694   7.279  1.00  0.00     0.050 C 
HETATM   23  C   UNL     1      43.463 -17.766   3.634  1.00  0.00     0.032 A 
HETATM   24  C   UNL     1      43.401 -16.538   2.975  1.00  0.00     0.019 A 
HETATM   25  C   UNL     1      43.337 -15.346   3.706  1.00  0.00     0.031 A 
BRANCH  23  26
HETATM   26  C   UNL     1      43.493 -19.013   2.814  1.00  0.00     0.251 C 
HETATM   27  N   UNL     1      44.495 -19.915   3.112  1.00  0.00    -0.357 N 
HETATM   28  H   UNL     1      45.040 -19.787   3.953  1.00  0.00     0.162 HD
HETATM   29  O   UNL     1      42.637 -19.209   1.960  1.00  0.00    -0.268 OA
BRANCH  27  30
HETATM   30  C   UNL     1      44.560 -21.211   2.468  1.00  0.00     0.118 C 
HETATM   31  C   UNL     1      44.488 -22.339   3.481  1.00  0.00     0.026 C 
ENDBRANCH  27  30
ENDBRANCH  23  26
ENDBRANCH   1  19
TORSDOF 7
ENDMDL
MODEL 9
REMARK VINA RESULT:      -7.0      2.789      6.827
REMARK  7 active torsions:
REMARK  status: ('A' for Active; 'I' for Inactive)
REMARK    1  A    between atoms: C_2  and  N_3 
REMARK       I    between atoms: N_3  and  C_4 
REMARK    2  A    between atoms: C_4  and  C_5 
REMARK    3  A    between atoms: C_9  and  N_10 
REMARK       I    between atoms: N_10  and  C_11 
REMARK    4  A    between atoms: C_11  and  C_12 
REMARK    5  A    between atoms: C_12  and  S_13 
REMARK    6  A    between atoms: S_13  and  C_14 
REMARK    7  A    between atoms: C_14  and  C_15 
ROOT
HETATM    1  N   UNL     1      41.750 -14.812   1.370  1.00  0.00    -0.326 N 
HETATM    2  C   UNL     1      41.404 -14.295   0.129  1.00  0.00     0.231 C 
HETATM    3  O   UNL     1      41.563 -14.834  -0.962  1.00  0.00    -0.272 OA
HETATM    4  H   UNL     1      41.522 -14.225   2.161  1.00  0.00     0.169 HD
ENDROOT
BRANCH   2   5
HETATM    5  C   UNL     1      40.762 -12.914   0.227  1.00  0.00     0.177 C 
BRANCH   5   6
HETATM    6  S   UNL     1      41.854 -11.835   1.222  1.00  0.00    -0.147 SA
BRANCH   6   7
HETATM    7  C   UNL     1      40.955 -11.806   2.822  1.00  0.00     0.113 C 
HETATM    8  C   UNL     1      39.453 -11.638   2.603  1.00  0.00     0.029 C 
BRANCH   7   9
HETATM    9  C   UNL     1      41.277 -12.980   3.698  1.00  0.00     0.118 A 
HETATM   10  N   UNL     1      40.429 -13.885   4.150  1.00  0.00    -0.232 NA
HETATM   11  C   UNL     1      41.156 -14.701   4.981  1.00  0.00     0.085 A 
HETATM   12  C   UNL     1      42.486 -14.304   5.026  1.00  0.00     0.062 A 
HETATM   13  C   UNL     1      40.743 -15.805   5.741  1.00  0.00     0.034 A 
HETATM   14  N   UNL     1      42.539 -13.209   4.204  1.00  0.00    -0.342 N 
HETATM   15  C   UNL     1      43.456 -14.959   5.788  1.00  0.00     0.032 A 
HETATM   16  H   UNL     1      43.360 -12.659   3.993  1.00  0.00     0.167 HD
HETATM   17  C   UNL     1      43.026 -16.058   6.540  1.00  0.00     0.002 A 
HETATM   18  C   UNL     1      41.692 -16.475   6.523  1.00  0.00     0.002 A 
ENDBRANCH   7   9
ENDBRANCH   6   7
ENDBRANCH   5   6
ENDBRANCH   2   5
BRANCH   1  19
HETATM   19  C   UNL     1      42.279 -16.089   1.670  1.00  0.00     0.040 A 
HETATM   20  C   UNL     1      41.390 -17.120   2.052  1.00  0.00    -0.034 A 
HETATM   21  C   UNL     1      41.891 -18.415   2.301  1.00  0.00     0.026 A 
HETATM   22  C   UNL     1      39.910 -16.892   2.208  1.00  0.00     0.050 C 
HETATM   23  C   UNL     1      43.256 -18.694   2.171  1.00  0.00     0.032 A 
HETATM   24  C   UNL     1      44.132 -17.663   1.833  1.00  0.00     0.019 A 
HETATM   25  C   UNL     1      43.646 -16.375   1.582  1.00  0.00     0.031 A 
BRANCH  23  26
HETATM   26  C   UNL     1      43.814 -20.059   2.395  1.00  0.00     0.251 C 
HETATM   27  N   UNL     1      44.462 -20.265   3.597  1.00  0.00    -0.357 N 
HETATM   28  H   UNL     1      44.385 -19.569   4.325  1.00  0.00     0.162 HD
HETATM   29  O   UNL     1      43.655 -20.935   1.554  1.00  0.00    -0.268 OA
BRANCH  27  30
HETATM   30  C   UNL     1      44.945 -21.576   3.980  1.00  0.00     0.118 C 
HETATM   31  C   UNL     1      44.627 -21.882   5.433  1.00  0.00     0.026 C 
ENDBRANCH  27  30
ENDBRANCH  23  26
ENDBRANCH   1  19
TORSDOF 7
ENDMDL
MODEL 10
REMARK VINA RESULT:      -6.9      5.018      8.991
REMARK  7 active torsions:
REMARK  status: ('A' for Active; 'I' for Inactive)
REMARK    1  A    between atoms: C_2  and  N_3 
REMARK       I    between atoms: N_3  and  C_4 
REMARK    2  A    between atoms: C_4  and  C_5 
REMARK    3  A    between atoms: C_9  and  N_10 
REMARK       I    between atoms: N_10  and  C_11 
REMARK    4  A    between atoms: C_11  and  C_12 
REMARK    5  A    between atoms: C_12  and  S_13 
REMARK    6  A    between atoms: S_13  and  C_14 
REMARK    7  A    between atoms: C_14  and  C_15 
ROOT
HETATM    1  N   UNL     1      40.088 -15.237   5.784  1.00  0.00    -0.326 N 
HETATM    2  C   UNL     1      40.342 -13.880   5.930  1.00  0.00     0.231 C 
HETATM    3  O   UNL     1      41.436 -13.327   5.879  1.00  0.00    -0.272 OA
HETATM    4  H   UNL     1      39.114 -15.503   5.839  1.00  0.00     0.169 HD
ENDROOT
BRANCH   2   5
HETATM    5  C   UNL     1      39.071 -13.068   6.169  1.00  0.00     0.177 C 
BRANCH   5   6
HETATM    6  S   UNL     1      38.982 -11.745   4.910  1.00  0.00    -0.147 SA
BRANCH   6   7
HETATM    7  C   UNL     1      39.953 -10.419   5.725  1.00  0.00     0.113 C 
HETATM    8  C   UNL     1      39.701  -9.068   5.059  1.00  0.00     0.029 C 
BRANCH   7   9
HETATM    9  C   UNL     1      39.750 -10.371   7.211  1.00  0.00     0.118 A 
HETATM   10  N   UNL     1      38.805  -9.717   7.858  1.00  0.00    -0.232 NA
HETATM   11  C   UNL     1      39.075  -9.887   9.193  1.00  0.00     0.085 A 
HETATM   12  C   UNL     1      40.199 -10.682   9.374  1.00  0.00     0.062 A 
HETATM   13  C   UNL     1      38.402  -9.384  10.317  1.00  0.00     0.034 A 
HETATM   14  N   UNL     1      40.611 -10.977   8.100  1.00  0.00    -0.342 N 
HETATM   15  C   UNL     1      40.701 -11.026  10.631  1.00  0.00     0.032 A 
HETATM   16  H   UNL     1      41.407 -11.546   7.847  1.00  0.00     0.167 HD
HETATM   17  C   UNL     1      40.017 -10.516  11.740  1.00  0.00     0.002 A 
HETATM   18  C   UNL     1      38.889  -9.705  11.590  1.00  0.00     0.002 A 
ENDBRANCH   7   9
ENDBRANCH   6   7
ENDBRANCH   5   6
ENDBRANCH   2   5
BRANCH   1  19
HETATM   19  C   UNL     1      41.001 -16.270   5.467  1.00  0.00     0.040 A 
HETATM   20  C   UNL     1      41.243 -16.569   4.106  1.00  0.00    -0.034 A 
HETATM   21  C   UNL     1      42.191 -17.556   3.768  1.00  0.00     0.026 A 
HETATM   22  C   UNL     1      40.520 -15.867   2.987  1.00  0.00     0.050 C 
HETATM   23  C   UNL     1      42.899 -18.242   4.760  1.00  0.00     0.032 A 
HETATM   24  C   UNL     1      42.627 -17.971   6.101  1.00  0.00     0.019 A 
HETATM   25  C   UNL     1      41.689 -16.992   6.448  1.00  0.00     0.031 A 
BRANCH  23  26
HETATM   26  C   UNL     1      43.933 -19.268   4.437  1.00  0.00     0.251 C 
HETATM   27  N   UNL     1      43.681 -20.062   3.335  1.00  0.00    -0.357 N 
HETATM   28  H   UNL     1      42.927 -19.814   2.710  1.00  0.00     0.162 HD
HETATM   29  O   UNL     1      44.953 -19.348   5.109  1.00  0.00    -0.268 OA
BRANCH  27  30
HETATM   30  C   UNL     1      44.660 -21.014   2.851  1.00  0.00     0.118 C 
HETATM   31  C   UNL     1      44.131 -21.799   1.665  1.00  0.00     0.026 C 
ENDBRANCH  27  30
ENDBRANCH  23  26
ENDBRANCH   1  19
TORSDOF 7
ENDMDL
