MODEL 1
REMARK VINA RESULT:      -7.9      0.000      0.000
REMARK  3 active torsions:
REMARK  status: ('A' for Active; 'I' for Inactive)
REMARK    1  A    between atoms: C_5  and  N_6 
REMARK       I    between atoms: N_6  and  C_7 
REMARK    2  A    between atoms: C_7  and  C_8 
REMARK    3  A    between atoms: C_8  and  C_9 
ROOT
HETATM    1  C   UNL     1      40.633 -14.934   1.094  1.00  0.00     0.286 C 
HETATM    2  N   UNL     1      41.566 -14.274   0.084  1.00  0.00    -0.056 N 
HETATM    3  H   UNL     1      41.665 -13.288   0.411  1.00  0.00     0.278 HD
HETATM    4  H   UNL     1      42.509 -14.678   0.129  1.00  0.00     0.278 HD
HETATM    5  C   UNL     1      41.052 -14.229  -1.327  1.00  0.00     0.209 C 
HETATM    6  C   UNL     1      39.629 -13.615  -1.342  1.00  0.00     0.115 C 
HETATM    7  N   UNL     1      38.740 -14.213  -0.348  1.00  0.00    -0.353 N 
HETATM    8  C   UNL     1      39.153 -14.534   0.922  1.00  0.00     0.249 C 
HETATM    9  O   UNL     1      38.335 -14.598   1.833  1.00  0.00    -0.271 OA
HETATM   10  C   UNL     1      41.119 -15.624  -1.953  1.00  0.00     0.035 C 
HETATM   11  C   UNL     1      40.516 -15.624  -3.355  1.00  0.00     0.002 C 
HETATM   12  C   UNL     1      39.086 -15.091  -3.346  1.00  0.00     0.002 C 
HETATM   13  C   UNL     1      39.011 -13.688  -2.743  1.00  0.00     0.027 C 
HETATM   14  H   UNL     1      37.760 -13.934  -0.367  1.00  0.00     0.163 HD
ENDROOT
BRANCH   1  15
HETATM   15  C   UNL     1      41.106 -14.709   2.540  1.00  0.00     0.146 C 
BRANCH  15  16
HETATM   16  C   UNL     1      42.563 -14.332   2.593  1.00  0.00     0.224 C 
HETATM   17  N   UNL     1      43.564 -15.248   2.618  1.00  0.00    -0.327 N 
HETATM   18  H   UNL     1      44.472 -14.794   2.665  1.00  0.00     0.169 HD
HETATM   19  O   UNL     1      42.863 -13.130   2.532  1.00  0.00    -0.273 OA
BRANCH  17  20
HETATM   20  C   UNL     1      43.618 -16.657   2.608  1.00  0.00     0.034 A 
HETATM   21  C   UNL     1      43.640 -17.488   3.726  1.00  0.00     0.030 A 
HETATM   22  C   UNL     1      43.718 -18.882   3.580  1.00  0.00     0.009 A 
HETATM   23  C   UNL     1      43.753 -19.471   2.315  1.00  0.00    -0.062 A 
HETATM   24  C   UNL     1      43.875 -20.958   2.156  1.00  0.00     0.048 C 
HETATM   25  C   UNL     1      43.720 -18.645   1.192  1.00  0.00     0.009 A 
HETATM   26  C   UNL     1      43.651 -17.256   1.340  1.00  0.00     0.030 A 
ENDBRANCH  17  20
ENDBRANCH  15  16
ENDBRANCH   1  15
TORSDOF 3
ENDMDL
MODEL 2
REMARK VINA RESULT:      -7.8      3.834      5.058
REMARK  3 active torsions:
REMARK  status: ('A' for Active; 'I' for Inactive)
REMARK    1  A    between atoms: C_5  and  N_6 
REMARK       I    between atoms: N_6  and  C_7 
REMARK    2  A    between atoms: C_7  and  C_8 
REMARK    3  A    between atoms: C_8  and  C_9 
ROOT
HETATM    1  C   UNL     1      42.000 -16.955   5.620  1.00  0.00     0.286 C 
HETATM    2  N   UNL     1      42.820 -15.750   5.173  1.00  0.00    -0.056 N 
HETATM    3  H   UNL     1      43.162 -15.313   6.057  1.00  0.00     0.278 HD
HETATM    4  H   UNL     1      43.662 -16.042   4.664  1.00  0.00     0.278 HD
HETATM    5  C   UNL     1      42.055 -14.699   4.419  1.00  0.00     0.209 C 
HETATM    6  C   UNL     1      40.795 -14.296   5.227  1.00  0.00     0.115 C 
HETATM    7  N   UNL     1      40.025 -15.446   5.694  1.00  0.00    -0.353 N 
HETATM    8  C   UNL     1      40.614 -16.584   6.189  1.00  0.00     0.249 C 
HETATM    9  O   UNL     1      39.995 -17.307   6.960  1.00  0.00    -0.271 OA
HETATM   10  C   UNL     1      41.739 -15.196   3.007  1.00  0.00     0.035 C 
HETATM   11  C   UNL     1      40.882 -14.185   2.250  1.00  0.00     0.002 C 
HETATM   12  C   UNL     1      39.605 -13.853   3.018  1.00  0.00     0.002 C 
HETATM   13  C   UNL     1      39.911 -13.335   4.424  1.00  0.00     0.027 C 
HETATM   14  H   UNL     1      39.128 -15.260   6.143  1.00  0.00     0.163 HD
ENDROOT
BRANCH   1  15
HETATM   15  C   UNL     1      42.781 -17.847   6.599  1.00  0.00     0.146 C 
BRANCH  15  16
HETATM   16  C   UNL     1      44.268 -17.656   6.454  1.00  0.00     0.224 C 
HETATM   17  N   UNL     1      45.019 -18.340   5.555  1.00  0.00    -0.327 N 
HETATM   18  H   UNL     1      45.998 -18.077   5.622  1.00  0.00     0.169 HD
HETATM   19  O   UNL     1      44.817 -16.776   7.135  1.00  0.00    -0.273 OA
BRANCH  17  20
HETATM   20  C   UNL     1      44.747 -19.324   4.581  1.00  0.00     0.034 A 
HETATM   21  C   UNL     1      44.946 -20.696   4.718  1.00  0.00     0.030 A 
HETATM   22  C   UNL     1      44.654 -21.570   3.660  1.00  0.00     0.009 A 
HETATM   23  C   UNL     1      44.137 -21.093   2.455  1.00  0.00    -0.062 A 
HETATM   24  C   UNL     1      43.859 -22.020   1.309  1.00  0.00     0.048 C 
HETATM   25  C   UNL     1      43.924 -19.722   2.316  1.00  0.00     0.009 A 
HETATM   26  C   UNL     1      44.224 -18.851   3.368  1.00  0.00     0.030 A 
ENDBRANCH  17  20
ENDBRANCH  15  16
ENDBRANCH   1  15
TORSDOF 3
ENDMDL
MODEL 3
REMARK VINA RESULT:      -7.7      2.654      3.595
REMARK  3 active torsions:
REMARK  status: ('A' for Active; 'I' for Inactive)
REMARK    1  A    between atoms: C_5  and  N_6 
REMARK       I    between atoms: N_6  and  C_7 
REMARK    2  A    between atoms: C_7  and  C_8 
REMARK    3  A    between atoms: C_8  and  C_9 
ROOT
HETATM    1  C   UNL     1      42.161 -14.592   2.732  1.00  0.00     0.286 C 
HETATM    2  N   UNL     1      41.024 -14.487   3.744  1.00  0.00    -0.056 N 
HETATM    3  H   UNL     1      40.914 -15.451   4.128  1.00  0.00     0.278 HD
HETATM    4  H   UNL     1      41.289 -13.898   4.542  1.00  0.00     0.278 HD
HETATM    5  C   UNL     1      39.696 -14.078   3.173  1.00  0.00     0.209 C 
HETATM    6  C   UNL     1      39.342 -14.992   1.974  1.00  0.00     0.115 C 
HETATM    7  N   UNL     1      40.440 -15.131   1.019  1.00  0.00    -0.353 N 
HETATM    8  C   UNL     1      41.750 -15.271   1.409  1.00  0.00     0.249 C 
HETATM    9  O   UNL     1      42.554 -15.819   0.664  1.00  0.00    -0.271 OA
HETATM   10  C   UNL     1      39.716 -12.589   2.818  1.00  0.00     0.035 C 
HETATM   11  C   UNL     1      38.409 -12.168   2.151  1.00  0.00     0.002 C 
HETATM   12  C   UNL     1      38.110 -13.025   0.923  1.00  0.00     0.002 C 
HETATM   13  C   UNL     1      38.066 -14.513   1.272  1.00  0.00     0.027 C 
HETATM   14  H   UNL     1      40.249 -15.633   0.153  1.00  0.00     0.163 HD
ENDROOT
BRANCH   1  15
HETATM   15  C   UNL     1      43.405 -15.261   3.339  1.00  0.00     0.146 C 
BRANCH  15  16
HETATM   16  C   UNL     1      43.085 -15.946   4.641  1.00  0.00     0.224 C 
HETATM   17  N   UNL     1      43.083 -17.294   4.789  1.00  0.00    -0.327 N 
HETATM   18  H   UNL     1      42.831 -17.557   5.738  1.00  0.00     0.169 HD
HETATM   19  O   UNL     1      42.891 -15.241   5.644  1.00  0.00    -0.273 OA
BRANCH  17  20
HETATM   20  C   UNL     1      43.332 -18.385   3.931  1.00  0.00     0.034 A 
HETATM   21  C   UNL     1      42.682 -18.653   2.728  1.00  0.00     0.030 A 
HETATM   22  C   UNL     1      43.011 -19.791   1.975  1.00  0.00     0.009 A 
HETATM   23  C   UNL     1      44.010 -20.669   2.398  1.00  0.00    -0.062 A 
HETATM   24  C   UNL     1      44.337 -21.906   1.615  1.00  0.00     0.048 C 
HETATM   25  C   UNL     1      44.672 -20.400   3.595  1.00  0.00     0.009 A 
HETATM   26  C   UNL     1      44.337 -19.270   4.349  1.00  0.00     0.030 A 
ENDBRANCH  17  20
ENDBRANCH  15  16
ENDBRANCH   1  15
TORSDOF 3
ENDMDL
MODEL 4
REMARK VINA RESULT:      -7.6      3.549      5.273
REMARK  3 active torsions:
REMARK  status: ('A' for Active; 'I' for Inactive)
REMARK    1  A    between atoms: C_5  and  N_6 
REMARK       I    between atoms: N_6  and  C_7 
REMARK    2  A    between atoms: C_7  and  C_8 
REMARK    3  A    between atoms: C_8  and  C_9 
ROOT
HETATM    1  C   UNL     1      41.271 -16.234   3.154  1.00  0.00     0.286 C 
HETATM    2  N   UNL     1      42.287 -15.219   2.640  1.00  0.00    -0.056 N 
HETATM    3  H   UNL     1      43.161 -15.767   2.482  1.00  0.00     0.278 HD
HETATM    4  H   UNL     1      42.016 -14.856   1.718  1.00  0.00     0.278 HD
HETATM    5  C   UNL     1      42.620 -14.108   3.595  1.00  0.00     0.209 C 
HETATM    6  C   UNL     1      43.019 -14.705   4.967  1.00  0.00     0.115 C 
HETATM    7  N   UNL     1      42.072 -15.709   5.449  1.00  0.00    -0.353 N 
HETATM    8  C   UNL     1      41.498 -16.645   4.624  1.00  0.00     0.249 C 
HETATM    9  O   UNL     1      41.093 -17.704   5.089  1.00  0.00    -0.271 OA
HETATM   10  C   UNL     1      41.453 -13.121   3.676  1.00  0.00     0.035 C 
HETATM   11  C   UNL     1      41.728 -12.032   4.709  1.00  0.00     0.002 C 
HETATM   12  C   UNL     1      42.043 -12.630   6.078  1.00  0.00     0.002 C 
HETATM   13  C   UNL     1      43.222 -13.601   6.011  1.00  0.00     0.027 C 
HETATM   14  H   UNL     1      42.211 -16.072   6.391  1.00  0.00     0.163 HD
ENDROOT
BRANCH   1  15
HETATM   15  C   UNL     1      41.182 -17.466   2.239  1.00  0.00     0.146 C 
BRANCH  15  16
HETATM   16  C   UNL     1      42.317 -17.503   1.249  1.00  0.00     0.224 C 
HETATM   17  N   UNL     1      43.403 -18.302   1.396  1.00  0.00    -0.327 N 
HETATM   18  H   UNL     1      44.058 -18.172   0.631  1.00  0.00     0.169 HD
HETATM   19  O   UNL     1      42.215 -16.828   0.213  1.00  0.00    -0.273 OA
BRANCH  17  20
HETATM   20  C   UNL     1      43.819 -19.240   2.364  1.00  0.00     0.034 A 
HETATM   21  C   UNL     1      44.169 -18.963   3.684  1.00  0.00     0.030 A 
HETATM   22  C   UNL     1      44.589 -19.990   4.543  1.00  0.00     0.009 A 
HETATM   23  C   UNL     1      44.647 -21.314   4.106  1.00  0.00    -0.062 A 
HETATM   24  C   UNL     1      45.132 -22.408   5.011  1.00  0.00     0.048 C 
HETATM   25  C   UNL     1      44.287 -21.600   2.790  1.00  0.00     0.009 A 
HETATM   26  C   UNL     1      43.877 -20.574   1.932  1.00  0.00     0.030 A 
ENDBRANCH  17  20
ENDBRANCH  15  16
ENDBRANCH   1  15
TORSDOF 3
ENDMDL
MODEL 5
REMARK VINA RESULT:      -7.6      3.323      5.132
REMARK  3 active torsions:
REMARK  status: ('A' for Active; 'I' for Inactive)
REMARK    1  A    between atoms: C_5  and  N_6 
REMARK       I    between atoms: N_6  and  C_7 
REMARK    2  A    between atoms: C_7  and  C_8 
REMARK    3  A    between atoms: C_8  and  C_9 
ROOT
HETATM    1  C   UNL     1      41.225 -16.040   3.109  1.00  0.00     0.286 C 
HETATM    2  N   UNL     1      41.540 -16.306   4.577  1.00  0.00    -0.056 N 
HETATM    3  H   UNL     1      40.836 -17.015   4.880  1.00  0.00     0.278 HD
HETATM    4  H   UNL     1      42.455 -16.758   4.685  1.00  0.00     0.278 HD
HETATM    5  C   UNL     1      41.400 -15.118   5.486  1.00  0.00     0.209 C 
HETATM    6  C   UNL     1      40.006 -14.471   5.284  1.00  0.00     0.115 C 
HETATM    7  N   UNL     1      39.679 -14.250   3.877  1.00  0.00    -0.353 N 
HETATM    8  C   UNL     1      39.974 -15.162   2.894  1.00  0.00     0.249 C 
HETATM    9  O   UNL     1      39.322 -15.175   1.856  1.00  0.00    -0.271 OA
HETATM   10  C   UNL     1      42.560 -14.146   5.259  1.00  0.00     0.035 C 
HETATM   11  C   UNL     1      42.393 -12.887   6.105  1.00  0.00     0.002 C 
HETATM   12  C   UNL     1      41.049 -12.213   5.840  1.00  0.00     0.002 C 
HETATM   13  C   UNL     1      39.881 -13.170   6.085  1.00  0.00     0.027 C 
HETATM   14  H   UNL     1      38.825 -13.734   3.669  1.00  0.00     0.163 HD
ENDROOT
BRANCH   1  15
HETATM   15  C   UNL     1      41.135 -17.344   2.299  1.00  0.00     0.146 C 
BRANCH  15  16
HETATM   16  C   UNL     1      42.229 -17.430   1.268  1.00  0.00     0.224 C 
HETATM   17  N   UNL     1      43.304 -18.247   1.396  1.00  0.00    -0.327 N 
HETATM   18  H   UNL     1      43.933 -18.151   0.603  1.00  0.00     0.169 HD
HETATM   19  O   UNL     1      42.100 -16.783   0.218  1.00  0.00    -0.273 OA
BRANCH  17  20
HETATM   20  C   UNL     1      43.740 -19.166   2.373  1.00  0.00     0.034 A 
HETATM   21  C   UNL     1      44.019 -18.881   3.708  1.00  0.00     0.030 A 
HETATM   22  C   UNL     1      44.468 -19.887   4.576  1.00  0.00     0.009 A 
HETATM   23  C   UNL     1      44.625 -21.202   4.133  1.00  0.00    -0.062 A 
HETATM   24  C   UNL     1      45.142 -22.272   5.049  1.00  0.00     0.048 C 
HETATM   25  C   UNL     1      44.336 -21.497   2.802  1.00  0.00     0.009 A 
HETATM   26  C   UNL     1      43.897 -20.490   1.935  1.00  0.00     0.030 A 
ENDBRANCH  17  20
ENDBRANCH  15  16
ENDBRANCH   1  15
TORSDOF 3
ENDMDL
MODEL 6
REMARK VINA RESULT:      -7.5      2.915      7.522
REMARK  3 active torsions:
REMARK  status: ('A' for Active; 'I' for Inactive)
REMARK    1  A    between atoms: C_5  and  N_6 
REMARK       I    between atoms: N_6  and  C_7 
REMARK    2  A    between atoms: C_7  and  C_8 
REMARK    3  A    between atoms: C_8  and  C_9 
ROOT
HETATM    1  C   UNL     1      42.678 -18.389   3.363  1.00  0.00     0.286 C 
HETATM    2  N   UNL     1      42.954 -17.014   3.962  1.00  0.00    -0.056 N 
HETATM    3  H   UNL     1      43.690 -16.596   3.351  1.00  0.00     0.278 HD
HETATM    4  H   UNL     1      42.137 -16.399   3.873  1.00  0.00     0.278 HD
HETATM    5  C   UNL     1      43.489 -17.023   5.366  1.00  0.00     0.209 C 
HETATM    6  C   UNL     1      44.716 -17.965   5.448  1.00  0.00     0.115 C 
HETATM    7  N   UNL     1      44.474 -19.272   4.841  1.00  0.00    -0.353 N 
HETATM    8  C   UNL     1      43.779 -19.428   3.666  1.00  0.00     0.249 C 
HETATM    9  O   UNL     1      43.970 -20.417   2.969  1.00  0.00    -0.271 OA
HETATM   10  C   UNL     1      42.373 -17.390   6.347  1.00  0.00     0.035 C 
HETATM   11  C   UNL     1      42.910 -17.496   7.772  1.00  0.00     0.002 C 
HETATM   12  C   UNL     1      44.069 -18.487   7.857  1.00  0.00     0.002 C 
HETATM   13  C   UNL     1      45.199 -18.116   6.895  1.00  0.00     0.027 C 
HETATM   14  H   UNL     1      45.198 -19.981   4.947  1.00  0.00     0.163 HD
ENDROOT
BRANCH   1  15
HETATM   15  C   UNL     1      42.389 -18.309   1.856  1.00  0.00     0.146 C 
BRANCH  15  16
HETATM   16  C   UNL     1      43.156 -17.188   1.205  1.00  0.00     0.224 C 
HETATM   17  N   UNL     1      42.582 -16.016   0.833  1.00  0.00    -0.327 N 
HETATM   18  H   UNL     1      43.264 -15.397   0.402  1.00  0.00     0.169 HD
HETATM   19  O   UNL     1      44.383 -17.313   1.074  1.00  0.00    -0.273 OA
BRANCH  17  20
HETATM   20  C   UNL     1      41.277 -15.487   0.898  1.00  0.00     0.034 A 
HETATM   21  C   UNL     1      40.370 -15.654   1.942  1.00  0.00     0.030 A 
HETATM   22  C   UNL     1      39.087 -15.091   1.873  1.00  0.00     0.009 A 
HETATM   23  C   UNL     1      38.693 -14.332   0.769  1.00  0.00    -0.062 A 
HETATM   24  C   UNL     1      37.309 -13.761   0.675  1.00  0.00     0.048 C 
HETATM   25  C   UNL     1      39.600 -14.152  -0.274  1.00  0.00     0.009 A 
HETATM   26  C   UNL     1      40.875 -14.721  -0.207  1.00  0.00     0.030 A 
ENDBRANCH  17  20
ENDBRANCH  15  16
ENDBRANCH   1  15
TORSDOF 3
ENDMDL
MODEL 7
REMARK VINA RESULT:      -7.4      3.274      6.915
REMARK  3 active torsions:
REMARK  status: ('A' for Active; 'I' for Inactive)
REMARK    1  A    between atoms: C_5  and  N_6 
REMARK       I    between atoms: N_6  and  C_7 
REMARK    2  A    between atoms: C_7  and  C_8 
REMARK    3  A    between atoms: C_8  and  C_9 
ROOT
HETATM    1  C   UNL     1      41.239 -15.044  -0.413  1.00  0.00     0.286 C 
HETATM    2  N   UNL     1      41.048 -16.557  -0.368  1.00  0.00    -0.056 N 
HETATM    3  H   UNL     1      40.016 -16.701  -0.431  1.00  0.00     0.278 HD
HETATM    4  H   UNL     1      41.443 -17.006  -1.202  1.00  0.00     0.278 HD
HETATM    5  C   UNL     1      41.517 -17.223   0.894  1.00  0.00     0.209 C 
HETATM    6  C   UNL     1      40.897 -16.509   2.120  1.00  0.00     0.115 C 
HETATM    7  N   UNL     1      41.040 -15.055   2.066  1.00  0.00    -0.353 N 
HETATM    8  C   UNL     1      40.873 -14.335   0.908  1.00  0.00     0.249 C 
HETATM    9  O   UNL     1      40.556 -13.153   0.964  1.00  0.00    -0.271 OA
HETATM   10  C   UNL     1      43.047 -17.266   0.924  1.00  0.00     0.035 C 
HETATM   11  C   UNL     1      43.552 -17.856   2.237  1.00  0.00     0.002 C 
HETATM   12  C   UNL     1      42.997 -17.095   3.439  1.00  0.00     0.002 C 
HETATM   13  C   UNL     1      41.468 -17.065   3.429  1.00  0.00     0.027 C 
HETATM   14  H   UNL     1      40.749 -14.524   2.885  1.00  0.00     0.163 HD
ENDROOT
BRANCH   1  15
HETATM   15  C   UNL     1      40.504 -14.411  -1.606  1.00  0.00     0.146 C 
BRANCH  15  16
HETATM   16  C   UNL     1      41.299 -14.543  -2.878  1.00  0.00     0.224 C 
HETATM   17  N   UNL     1      42.111 -13.565  -3.349  1.00  0.00    -0.327 N 
HETATM   18  H   UNL     1      42.548 -13.842  -4.224  1.00  0.00     0.169 HD
HETATM   19  O   UNL     1      41.267 -15.627  -3.481  1.00  0.00    -0.273 OA
BRANCH  17  20
HETATM   20  C   UNL     1      42.463 -12.272  -2.910  1.00  0.00     0.034 A 
HETATM   21  C   UNL     1      42.970 -11.936  -1.657  1.00  0.00     0.030 A 
HETATM   22  C   UNL     1      43.261 -10.601  -1.336  1.00  0.00     0.009 A 
HETATM   23  C   UNL     1      43.071  -9.580  -2.268  1.00  0.00    -0.062 A 
HETATM   24  C   UNL     1      43.344  -8.148  -1.916  1.00  0.00     0.048 C 
HETATM   25  C   UNL     1      42.574  -9.911  -3.529  1.00  0.00     0.009 A 
HETATM   26  C   UNL     1      42.277 -11.241  -3.844  1.00  0.00     0.030 A 
ENDBRANCH  17  20
ENDBRANCH  15  16
ENDBRANCH   1  15
TORSDOF 3
ENDMDL
MODEL 8
REMARK VINA RESULT:      -7.3      3.941      5.422
REMARK  3 active torsions:
REMARK  status: ('A' for Active; 'I' for Inactive)
REMARK    1  A    between atoms: C_5  and  N_6 
REMARK       I    between atoms: N_6  and  C_7 
REMARK    2  A    between atoms: C_7  and  C_8 
REMARK    3  A    between atoms: C_8  and  C_9 
ROOT
HETATM    1  C   UNL     1      42.990 -14.487   5.564  1.00  0.00     0.286 C 
HETATM    2  N   UNL     1      41.645 -15.182   5.754  1.00  0.00    -0.056 N 
HETATM    3  H   UNL     1      41.722 -16.072   5.214  1.00  0.00     0.278 HD
HETATM    4  H   UNL     1      41.506 -15.461   6.732  1.00  0.00     0.278 HD
HETATM    5  C   UNL     1      40.457 -14.434   5.218  1.00  0.00     0.209 C 
HETATM    6  C   UNL     1      40.717 -14.034   3.744  1.00  0.00     0.115 C 
HETATM    7  N   UNL     1      42.021 -13.404   3.545  1.00  0.00    -0.353 N 
HETATM    8  C   UNL     1      43.161 -13.843   4.172  1.00  0.00     0.249 C 
HETATM    9  O   UNL     1      44.258 -13.618   3.673  1.00  0.00    -0.271 OA
HETATM   10  C   UNL     1      40.138 -13.243   6.125  1.00  0.00     0.035 C 
HETATM   11  C   UNL     1      38.992 -12.412   5.553  1.00  0.00     0.002 C 
HETATM   12  C   UNL     1      39.293 -11.956   4.127  1.00  0.00     0.002 C 
HETATM   13  C   UNL     1      39.592 -13.141   3.208  1.00  0.00     0.027 C 
HETATM   14  H   UNL     1      42.221 -13.020   2.623  1.00  0.00     0.163 HD
ENDROOT
BRANCH   1  15
HETATM   15  C   UNL     1      44.166 -15.419   5.894  1.00  0.00     0.146 C 
BRANCH  15  16
HETATM   16  C   UNL     1      43.770 -16.479   6.889  1.00  0.00     0.224 C 
HETATM   17  N   UNL     1      43.599 -17.782   6.555  1.00  0.00    -0.327 N 
HETATM   18  H   UNL     1      43.321 -18.333   7.362  1.00  0.00     0.169 HD
HETATM   19  O   UNL     1      43.671 -16.156   8.083  1.00  0.00    -0.273 OA
BRANCH  17  20
HETATM   20  C   UNL     1      43.705 -18.520   5.357  1.00  0.00     0.034 A 
HETATM   21  C   UNL     1      43.005 -18.281   4.177  1.00  0.00     0.030 A 
HETATM   22  C   UNL     1      43.187 -19.107   3.057  1.00  0.00     0.009 A 
HETATM   23  C   UNL     1      44.087 -20.173   3.089  1.00  0.00    -0.062 A 
HETATM   24  C   UNL     1      44.255 -21.082   1.907  1.00  0.00     0.048 C 
HETATM   25  C   UNL     1      44.799 -20.411   4.264  1.00  0.00     0.009 A 
HETATM   26  C   UNL     1      44.610 -19.592   5.382  1.00  0.00     0.030 A 
ENDBRANCH  17  20
ENDBRANCH  15  16
ENDBRANCH   1  15
TORSDOF 3
ENDMDL
MODEL 9
REMARK VINA RESULT:      -7.3      1.952      2.558
REMARK  3 active torsions:
REMARK  status: ('A' for Active; 'I' for Inactive)
REMARK    1  A    between atoms: C_5  and  N_6 
REMARK       I    between atoms: N_6  and  C_7 
REMARK    2  A    between atoms: C_7  and  C_8 
REMARK    3  A    between atoms: C_8  and  C_9 
ROOT
HETATM    1  C   UNL     1      41.741 -13.812   0.389  1.00  0.00     0.286 C 
HETATM    2  N   UNL     1      41.232 -12.377   0.301  1.00  0.00    -0.056 N 
HETATM    3  H   UNL     1      40.233 -12.426   0.598  1.00  0.00     0.278 HD
HETATM    4  H   UNL     1      41.697 -11.774   0.989  1.00  0.00     0.278 HD
HETATM    5  C   UNL     1      41.262 -11.771  -1.074  1.00  0.00     0.209 C 
HETATM    6  C   UNL     1      40.551 -12.717  -2.074  1.00  0.00     0.115 C 
HETATM    7  N   UNL     1      41.004 -14.102  -1.969  1.00  0.00    -0.353 N 
HETATM    8  C   UNL     1      41.251 -14.714  -0.764  1.00  0.00     0.249 C 
HETATM    9  O   UNL     1      41.184 -15.934  -0.672  1.00  0.00    -0.271 OA
HETATM   10  C   UNL     1      42.704 -11.441  -1.468  1.00  0.00     0.035 C 
HETATM   11  C   UNL     1      42.772 -10.909  -2.897  1.00  0.00     0.002 C 
HETATM   12  C   UNL     1      42.139 -11.886  -3.885  1.00  0.00     0.002 C 
HETATM   13  C   UNL     1      40.691 -12.205  -3.512  1.00  0.00     0.027 C 
HETATM   14  H   UNL     1      40.658 -14.764  -2.663  1.00  0.00     0.163 HD
ENDROOT
BRANCH   1  15
HETATM   15  C   UNL     1      41.436 -14.443   1.757  1.00  0.00     0.146 C 
BRANCH  15  16
HETATM   16  C   UNL     1      42.574 -14.245   2.723  1.00  0.00     0.224 C 
HETATM   17  N   UNL     1      43.431 -15.237   3.072  1.00  0.00    -0.327 N 
HETATM   18  H   UNL     1      44.120 -14.906   3.742  1.00  0.00     0.169 HD
HETATM   19  O   UNL     1      42.783 -13.103   3.159  1.00  0.00    -0.273 OA
BRANCH  17  20
HETATM   20  C   UNL     1      43.563 -16.598   2.728  1.00  0.00     0.034 A 
HETATM   21  C   UNL     1      43.792 -17.108   1.452  1.00  0.00     0.030 A 
HETATM   22  C   UNL     1      43.883 -18.492   1.240  1.00  0.00     0.009 A 
HETATM   23  C   UNL     1      43.768 -19.391   2.301  1.00  0.00    -0.062 A 
HETATM   24  C   UNL     1      43.826 -20.873   2.072  1.00  0.00     0.048 C 
HETATM   25  C   UNL     1      43.550 -18.887   3.583  1.00  0.00     0.009 A 
HETATM   26  C   UNL     1      43.452 -17.508   3.791  1.00  0.00     0.030 A 
ENDBRANCH  17  20
ENDBRANCH  15  16
ENDBRANCH   1  15
TORSDOF 3
ENDMDL
MODEL 10
REMARK VINA RESULT:      -7.3      1.617      2.609
REMARK  3 active torsions:
REMARK  status: ('A' for Active; 'I' for Inactive)
REMARK    1  A    between atoms: C_5  and  N_6 
REMARK       I    between atoms: N_6  and  C_7 
REMARK    2  A    between atoms: C_7  and  C_8 
REMARK    3  A    between atoms: C_8  and  C_9 
ROOT
HETATM    1  C   UNL     1      41.149 -13.973   0.731  1.00  0.00     0.286 C 
HETATM    2  N   UNL     1      41.121 -15.102  -0.294  1.00  0.00    -0.056 N 
HETATM    3  H   UNL     1      42.067 -15.539  -0.241  1.00  0.00     0.278 HD
HETATM    4  H   UNL     1      40.459 -15.838  -0.018  1.00  0.00     0.278 HD
HETATM    5  C   UNL     1      40.905 -14.670  -1.716  1.00  0.00     0.209 C 
HETATM    6  C   UNL     1      41.923 -13.561  -2.082  1.00  0.00     0.115 C 
HETATM    7  N   UNL     1      41.986 -12.494  -1.085  1.00  0.00    -0.353 N 
HETATM    8  C   UNL     1      41.948 -12.737   0.267  1.00  0.00     0.249 C 
HETATM    9  O   UNL     1      42.439 -11.930   1.047  1.00  0.00    -0.271 OA
HETATM   10  C   UNL     1      39.448 -14.249  -1.919  1.00  0.00     0.035 C 
HETATM   11  C   UNL     1      39.223 -13.718  -3.332  1.00  0.00     0.002 C 
HETATM   12  C   UNL     1      40.180 -12.572  -3.655  1.00  0.00     0.002 C 
HETATM   13  C   UNL     1      41.639 -12.989  -3.475  1.00  0.00     0.027 C 
HETATM   14  H   UNL     1      42.557 -11.679  -1.305  1.00  0.00     0.163 HD
ENDROOT
BRANCH   1  15
HETATM   15  C   UNL     1      41.630 -14.462   2.107  1.00  0.00     0.146 C 
BRANCH  15  16
HETATM   16  C   UNL     1      40.557 -15.238   2.824  1.00  0.00     0.224 C 
HETATM   17  N   UNL     1      40.698 -16.538   3.183  1.00  0.00    -0.327 N 
HETATM   18  H   UNL     1      39.860 -16.882   3.645  1.00  0.00     0.169 HD
HETATM   19  O   UNL     1      39.529 -14.636   3.171  1.00  0.00    -0.273 OA
BRANCH  17  20
HETATM   20  C   UNL     1      41.721 -17.499   3.046  1.00  0.00     0.034 A 
HETATM   21  C   UNL     1      42.127 -18.107   1.860  1.00  0.00     0.030 A 
HETATM   22  C   UNL     1      43.148 -19.069   1.862  1.00  0.00     0.009 A 
HETATM   23  C   UNL     1      43.798 -19.426   3.045  1.00  0.00    -0.062 A 
HETATM   24  C   UNL     1      44.863 -20.481   3.057  1.00  0.00     0.048 C 
HETATM   25  C   UNL     1      43.404 -18.812   4.234  1.00  0.00     0.009 A 
HETATM   26  C   UNL     1      42.380 -17.860   4.231  1.00  0.00     0.030 A 
ENDBRANCH  17  20
ENDBRANCH  15  16
ENDBRANCH   1  15
TORSDOF 3
ENDMDL
