MODEL 1
REMARK VINA RESULT:      -9.3      0.000      0.000
REMARK  10 active torsions:
REMARK  status: ('A' for Active; 'I' for Inactive)
REMARK    1  A    between atoms: C_6  and  N_7 
REMARK    2  A    between atoms: C_8  and  S_9 
REMARK    3  A    between atoms: S_9  and  C_10 
REMARK    4  A    between atoms: C_10  and  C_11 
REMARK       I    between atoms: C_11  and  N_12 
REMARK    5  A    between atoms: N_12  and  C_13 
REMARK    6  A    between atoms: C_13  and  C_14 
REMARK    7  A    between atoms: C_14  and  C_15 
REMARK    8  A    between atoms: C_18  and  S_19 
REMARK    9  A    between atoms: S_19  and  N_20 
REMARK   10  A    between atoms: C_29  and  N_30 
ROOT
HETATM    1  N   UNL     1      42.397 -17.233   3.638  1.00  0.00    -0.276 N 
HETATM    2  C   UNL     1      42.574 -17.044   4.977  1.00  0.00     0.177 A 
HETATM    3  N   UNL     1      43.213 -17.894   5.800  1.00  0.00    -0.204 NA
HETATM    4  C   UNL     1      43.739 -18.928   5.144  1.00  0.00     0.162 A 
HETATM    5  C   UNL     1      43.659 -19.174   3.789  1.00  0.00     0.081 A 
HETATM    6  C   UNL     1      42.924 -18.299   2.971  1.00  0.00     0.124 A 
HETATM    7  N   UNL     1      44.480 -19.936   5.690  1.00  0.00    -0.260 N 
HETATM    8  H   UNL     1      44.737 -20.066   6.665  1.00  0.00     0.191 HD
HETATM    9  N   UNL     1      44.907 -20.823   4.779  1.00  0.00    -0.177 NA
HETATM   10  C   UNL     1      44.431 -20.362   3.616  1.00  0.00     0.068 A 
HETATM   11  C   UNL     1      44.756 -21.089   2.361  1.00  0.00     0.073 C 
ENDROOT
BRANCH   2  12
HETATM   12  S   UNL     1      42.129 -15.489   5.752  1.00  0.00    -0.082 SA
BRANCH  12  13
HETATM   13  C   UNL     1      43.619 -15.166   6.748  1.00  0.00     0.185 C 
BRANCH  13  14
HETATM   14  C   UNL     1      44.373 -13.991   6.156  1.00  0.00     0.227 C 
HETATM   15  N   UNL     1      45.148 -13.210   6.965  1.00  0.00    -0.360 N 
HETATM   16  H   UNL     1      45.520 -12.402   6.472  1.00  0.00     0.162 HD
HETATM   17  O   UNL     1      44.296 -13.733   4.955  1.00  0.00    -0.273 OA
BRANCH  15  18
HETATM   18  C   UNL     1      45.173 -13.182   8.421  1.00  0.00     0.127 C 
BRANCH  18  19
HETATM   19  C   UNL     1      45.190 -11.764   9.003  1.00  0.00     0.058 C 
BRANCH  19  20
HETATM   20  C   UNL     1      44.069 -11.521   9.988  1.00  0.00    -0.057 A 
HETATM   21  C   UNL     1      44.216 -11.861  11.341  1.00  0.00     0.009 A 
HETATM   22  C   UNL     1      43.155 -11.694  12.233  1.00  0.00     0.025 A 
HETATM   23  C   UNL     1      41.945 -11.167  11.773  1.00  0.00     0.074 A 
HETATM   24  C   UNL     1      41.788 -10.812  10.432  1.00  0.00     0.025 A 
HETATM   25  C   UNL     1      42.851 -10.984   9.544  1.00  0.00     0.009 A 
BRANCH  23  26
HETATM   26  S   UNL     1      40.573 -11.033  12.882  1.00  0.00     0.239 S 
HETATM   27  O   UNL     1      41.067 -10.824  14.223  1.00  0.00    -0.206 OA
HETATM   28  O   UNL     1      39.571 -10.179  12.283  1.00  0.00    -0.206 OA
BRANCH  26  29
HETATM   29  N   UNL     1      39.943 -12.586  12.850  1.00  0.00    -0.225 NA
HETATM   30  H   UNL     1      38.964 -12.557  12.560  1.00  0.00     0.136 HD
HETATM   31  H   UNL     1      40.523 -13.184  12.260  1.00  0.00     0.136 HD
ENDBRANCH  26  29
ENDBRANCH  23  26
ENDBRANCH  19  20
ENDBRANCH  18  19
ENDBRANCH  15  18
ENDBRANCH  13  14
ENDBRANCH  12  13
ENDBRANCH   2  12
BRANCH   1  32
HETATM   32  C   UNL     1      41.620 -16.276   2.898  1.00  0.00     0.045 A 
HETATM   33  C   UNL     1      42.236 -15.119   2.430  1.00  0.00     0.054 A 
HETATM   34  C   UNL     1      41.459 -14.188   1.741  1.00  0.00     0.042 A 
HETATM   35  C   UNL     1      40.087 -14.414   1.520  1.00  0.00    -0.040 A 
HETATM   36 CL   UNL     1      42.241 -12.758   1.179  1.00  0.00    -0.084 Cl
HETATM   37  C   UNL     1      39.230 -13.416   0.786  1.00  0.00     0.050 C 
HETATM   38  C   UNL     1      39.504 -15.604   1.991  1.00  0.00     0.011 A 
HETATM   39  C   UNL     1      40.266 -16.544   2.681  1.00  0.00     0.031 A 
ENDBRANCH   1  32
BRANCH   6  40
HETATM   40  N   UNL     1      42.750 -18.503   1.610  1.00  0.00    -0.384 N 
HETATM   41  H   UNL     1      42.976 -19.411   1.215  1.00  0.00     0.157 HD
HETATM   42  H   UNL     1      42.138 -17.935   1.038  1.00  0.00     0.157 HD
ENDBRANCH   6  40
TORSDOF 10
ENDMDL
MODEL 2
REMARK VINA RESULT:      -8.9      2.560      4.958
REMARK  10 active torsions:
REMARK  status: ('A' for Active; 'I' for Inactive)
REMARK    1  A    between atoms: C_6  and  N_7 
REMARK    2  A    between atoms: C_8  and  S_9 
REMARK    3  A    between atoms: S_9  and  C_10 
REMARK    4  A    between atoms: C_10  and  C_11 
REMARK       I    between atoms: C_11  and  N_12 
REMARK    5  A    between atoms: N_12  and  C_13 
REMARK    6  A    between atoms: C_13  and  C_14 
REMARK    7  A    between atoms: C_14  and  C_15 
REMARK    8  A    between atoms: C_18  and  S_19 
REMARK    9  A    between atoms: S_19  and  N_20 
REMARK   10  A    between atoms: C_29  and  N_30 
ROOT
HETATM    1  N   UNL     1      42.253 -15.237   2.158  1.00  0.00    -0.276 N 
HETATM    2  C   UNL     1      42.852 -14.123   2.668  1.00  0.00     0.177 A 
HETATM    3  N   UNL     1      42.462 -12.858   2.431  1.00  0.00    -0.204 NA
HETATM    4  C   UNL     1      41.355 -12.804   1.691  1.00  0.00     0.162 A 
HETATM    5  C   UNL     1      40.652 -13.875   1.177  1.00  0.00     0.081 A 
HETATM    6  C   UNL     1      41.129 -15.179   1.390  1.00  0.00     0.124 A 
HETATM    7  N   UNL     1      40.691 -11.672   1.316  1.00  0.00    -0.260 N 
HETATM    8  H   UNL     1      40.932 -10.707   1.526  1.00  0.00     0.191 HD
HETATM    9  N   UNL     1      39.585 -11.928   0.600  1.00  0.00    -0.177 NA
HETATM   10  C   UNL     1      39.539 -13.263   0.524  1.00  0.00     0.068 A 
HETATM   11  C   UNL     1      38.397 -13.911  -0.174  1.00  0.00     0.073 C 
ENDROOT
BRANCH   2  12
HETATM   12  S   UNL     1      44.137 -14.259   3.912  1.00  0.00    -0.082 SA
BRANCH  12  13
HETATM   13  C   UNL     1      43.211 -13.796   5.411  1.00  0.00     0.185 C 
BRANCH  13  14
HETATM   14  C   UNL     1      43.652 -14.675   6.564  1.00  0.00     0.227 C 
HETATM   15  N   UNL     1      44.432 -14.150   7.554  1.00  0.00    -0.360 N 
HETATM   16  H   UNL     1      44.741 -14.859   8.213  1.00  0.00     0.162 HD
HETATM   17  O   UNL     1      43.315 -15.857   6.620  1.00  0.00    -0.273 OA
BRANCH  15  18
HETATM   18  C   UNL     1      45.141 -12.877   7.550  1.00  0.00     0.127 C 
BRANCH  18  19
HETATM   19  C   UNL     1      45.586 -12.424   8.946  1.00  0.00     0.058 C 
BRANCH  19  20
HETATM   20  C   UNL     1      44.437 -11.928   9.794  1.00  0.00    -0.057 A 
HETATM   21  C   UNL     1      44.344 -12.273  11.151  1.00  0.00     0.009 A 
HETATM   22  C   UNL     1      43.248 -11.866  11.913  1.00  0.00     0.025 A 
HETATM   23  C   UNL     1      42.246 -11.094  11.320  1.00  0.00     0.074 A 
HETATM   24  C   UNL     1      42.329 -10.731   9.975  1.00  0.00     0.025 A 
HETATM   25  C   UNL     1      43.426 -11.144   9.217  1.00  0.00     0.009 A 
BRANCH  23  26
HETATM   26  S   UNL     1      40.815 -10.647  12.260  1.00  0.00     0.239 S 
HETATM   27  O   UNL     1      40.601 -11.634  13.293  1.00  0.00    -0.206 OA
HETATM   28  O   UNL     1      40.864  -9.230  12.541  1.00  0.00    -0.206 OA
BRANCH  26  29
HETATM   29  N   UNL     1      39.582 -10.860  11.145  1.00  0.00    -0.225 NA
HETATM   30  H   UNL     1      38.844 -11.438  11.551  1.00  0.00     0.136 HD
HETATM   31  H   UNL     1      39.250  -9.953  10.815  1.00  0.00     0.136 HD
ENDBRANCH  26  29
ENDBRANCH  23  26
ENDBRANCH  19  20
ENDBRANCH  18  19
ENDBRANCH  15  18
ENDBRANCH  13  14
ENDBRANCH  12  13
ENDBRANCH   2  12
BRANCH   1  32
HETATM   32  C   UNL     1      42.831 -16.525   2.433  1.00  0.00     0.045 A 
HETATM   33  C   UNL     1      42.611 -17.115   3.675  1.00  0.00     0.054 A 
HETATM   34  C   UNL     1      43.204 -18.349   3.936  1.00  0.00     0.042 A 
HETATM   35  C   UNL     1      44.003 -18.986   2.966  1.00  0.00    -0.040 A 
HETATM   36 CL   UNL     1      42.925 -19.058   5.482  1.00  0.00    -0.084 Cl
HETATM   37  C   UNL     1      44.660 -20.315   3.233  1.00  0.00     0.050 C 
HETATM   38  C   UNL     1      44.188 -18.368   1.716  1.00  0.00     0.011 A 
HETATM   39  C   UNL     1      43.601 -17.135   1.441  1.00  0.00     0.031 A 
ENDBRANCH   1  32
BRANCH   6  40
HETATM   40  N   UNL     1      40.511 -16.304   0.863  1.00  0.00    -0.384 N 
HETATM   41  H   UNL     1      39.726 -16.713   1.360  1.00  0.00     0.157 HD
HETATM   42  H   UNL     1      40.575 -16.567  -0.113  1.00  0.00     0.157 HD
ENDBRANCH   6  40
TORSDOF 10
ENDMDL
MODEL 3
REMARK VINA RESULT:      -8.8      5.189      8.106
REMARK  10 active torsions:
REMARK  status: ('A' for Active; 'I' for Inactive)
REMARK    1  A    between atoms: C_6  and  N_7 
REMARK    2  A    between atoms: C_8  and  S_9 
REMARK    3  A    between atoms: S_9  and  C_10 
REMARK    4  A    between atoms: C_10  and  C_11 
REMARK       I    between atoms: C_11  and  N_12 
REMARK    5  A    between atoms: N_12  and  C_13 
REMARK    6  A    between atoms: C_13  and  C_14 
REMARK    7  A    between atoms: C_14  and  C_15 
REMARK    8  A    between atoms: C_18  and  S_19 
REMARK    9  A    between atoms: S_19  and  N_20 
REMARK   10  A    between atoms: C_29  and  N_30 
ROOT
HETATM    1  N   UNL     1      40.292 -12.708   2.171  1.00  0.00    -0.276 N 
HETATM    2  C   UNL     1      41.373 -12.523   1.361  1.00  0.00     0.177 A 
HETATM    3  N   UNL     1      42.643 -12.823   1.686  1.00  0.00    -0.204 NA
HETATM    4  C   UNL     1      42.731 -13.408   2.881  1.00  0.00     0.162 A 
HETATM    5  C   UNL     1      41.691 -13.684   3.743  1.00  0.00     0.081 A 
HETATM    6  C   UNL     1      40.386 -13.294   3.398  1.00  0.00     0.124 A 
HETATM    7  N   UNL     1      43.873 -13.867   3.471  1.00  0.00    -0.260 N 
HETATM    8  H   UNL     1      44.822 -13.829   3.110  1.00  0.00     0.191 HD
HETATM    9  N   UNL     1      43.650 -14.442   4.662  1.00  0.00    -0.177 NA
HETATM   10  C   UNL     1      42.326 -14.355   4.832  1.00  0.00     0.068 A 
HETATM   11  C   UNL     1      41.711 -14.944   6.050  1.00  0.00     0.073 C 
ENDROOT
BRANCH   2  12
HETATM   12  S   UNL     1      41.165 -12.033  -0.351  1.00  0.00    -0.082 SA
BRANCH  12  13
HETATM   13  C   UNL     1      41.775 -13.520  -1.208  1.00  0.00     0.185 C 
BRANCH  13  14
HETATM   14  C   UNL     1      40.620 -14.474  -1.441  1.00  0.00     0.227 C 
HETATM   15  N   UNL     1      40.458 -15.551  -0.618  1.00  0.00    -0.360 N 
HETATM   16  H   UNL     1      39.712 -16.165  -0.935  1.00  0.00     0.162 HD
HETATM   17  O   UNL     1      39.826 -14.289  -2.363  1.00  0.00    -0.273 OA
BRANCH  15  18
HETATM   18  C   UNL     1      41.408 -16.087   0.348  1.00  0.00     0.127 C 
BRANCH  18  19
HETATM   19  C   UNL     1      40.744 -16.618   1.624  1.00  0.00     0.058 C 
BRANCH  19  20
HETATM   20  C   UNL     1      41.739 -17.196   2.605  1.00  0.00    -0.057 A 
HETATM   21  C   UNL     1      43.105 -17.259   2.290  1.00  0.00     0.009 A 
HETATM   22  C   UNL     1      44.010 -17.852   3.172  1.00  0.00     0.025 A 
HETATM   23  C   UNL     1      43.549 -18.369   4.386  1.00  0.00     0.074 A 
HETATM   24  C   UNL     1      42.196 -18.302   4.720  1.00  0.00     0.025 A 
HETATM   25  C   UNL     1      41.295 -17.712   3.833  1.00  0.00     0.009 A 
BRANCH  23  26
HETATM   26  S   UNL     1      44.679 -19.195   5.469  1.00  0.00     0.239 S 
HETATM   27  O   UNL     1      45.267 -20.316   4.773  1.00  0.00    -0.206 OA
HETATM   28  O   UNL     1      45.477 -18.204   6.155  1.00  0.00    -0.206 OA
BRANCH  26  29
HETATM   29  N   UNL     1      43.649 -19.846   6.620  1.00  0.00    -0.225 NA
HETATM   30  H   UNL     1      42.995 -19.131   6.943  1.00  0.00     0.136 HD
HETATM   31  H   UNL     1      43.188 -20.676   6.245  1.00  0.00     0.136 HD
ENDBRANCH  26  29
ENDBRANCH  23  26
ENDBRANCH  19  20
ENDBRANCH  18  19
ENDBRANCH  15  18
ENDBRANCH  13  14
ENDBRANCH  12  13
ENDBRANCH   2  12
BRANCH   1  32
HETATM   32  C   UNL     1      39.001 -12.263   1.720  1.00  0.00     0.045 A 
HETATM   33  C   UNL     1      38.585 -10.971   2.027  1.00  0.00     0.054 A 
HETATM   34  C   UNL     1      37.318 -10.567   1.608  1.00  0.00     0.042 A 
HETATM   35  C   UNL     1      36.481 -11.441   0.888  1.00  0.00    -0.040 A 
HETATM   36 CL   UNL     1      36.819  -8.965   2.007  1.00  0.00    -0.084 Cl
HETATM   37  C   UNL     1      35.106 -11.026   0.435  1.00  0.00     0.050 C 
HETATM   38  C   UNL     1      36.944 -12.734   0.580  1.00  0.00     0.011 A 
HETATM   39  C   UNL     1      38.207 -13.152   0.991  1.00  0.00     0.031 A 
ENDBRANCH   1  32
BRANCH   6  40
HETATM   40  N   UNL     1      39.294 -13.487   4.232  1.00  0.00    -0.384 N 
HETATM   41  H   UNL     1      39.225 -14.350   4.762  1.00  0.00     0.157 HD
HETATM   42  H   UNL     1      38.728 -12.727   4.589  1.00  0.00     0.157 HD
ENDBRANCH   6  40
TORSDOF 10
ENDMDL
MODEL 4
REMARK VINA RESULT:      -8.7      4.675      5.701
REMARK  10 active torsions:
REMARK  status: ('A' for Active; 'I' for Inactive)
REMARK    1  A    between atoms: C_6  and  N_7 
REMARK    2  A    between atoms: C_8  and  S_9 
REMARK    3  A    between atoms: S_9  and  C_10 
REMARK    4  A    between atoms: C_10  and  C_11 
REMARK       I    between atoms: C_11  and  N_12 
REMARK    5  A    between atoms: N_12  and  C_13 
REMARK    6  A    between atoms: C_13  and  C_14 
REMARK    7  A    between atoms: C_14  and  C_15 
REMARK    8  A    between atoms: C_18  and  S_19 
REMARK    9  A    between atoms: S_19  and  N_20 
REMARK   10  A    between atoms: C_29  and  N_30 
ROOT
HETATM    1  N   UNL     1      41.497 -15.694   1.535  1.00  0.00    -0.276 N 
HETATM    2  C   UNL     1      42.366 -14.949   2.277  1.00  0.00     0.177 A 
HETATM    3  N   UNL     1      43.329 -15.448   3.072  1.00  0.00    -0.204 NA
HETATM    4  C   UNL     1      43.401 -16.777   3.000  1.00  0.00     0.162 A 
HETATM    5  C   UNL     1      42.603 -17.607   2.239  1.00  0.00     0.081 A 
HETATM    6  C   UNL     1      41.563 -17.054   1.473  1.00  0.00     0.124 A 
HETATM    7  N   UNL     1      44.298 -17.572   3.652  1.00  0.00    -0.260 N 
HETATM    8  H   UNL     1      45.034 -17.289   4.294  1.00  0.00     0.191 HD
HETATM    9  N   UNL     1      44.153 -18.873   3.359  1.00  0.00    -0.177 NA
HETATM   10  C   UNL     1      43.139 -18.908   2.487  1.00  0.00     0.068 A 
HETATM   11  C   UNL     1      42.727 -20.212   1.905  1.00  0.00     0.073 C 
ENDROOT
BRANCH   2  12
HETATM   12  S   UNL     1      42.437 -13.167   2.093  1.00  0.00    -0.082 SA
BRANCH  12  13
HETATM   13  C   UNL     1      42.081 -12.633   3.797  1.00  0.00     0.185 C 
BRANCH  13  14
HETATM   14  C   UNL     1      40.692 -12.029   3.853  1.00  0.00     0.227 C 
HETATM   15  N   UNL     1      39.843 -12.380   4.865  1.00  0.00    -0.360 N 
HETATM   16  H   UNL     1      38.915 -11.987   4.737  1.00  0.00     0.162 HD
HETATM   17  O   UNL     1      40.318 -11.225   3.000  1.00  0.00    -0.273 OA
BRANCH  15  18
HETATM   18  C   UNL     1      39.987 -13.481   5.808  1.00  0.00     0.127 C 
BRANCH  18  19
HETATM   19  C   UNL     1      39.915 -14.862   5.146  1.00  0.00     0.058 C 
BRANCH  19  20
HETATM   20  C   UNL     1      40.922 -15.837   5.713  1.00  0.00    -0.057 A 
HETATM   21  C   UNL     1      42.062 -15.379   6.391  1.00  0.00     0.009 A 
HETATM   22  C   UNL     1      43.020 -16.281   6.856  1.00  0.00     0.025 A 
HETATM   23  C   UNL     1      42.829 -17.651   6.660  1.00  0.00     0.074 A 
HETATM   24  C   UNL     1      41.694 -18.123   5.999  1.00  0.00     0.025 A 
HETATM   25  C   UNL     1      40.740 -17.217   5.533  1.00  0.00     0.009 A 
BRANCH  23  26
HETATM   26  S   UNL     1      44.081 -18.791   7.174  1.00  0.00     0.239 S 
HETATM   27  O   UNL     1      44.337 -18.608   8.583  1.00  0.00    -0.206 OA
HETATM   28  O   UNL     1      43.797 -20.086   6.599  1.00  0.00    -0.206 OA
BRANCH  26  29
HETATM   29  N   UNL     1      45.434 -18.210   6.372  1.00  0.00    -0.225 NA
HETATM   30  H   UNL     1      45.932 -18.984   5.929  1.00  0.00     0.136 HD
HETATM   31  H   UNL     1      45.162 -17.475   5.718  1.00  0.00     0.136 HD
ENDBRANCH  26  29
ENDBRANCH  23  26
ENDBRANCH  19  20
ENDBRANCH  18  19
ENDBRANCH  15  18
ENDBRANCH  13  14
ENDBRANCH  12  13
ENDBRANCH   2  12
BRANCH   1  32
HETATM   32  C   UNL     1      40.464 -15.022   0.794  1.00  0.00     0.045 A 
HETATM   33  C   UNL     1      40.691 -14.695  -0.540  1.00  0.00     0.054 A 
HETATM   34  C   UNL     1      39.691 -14.017  -1.235  1.00  0.00     0.042 A 
HETATM   35  C   UNL     1      38.479 -13.674  -0.605  1.00  0.00    -0.040 A 
HETATM   36 CL   UNL     1      39.996 -13.615  -2.884  1.00  0.00    -0.084 Cl
HETATM   37  C   UNL     1      37.390 -12.934  -1.337  1.00  0.00     0.050 C 
HETATM   38  C   UNL     1      38.278 -14.038   0.739  1.00  0.00     0.011 A 
HETATM   39  C   UNL     1      39.268 -14.716   1.446  1.00  0.00     0.031 A 
ENDBRANCH   1  32
BRANCH   6  40
HETATM   40  N   UNL     1      40.685 -17.823   0.725  1.00  0.00    -0.384 N 
HETATM   41  H   UNL     1      41.051 -18.402  -0.024  1.00  0.00     0.157 HD
HETATM   42  H   UNL     1      39.764 -18.089   1.052  1.00  0.00     0.157 HD
ENDBRANCH   6  40
TORSDOF 10
ENDMDL
MODEL 5
REMARK VINA RESULT:      -8.7      4.348      6.195
REMARK  10 active torsions:
REMARK  status: ('A' for Active; 'I' for Inactive)
REMARK    1  A    between atoms: C_6  and  N_7 
REMARK    2  A    between atoms: C_8  and  S_9 
REMARK    3  A    between atoms: S_9  and  C_10 
REMARK    4  A    between atoms: C_10  and  C_11 
REMARK       I    between atoms: C_11  and  N_12 
REMARK    5  A    between atoms: N_12  and  C_13 
REMARK    6  A    between atoms: C_13  and  C_14 
REMARK    7  A    between atoms: C_14  and  C_15 
REMARK    8  A    between atoms: C_18  and  S_19 
REMARK    9  A    between atoms: S_19  and  N_20 
REMARK   10  A    between atoms: C_29  and  N_30 
ROOT
HETATM    1  N   UNL     1      42.568 -17.289   2.942  1.00  0.00    -0.276 N 
HETATM    2  C   UNL     1      43.124 -16.834   4.102  1.00  0.00     0.177 A 
HETATM    3  N   UNL     1      43.927 -17.551   4.907  1.00  0.00    -0.204 NA
HETATM    4  C   UNL     1      44.196 -18.756   4.405  1.00  0.00     0.162 A 
HETATM    5  C   UNL     1      43.725 -19.281   3.219  1.00  0.00     0.081 A 
HETATM    6  C   UNL     1      42.833 -18.527   2.437  1.00  0.00     0.124 A 
HETATM    7  N   UNL     1      45.011 -19.698   4.963  1.00  0.00    -0.260 N 
HETATM    8  H   UNL     1      45.525 -19.641   5.838  1.00  0.00     0.191 HD
HETATM    9  N   UNL     1      45.120 -20.805   4.214  1.00  0.00    -0.177 NA
HETATM   10  C   UNL     1      44.358 -20.558   3.141  1.00  0.00     0.068 A 
HETATM   11  C   UNL     1      44.280 -21.572   2.058  1.00  0.00     0.073 C 
ENDROOT
BRANCH   2  12
HETATM   12  S   UNL     1      42.992 -15.108   4.568  1.00  0.00    -0.082 SA
BRANCH  12  13
HETATM   13  C   UNL     1      42.280 -15.259   6.237  1.00  0.00     0.185 C 
BRANCH  13  14
HETATM   14  C   UNL     1      40.851 -15.752   6.131  1.00  0.00     0.227 C 
HETATM   15  N   UNL     1      39.854 -14.872   5.818  1.00  0.00    -0.360 N 
HETATM   16  H   UNL     1      38.935 -15.302   5.874  1.00  0.00     0.162 HD
HETATM   17  O   UNL     1      40.577 -16.937   6.321  1.00  0.00    -0.273 OA
BRANCH  15  18
HETATM   18  C   UNL     1      39.920 -13.417   5.808  1.00  0.00     0.127 C 
BRANCH  18  19
HETATM   19  C   UNL     1      38.834 -12.765   4.944  1.00  0.00     0.058 C 
BRANCH  19  20
HETATM   20  C   UNL     1      39.396 -12.063   3.728  1.00  0.00    -0.057 A 
HETATM   21  C   UNL     1      40.733 -12.248   3.346  1.00  0.00     0.009 A 
HETATM   22  C   UNL     1      41.264 -11.548   2.261  1.00  0.00     0.025 A 
HETATM   23  C   UNL     1      40.449 -10.670   1.543  1.00  0.00     0.074 A 
HETATM   24  C   UNL     1      39.113 -10.484   1.902  1.00  0.00     0.025 A 
HETATM   25  C   UNL     1      38.588 -11.185   2.990  1.00  0.00     0.009 A 
BRANCH  23  26
HETATM   26  S   UNL     1      41.140  -9.719   0.221  1.00  0.00     0.239 S 
HETATM   27  O   UNL     1      41.864 -10.599  -0.667  1.00  0.00    -0.206 OA
HETATM   28  O   UNL     1      40.143  -8.787  -0.255  1.00  0.00    -0.206 OA
BRANCH  26  29
HETATM   29  N   UNL     1      42.295  -8.801   1.016  1.00  0.00    -0.225 NA
HETATM   30  H   UNL     1      43.046  -8.553   0.369  1.00  0.00     0.136 HD
HETATM   31  H   UNL     1      41.855  -7.991   1.455  1.00  0.00     0.136 HD
ENDBRANCH  26  29
ENDBRANCH  23  26
ENDBRANCH  19  20
ENDBRANCH  18  19
ENDBRANCH  15  18
ENDBRANCH  13  14
ENDBRANCH  12  13
ENDBRANCH   2  12
BRANCH   1  32
HETATM   32  C   UNL     1      41.661 -16.435   2.225  1.00  0.00     0.045 A 
HETATM   33  C   UNL     1      42.138 -15.691   1.150  1.00  0.00     0.054 A 
HETATM   34  C   UNL     1      41.251 -14.844   0.485  1.00  0.00     0.042 A 
HETATM   35  C   UNL     1      39.905 -14.747   0.887  1.00  0.00    -0.040 A 
HETATM   36 CL   UNL     1      41.866 -13.925  -0.838  1.00  0.00    -0.084 Cl
HETATM   37  C   UNL     1      38.935 -13.832   0.188  1.00  0.00     0.050 C 
HETATM   38  C   UNL     1      39.455 -15.529   1.967  1.00  0.00     0.011 A 
HETATM   39  C   UNL     1      40.328 -16.380   2.640  1.00  0.00     0.031 A 
ENDBRANCH   1  32
BRANCH   6  40
HETATM   40  N   UNL     1      42.272 -19.002   1.261  1.00  0.00    -0.384 N 
HETATM   41  H   UNL     1      41.396 -19.513   1.303  1.00  0.00     0.157 HD
HETATM   42  H   UNL     1      42.497 -18.625   0.348  1.00  0.00     0.157 HD
ENDBRANCH   6  40
TORSDOF 10
ENDMDL
MODEL 6
REMARK VINA RESULT:      -8.6      2.656      4.935
REMARK  10 active torsions:
REMARK  status: ('A' for Active; 'I' for Inactive)
REMARK    1  A    between atoms: C_6  and  N_7 
REMARK    2  A    between atoms: C_8  and  S_9 
REMARK    3  A    between atoms: S_9  and  C_10 
REMARK    4  A    between atoms: C_10  and  C_11 
REMARK       I    between atoms: C_11  and  N_12 
REMARK    5  A    between atoms: N_12  and  C_13 
REMARK    6  A    between atoms: C_13  and  C_14 
REMARK    7  A    between atoms: C_14  and  C_15 
REMARK    8  A    between atoms: C_18  and  S_19 
REMARK    9  A    between atoms: S_19  and  N_20 
REMARK   10  A    between atoms: C_29  and  N_30 
ROOT
HETATM    1  N   UNL     1      42.078 -16.872   2.609  1.00  0.00    -0.276 N 
HETATM    2  C   UNL     1      41.271 -16.308   3.554  1.00  0.00     0.177 A 
HETATM    3  N   UNL     1      40.487 -15.233   3.358  1.00  0.00    -0.204 NA
HETATM    4  C   UNL     1      40.518 -14.812   2.094  1.00  0.00     0.162 A 
HETATM    5  C   UNL     1      41.258 -15.351   1.062  1.00  0.00     0.081 A 
HETATM    6  C   UNL     1      42.119 -16.431   1.320  1.00  0.00     0.124 A 
HETATM    7  N   UNL     1      39.801 -13.774   1.573  1.00  0.00    -0.260 N 
HETATM    8  H   UNL     1      39.150 -13.159   2.055  1.00  0.00     0.191 HD
HETATM    9  N   UNL     1      40.010 -13.602   0.259  1.00  0.00    -0.177 NA
HETATM   10  C   UNL     1      40.879 -14.566  -0.069  1.00  0.00     0.068 A 
HETATM   11  C   UNL     1      41.307 -14.705  -1.486  1.00  0.00     0.073 C 
ENDROOT
BRANCH   2  12
HETATM   12  S   UNL     1      41.022 -17.102   5.142  1.00  0.00    -0.082 SA
BRANCH  12  13
HETATM   13  C   UNL     1      41.572 -15.784   6.273  1.00  0.00     0.185 C 
BRANCH  13  14
HETATM   14  C   UNL     1      42.725 -16.293   7.113  1.00  0.00     0.227 C 
HETATM   15  N   UNL     1      43.728 -15.438   7.473  1.00  0.00    -0.360 N 
HETATM   16  H   UNL     1      44.487 -15.919   7.948  1.00  0.00     0.162 HD
HETATM   17  O   UNL     1      42.770 -17.468   7.477  1.00  0.00    -0.273 OA
BRANCH  15  18
HETATM   18  C   UNL     1      43.997 -14.107   6.946  1.00  0.00     0.127 C 
BRANCH  18  19
HETATM   19  C   UNL     1      45.107 -13.366   7.701  1.00  0.00     0.058 C 
BRANCH  19  20
HETATM   20  C   UNL     1      44.573 -12.459   8.786  1.00  0.00    -0.057 A 
HETATM   21  C   UNL     1      45.124 -12.479  10.076  1.00  0.00     0.009 A 
HETATM   22  C   UNL     1      44.585 -11.685  11.090  1.00  0.00     0.025 A 
HETATM   23  C   UNL     1      43.499 -10.852  10.809  1.00  0.00     0.074 A 
HETATM   24  C   UNL     1      42.947 -10.811   9.527  1.00  0.00     0.025 A 
HETATM   25  C   UNL     1      43.488 -11.609   8.518  1.00  0.00     0.009 A 
BRANCH  23  26
HETATM   26  S   UNL     1      42.760  -9.909  12.111  1.00  0.00     0.239 S 
HETATM   27  O   UNL     1      43.752  -9.649  13.128  1.00  0.00    -0.206 OA
HETATM   28  O   UNL     1      41.955  -8.860  11.528  1.00  0.00    -0.206 OA
BRANCH  26  29
HETATM   29  N   UNL     1      41.685 -11.010  12.775  1.00  0.00    -0.225 NA
HETATM   30  H   UNL     1      41.090 -10.542  13.461  1.00  0.00     0.136 HD
HETATM   31  H   UNL     1      41.159 -11.474  12.033  1.00  0.00     0.136 HD
ENDBRANCH  26  29
ENDBRANCH  23  26
ENDBRANCH  19  20
ENDBRANCH  18  19
ENDBRANCH  15  18
ENDBRANCH  13  14
ENDBRANCH  12  13
ENDBRANCH   2  12
BRANCH   1  32
HETATM   32  C   UNL     1      42.925 -17.971   2.986  1.00  0.00     0.045 A 
HETATM   33  C   UNL     1      42.851 -19.161   2.268  1.00  0.00     0.054 A 
HETATM   34  C   UNL     1      43.658 -20.226   2.666  1.00  0.00     0.042 A 
HETATM   35  C   UNL     1      44.529 -20.101   3.766  1.00  0.00    -0.040 A 
HETATM   36 CL   UNL     1      43.543 -21.693   1.767  1.00  0.00    -0.084 Cl
HETATM   37  C   UNL     1      45.401 -21.243   4.216  1.00  0.00     0.050 C 
HETATM   38  C   UNL     1      44.590 -18.877   4.456  1.00  0.00     0.011 A 
HETATM   39  C   UNL     1      43.791 -17.804   4.069  1.00  0.00     0.031 A 
ENDBRANCH   1  32
BRANCH   6  40
HETATM   40  N   UNL     1      42.936 -16.995   0.351  1.00  0.00    -0.384 N 
HETATM   41  H   UNL     1      43.670 -17.635   0.637  1.00  0.00     0.157 HD
HETATM   42  H   UNL     1      42.673 -17.064  -0.624  1.00  0.00     0.157 HD
ENDBRANCH   6  40
TORSDOF 10
ENDMDL
MODEL 7
REMARK VINA RESULT:      -8.5      3.354      5.628
REMARK  10 active torsions:
REMARK  status: ('A' for Active; 'I' for Inactive)
REMARK    1  A    between atoms: C_6  and  N_7 
REMARK    2  A    between atoms: C_8  and  S_9 
REMARK    3  A    between atoms: S_9  and  C_10 
REMARK    4  A    between atoms: C_10  and  C_11 
REMARK       I    between atoms: C_11  and  N_12 
REMARK    5  A    between atoms: N_12  and  C_13 
REMARK    6  A    between atoms: C_13  and  C_14 
REMARK    7  A    between atoms: C_14  and  C_15 
REMARK    8  A    between atoms: C_18  and  S_19 
REMARK    9  A    between atoms: S_19  and  N_20 
REMARK   10  A    between atoms: C_29  and  N_30 
ROOT
HETATM    1  N   UNL     1      42.166 -15.130   1.403  1.00  0.00    -0.276 N 
HETATM    2  C   UNL     1      42.522 -13.933   1.951  1.00  0.00     0.177 A 
HETATM    3  N   UNL     1      42.190 -12.727   1.458  1.00  0.00    -0.204 NA
HETATM    4  C   UNL     1      41.391 -12.822   0.395  1.00  0.00     0.162 A 
HETATM    5  C   UNL     1      40.937 -13.983  -0.195  1.00  0.00     0.081 A 
HETATM    6  C   UNL     1      41.360 -15.225   0.308  1.00  0.00     0.124 A 
HETATM    7  N   UNL     1      40.851 -11.780  -0.302  1.00  0.00    -0.260 N 
HETATM    8  H   UNL     1      40.975 -10.785  -0.136  1.00  0.00     0.191 HD
HETATM    9  N   UNL     1      40.055 -12.180  -1.306  1.00  0.00    -0.177 NA
HETATM   10  C   UNL     1      40.084 -13.517  -1.241  1.00  0.00     0.068 A 
HETATM   11  C   UNL     1      39.262 -14.306  -2.196  1.00  0.00     0.073 C 
ENDROOT
BRANCH   2  12
HETATM   12  S   UNL     1      43.324 -13.860   3.554  1.00  0.00    -0.082 SA
BRANCH  12  13
HETATM   13  C   UNL     1      42.314 -12.591   4.382  1.00  0.00     0.185 C 
BRANCH  13  14
HETATM   14  C   UNL     1      41.361 -13.262   5.351  1.00  0.00     0.227 C 
HETATM   15  N   UNL     1      40.338 -12.543   5.900  1.00  0.00    -0.360 N 
HETATM   16  H   UNL     1      39.833 -13.074   6.604  1.00  0.00     0.162 HD
HETATM   17  O   UNL     1      41.497 -14.448   5.649  1.00  0.00    -0.273 OA
BRANCH  15  18
HETATM   18  C   UNL     1      40.156 -11.097   5.885  1.00  0.00     0.127 C 
BRANCH  18  19
HETATM   19  C   UNL     1      39.649 -10.534   7.219  1.00  0.00     0.058 C 
BRANCH  19  20
HETATM   20  C   UNL     1      40.657 -10.680   8.337  1.00  0.00    -0.057 A 
HETATM   21  C   UNL     1      42.034 -10.656   8.070  1.00  0.00     0.009 A 
HETATM   22  C   UNL     1      42.959 -10.855   9.097  1.00  0.00     0.025 A 
HETATM   23  C   UNL     1      42.505 -11.061  10.402  1.00  0.00     0.074 A 
HETATM   24  C   UNL     1      41.138 -11.074  10.686  1.00  0.00     0.025 A 
HETATM   25  C   UNL     1      40.218 -10.878   9.655  1.00  0.00     0.009 A 
BRANCH  23  26
HETATM   26  S   UNL     1      43.670 -11.397  11.690  1.00  0.00     0.239 S 
HETATM   27  O   UNL     1      44.894 -10.679  11.419  1.00  0.00    -0.206 OA
HETATM   28  O   UNL     1      42.992 -11.320  12.964  1.00  0.00    -0.206 OA
BRANCH  26  29
HETATM   29  N   UNL     1      44.013 -13.018  11.440  1.00  0.00    -0.225 NA
HETATM   30  H   UNL     1      43.857 -13.257  10.459  1.00  0.00     0.136 HD
HETATM   31  H   UNL     1      44.958 -13.228  11.763  1.00  0.00     0.136 HD
ENDBRANCH  26  29
ENDBRANCH  23  26
ENDBRANCH  19  20
ENDBRANCH  18  19
ENDBRANCH  15  18
ENDBRANCH  13  14
ENDBRANCH  12  13
ENDBRANCH   2  12
BRANCH   1  32
HETATM   32  C   UNL     1      42.664 -16.342   1.996  1.00  0.00     0.045 A 
HETATM   33  C   UNL     1      42.111 -16.787   3.193  1.00  0.00     0.054 A 
HETATM   34  C   UNL     1      42.626 -17.947   3.770  1.00  0.00     0.042 A 
HETATM   35  C   UNL     1      43.678 -18.654   3.155  1.00  0.00    -0.040 A 
HETATM   36 CL   UNL     1      41.932 -18.475   5.257  1.00  0.00    -0.084 Cl
HETATM   37  C   UNL     1      44.254 -19.903   3.767  1.00  0.00     0.050 C 
HETATM   38  C   UNL     1      44.199 -18.183   1.936  1.00  0.00     0.011 A 
HETATM   39  C   UNL     1      43.693 -17.027   1.347  1.00  0.00     0.031 A 
ENDBRANCH   1  32
BRANCH   6  40
HETATM   40  N   UNL     1      40.992 -16.436  -0.261  1.00  0.00    -0.384 N 
HETATM   41  H   UNL     1      40.571 -16.439  -1.184  1.00  0.00     0.157 HD
HETATM   42  H   UNL     1      41.381 -17.325   0.028  1.00  0.00     0.157 HD
ENDBRANCH   6  40
TORSDOF 10
ENDMDL
MODEL 8
REMARK VINA RESULT:      -8.4      4.988      9.565
REMARK  10 active torsions:
REMARK  status: ('A' for Active; 'I' for Inactive)
REMARK    1  A    between atoms: C_6  and  N_7 
REMARK    2  A    between atoms: C_8  and  S_9 
REMARK    3  A    between atoms: S_9  and  C_10 
REMARK    4  A    between atoms: C_10  and  C_11 
REMARK       I    between atoms: C_11  and  N_12 
REMARK    5  A    between atoms: N_12  and  C_13 
REMARK    6  A    between atoms: C_13  and  C_14 
REMARK    7  A    between atoms: C_14  and  C_15 
REMARK    8  A    between atoms: C_18  and  S_19 
REMARK    9  A    between atoms: S_19  and  N_20 
REMARK   10  A    between atoms: C_29  and  N_30 
ROOT
HETATM    1  N   UNL     1      40.890 -12.786   4.803  1.00  0.00    -0.276 N 
HETATM    2  C   UNL     1      41.048 -12.626   3.458  1.00  0.00     0.177 A 
HETATM    3  N   UNL     1      40.615 -11.568   2.749  1.00  0.00    -0.204 NA
HETATM    4  C   UNL     1      40.070 -10.632   3.526  1.00  0.00     0.162 A 
HETATM    5  C   UNL     1      39.916 -10.683   4.896  1.00  0.00     0.081 A 
HETATM    6  C   UNL     1      40.320 -11.834   5.594  1.00  0.00     0.124 A 
HETATM    7  N   UNL     1      39.577  -9.428   3.113  1.00  0.00    -0.260 N 
HETATM    8  H   UNL     1      39.535  -9.062   2.166  1.00  0.00     0.191 HD
HETATM    9  N   UNL     1      39.121  -8.675   4.125  1.00  0.00    -0.177 NA
HETATM   10  C   UNL     1      39.338  -9.417   5.217  1.00  0.00     0.068 A 
HETATM   11  C   UNL     1      38.989  -8.863   6.552  1.00  0.00     0.073 C 
ENDROOT
BRANCH   2  12
HETATM   12  S   UNL     1      42.067 -13.758   2.511  1.00  0.00    -0.082 SA
BRANCH  12  13
HETATM   13  C   UNL     1      40.896 -14.264   1.211  1.00  0.00     0.185 C 
BRANCH  13  14
HETATM   14  C   UNL     1      40.159 -15.511   1.657  1.00  0.00     0.227 C 
HETATM   15  N   UNL     1      40.720 -16.739   1.445  1.00  0.00    -0.360 N 
HETATM   16  H   UNL     1      40.089 -17.495   1.697  1.00  0.00     0.162 HD
HETATM   17  O   UNL     1      39.062 -15.432   2.208  1.00  0.00    -0.273 OA
BRANCH  15  18
HETATM   18  C   UNL     1      41.861 -17.064   0.599  1.00  0.00     0.127 C 
BRANCH  18  19
HETATM   19  C   UNL     1      43.210 -16.912   1.312  1.00  0.00     0.058 C 
BRANCH  19  20
HETATM   20  C   UNL     1      43.554 -18.104   2.176  1.00  0.00    -0.057 A 
HETATM   21  C   UNL     1      43.883 -17.940   3.530  1.00  0.00     0.009 A 
HETATM   22  C   UNL     1      44.262 -19.036   4.306  1.00  0.00     0.025 A 
HETATM   23  C   UNL     1      44.294 -20.309   3.730  1.00  0.00     0.074 A 
HETATM   24  C   UNL     1      43.956 -20.492   2.388  1.00  0.00     0.025 A 
HETATM   25  C   UNL     1      43.581 -19.391   1.616  1.00  0.00     0.009 A 
BRANCH  23  26
HETATM   26  S   UNL     1      44.854 -21.688   4.688  1.00  0.00     0.239 S 
HETATM   27  O   UNL     1      46.287 -21.602   4.846  1.00  0.00    -0.206 OA
HETATM   28  O   UNL     1      43.959 -21.871   5.808  1.00  0.00    -0.206 OA
BRANCH  26  29
HETATM   29  N   UNL     1      44.572 -22.973   3.649  1.00  0.00    -0.225 NA
HETATM   30  H   UNL     1      43.719 -23.461   3.926  1.00  0.00     0.136 HD
HETATM   31  H   UNL     1      44.554 -22.642   2.683  1.00  0.00     0.136 HD
ENDBRANCH  26  29
ENDBRANCH  23  26
ENDBRANCH  19  20
ENDBRANCH  18  19
ENDBRANCH  15  18
ENDBRANCH  13  14
ENDBRANCH  12  13
ENDBRANCH   2  12
BRANCH   1  32
HETATM   32  C   UNL     1      41.334 -14.010   5.414  1.00  0.00     0.045 A 
HETATM   33  C   UNL     1      42.662 -14.123   5.816  1.00  0.00     0.054 A 
HETATM   34  C   UNL     1      43.083 -15.328   6.378  1.00  0.00     0.042 A 
HETATM   35  C   UNL     1      42.187 -16.403   6.539  1.00  0.00    -0.040 A 
HETATM   36 CL   UNL     1      44.733 -15.449   6.861  1.00  0.00    -0.084 Cl
HETATM   37  C   UNL     1      42.625 -17.714   7.135  1.00  0.00     0.050 C 
HETATM   38  C   UNL     1      40.848 -16.244   6.137  1.00  0.00     0.011 A 
HETATM   39  C   UNL     1      40.412 -15.046   5.575  1.00  0.00     0.031 A 
ENDBRANCH   1  32
BRANCH   6  40
HETATM   40  N   UNL     1      40.152 -11.986   6.963  1.00  0.00    -0.384 N 
HETATM   41  H   UNL     1      39.373 -12.539   7.305  1.00  0.00     0.157 HD
HETATM   42  H   UNL     1      40.900 -11.853   7.632  1.00  0.00     0.157 HD
ENDBRANCH   6  40
TORSDOF 10
ENDMDL
MODEL 9
REMARK VINA RESULT:      -8.2      4.846      9.341
REMARK  10 active torsions:
REMARK  status: ('A' for Active; 'I' for Inactive)
REMARK    1  A    between atoms: C_6  and  N_7 
REMARK    2  A    between atoms: C_8  and  S_9 
REMARK    3  A    between atoms: S_9  and  C_10 
REMARK    4  A    between atoms: C_10  and  C_11 
REMARK       I    between atoms: C_11  and  N_12 
REMARK    5  A    between atoms: N_12  and  C_13 
REMARK    6  A    between atoms: C_13  and  C_14 
REMARK    7  A    between atoms: C_14  and  C_15 
REMARK    8  A    between atoms: C_18  and  S_19 
REMARK    9  A    between atoms: S_19  and  N_20 
REMARK   10  A    between atoms: C_29  and  N_30 
ROOT
HETATM    1  N   UNL     1      41.820 -12.673   4.982  1.00  0.00    -0.276 N 
HETATM    2  C   UNL     1      41.669 -12.679   3.626  1.00  0.00     0.177 A 
HETATM    3  N   UNL     1      41.306 -11.618   2.884  1.00  0.00    -0.204 NA
HETATM    4  C   UNL     1      41.182 -10.512   3.617  1.00  0.00     0.162 A 
HETATM    5  C   UNL     1      41.366 -10.399   4.979  1.00  0.00     0.081 A 
HETATM    6  C   UNL     1      41.679 -11.544   5.731  1.00  0.00     0.124 A 
HETATM    7  N   UNL     1      40.867  -9.268   3.151  1.00  0.00    -0.260 N 
HETATM    8  H   UNL     1      40.669  -8.991   2.193  1.00  0.00     0.191 HD
HETATM    9  N   UNL     1      40.847  -8.338   4.117  1.00  0.00    -0.177 NA
HETATM   10  C   UNL     1      41.167  -9.007   5.231  1.00  0.00     0.068 A 
HETATM   11  C   UNL     1      41.285  -8.266   6.514  1.00  0.00     0.073 C 
ENDROOT
BRANCH   2  12
HETATM   12  S   UNL     1      42.158 -14.105   2.654  1.00  0.00    -0.082 SA
BRANCH  12  13
HETATM   13  C   UNL     1      41.924 -13.463   0.966  1.00  0.00     0.185 C 
BRANCH  13  14
HETATM   14  C   UNL     1      40.611 -13.977   0.411  1.00  0.00     0.227 C 
HETATM   15  N   UNL     1      40.453 -15.315   0.182  1.00  0.00    -0.360 N 
HETATM   16  H   UNL     1      39.571 -15.520  -0.280  1.00  0.00     0.162 HD
HETATM   17  O   UNL     1      39.684 -13.206   0.166  1.00  0.00    -0.273 OA
BRANCH  15  18
HETATM   18  C   UNL     1      41.483 -16.344   0.159  1.00  0.00     0.127 C 
BRANCH  18  19
HETATM   19  C   UNL     1      41.053 -17.651   0.834  1.00  0.00     0.058 C 
BRANCH  19  20
HETATM   20  C   UNL     1      42.056 -18.142   1.854  1.00  0.00    -0.057 A 
HETATM   21  C   UNL     1      43.018 -19.103   1.511  1.00  0.00     0.009 A 
HETATM   22  C   UNL     1      43.900 -19.599   2.472  1.00  0.00     0.025 A 
HETATM   23  C   UNL     1      43.832 -19.117   3.782  1.00  0.00     0.074 A 
HETATM   24  C   UNL     1      42.889 -18.151   4.137  1.00  0.00     0.025 A 
HETATM   25  C   UNL     1      42.007 -17.661   3.172  1.00  0.00     0.009 A 
BRANCH  23  26
HETATM   26  S   UNL     1      44.892 -19.803   5.022  1.00  0.00     0.239 S 
HETATM   27  O   UNL     1      45.631 -20.906   4.454  1.00  0.00    -0.206 OA
HETATM   28  O   UNL     1      45.536 -18.724   5.735  1.00  0.00    -0.206 OA
BRANCH  26  29
HETATM   29  N   UNL     1      43.790 -20.478   6.091  1.00  0.00    -0.225 NA
HETATM   30  H   UNL     1      43.821 -19.979   6.981  1.00  0.00     0.136 HD
HETATM   31  H   UNL     1      42.861 -20.495   5.668  1.00  0.00     0.136 HD
ENDBRANCH  26  29
ENDBRANCH  23  26
ENDBRANCH  19  20
ENDBRANCH  18  19
ENDBRANCH  15  18
ENDBRANCH  13  14
ENDBRANCH  12  13
ENDBRANCH   2  12
BRANCH   1  32
HETATM   32  C   UNL     1      42.134 -13.906   5.652  1.00  0.00     0.045 A 
HETATM   33  C   UNL     1      41.139 -14.869   5.799  1.00  0.00     0.054 A 
HETATM   34  C   UNL     1      41.451 -16.046   6.478  1.00  0.00     0.042 A 
HETATM   35  C   UNL     1      42.743 -16.258   6.999  1.00  0.00    -0.040 A 
HETATM   36 CL   UNL     1      40.202 -17.221   6.655  1.00  0.00    -0.084 Cl
HETATM   37  C   UNL     1      43.097 -17.519   7.743  1.00  0.00     0.050 C 
HETATM   38  C   UNL     1      43.727 -15.271   6.814  1.00  0.00     0.011 A 
HETATM   39  C   UNL     1      43.430 -14.090   6.137  1.00  0.00     0.031 A 
ENDBRANCH   1  32
BRANCH   6  40
HETATM   40  N   UNL     1      41.828 -11.525   7.110  1.00  0.00    -0.384 N 
HETATM   41  H   UNL     1      41.045 -11.231   7.687  1.00  0.00     0.157 HD
HETATM   42  H   UNL     1      42.533 -12.062   7.599  1.00  0.00     0.157 HD
ENDBRANCH   6  40
TORSDOF 10
ENDMDL
MODEL 10
REMARK VINA RESULT:      -8.1      4.259      5.831
REMARK  10 active torsions:
REMARK  status: ('A' for Active; 'I' for Inactive)
REMARK    1  A    between atoms: C_6  and  N_7 
REMARK    2  A    between atoms: C_8  and  S_9 
REMARK    3  A    between atoms: S_9  and  C_10 
REMARK    4  A    between atoms: C_10  and  C_11 
REMARK       I    between atoms: C_11  and  N_12 
REMARK    5  A    between atoms: N_12  and  C_13 
REMARK    6  A    between atoms: C_13  and  C_14 
REMARK    7  A    between atoms: C_14  and  C_15 
REMARK    8  A    between atoms: C_18  and  S_19 
REMARK    9  A    between atoms: S_19  and  N_20 
REMARK   10  A    between atoms: C_29  and  N_30 
ROOT
HETATM    1  N   UNL     1      41.192 -15.308   0.963  1.00  0.00    -0.276 N 
HETATM    2  C   UNL     1      40.072 -15.025   1.687  1.00  0.00     0.177 A 
HETATM    3  N   UNL     1      39.704 -15.651   2.820  1.00  0.00    -0.204 NA
HETATM    4  C   UNL     1      40.610 -16.546   3.215  1.00  0.00     0.162 A 
HETATM    5  C   UNL     1      41.793 -16.860   2.579  1.00  0.00     0.081 A 
HETATM    6  C   UNL     1      42.110 -16.233   1.362  1.00  0.00     0.124 A 
HETATM    7  N   UNL     1      40.547 -17.311   4.344  1.00  0.00    -0.260 N 
HETATM    8  H   UNL     1      39.811 -17.331   5.045  1.00  0.00     0.191 HD
HETATM    9  N   UNL     1      41.621 -18.099   4.501  1.00  0.00    -0.177 NA
HETATM   10  C   UNL     1      42.395 -17.822   3.446  1.00  0.00     0.068 A 
HETATM   11  C   UNL     1      43.715 -18.494   3.318  1.00  0.00     0.073 C 
ENDROOT
BRANCH   2  12
HETATM   12  S   UNL     1      39.056 -13.602   1.290  1.00  0.00    -0.082 SA
BRANCH  12  13
HETATM   13  C   UNL     1      38.808 -12.887   2.947  1.00  0.00     0.185 C 
BRANCH  13  14
HETATM   14  C   UNL     1      38.670 -11.382   2.827  1.00  0.00     0.227 C 
HETATM   15  N   UNL     1      39.710 -10.577   3.197  1.00  0.00    -0.360 N 
HETATM   16  H   UNL     1      39.461  -9.593   3.165  1.00  0.00     0.162 HD
HETATM   17  O   UNL     1      37.633 -10.875   2.400  1.00  0.00    -0.273 OA
BRANCH  15  18
HETATM   18  C   UNL     1      40.900 -10.948   3.952  1.00  0.00     0.127 C 
BRANCH  18  19
HETATM   19  C   UNL     1      41.782 -11.974   3.232  1.00  0.00     0.058 C 
BRANCH  19  20
HETATM   20  C   UNL     1      42.219 -13.107   4.134  1.00  0.00    -0.057 A 
HETATM   21  C   UNL     1      41.438 -13.490   5.234  1.00  0.00     0.009 A 
HETATM   22  C   UNL     1      41.878 -14.493   6.101  1.00  0.00     0.025 A 
HETATM   23  C   UNL     1      43.097 -15.130   5.855  1.00  0.00     0.074 A 
HETATM   24  C   UNL     1      43.879 -14.770   4.756  1.00  0.00     0.025 A 
HETATM   25  C   UNL     1      43.436 -13.764   3.895  1.00  0.00     0.009 A 
BRANCH  23  26
HETATM   26  S   UNL     1      43.696 -16.343   6.996  1.00  0.00     0.239 S 
HETATM   27  O   UNL     1      44.676 -17.171   6.334  1.00  0.00    -0.206 OA
HETATM   28  O   UNL     1      43.953 -15.702   8.265  1.00  0.00    -0.206 OA
BRANCH  26  29
HETATM   29  N   UNL     1      42.344 -17.307   7.224  1.00  0.00    -0.225 NA
HETATM   30  H   UNL     1      42.625 -18.214   7.599  1.00  0.00     0.136 HD
HETATM   31  H   UNL     1      41.664 -16.820   7.809  1.00  0.00     0.136 HD
ENDBRANCH  26  29
ENDBRANCH  23  26
ENDBRANCH  19  20
ENDBRANCH  18  19
ENDBRANCH  15  18
ENDBRANCH  13  14
ENDBRANCH  12  13
ENDBRANCH   2  12
BRANCH   1  32
HETATM   32  C   UNL     1      41.414 -14.610  -0.274  1.00  0.00     0.045 A 
HETATM   33  C   UNL     1      42.084 -13.390  -0.253  1.00  0.00     0.054 A 
HETATM   34  C   UNL     1      42.263 -12.711  -1.458  1.00  0.00     0.042 A 
HETATM   35  C   UNL     1      41.783 -13.249  -2.668  1.00  0.00    -0.040 A 
HETATM   36 CL   UNL     1      43.087 -11.198  -1.407  1.00  0.00    -0.084 Cl
HETATM   37  C   UNL     1      41.959 -12.528  -3.978  1.00  0.00     0.050 C 
HETATM   38  C   UNL     1      41.127 -14.494  -2.652  1.00  0.00     0.011 A 
HETATM   39  C   UNL     1      40.941 -15.183  -1.456  1.00  0.00     0.031 A 
ENDBRANCH   1  32
BRANCH   6  40
HETATM   40  N   UNL     1      43.253 -16.531   0.634  1.00  0.00    -0.384 N 
HETATM   41  H   UNL     1      44.134 -16.644   1.124  1.00  0.00     0.157 HD
HETATM   42  H   UNL     1      43.229 -16.943  -0.291  1.00  0.00     0.157 HD
ENDBRANCH   6  40
TORSDOF 10
ENDMDL
