MODEL 1
REMARK VINA RESULT:      -9.3      0.000      0.000
REMARK  9 active torsions:
REMARK  status: ('A' for Active; 'I' for Inactive)
REMARK    1  A    between atoms: C_2  and  C_3 
REMARK    2  A    between atoms: C_8  and  O_9 
REMARK    3  A    between atoms: C_10  and  C_11 
REMARK    4  A    between atoms: C_11  and  N_12 
REMARK       I    between atoms: N_12  and  C_13 
REMARK    5  A    between atoms: N_12  and  C_23 
REMARK       I    between atoms: C_13  and  N_14 
REMARK    6  A    between atoms: N_14  and  C_15 
REMARK    7  A    between atoms: C_23  and  C_24 
REMARK    8  A    between atoms: C_24  and  C_25 
REMARK    9  A    between atoms: C_25  and  N_26 
ROOT
HETATM    1  N   UNL     1      43.822 -15.068   5.916  1.00  0.00    -0.330 N 
HETATM    2  C   UNL     1      42.875 -14.835   4.928  1.00  0.00     0.323 C 
HETATM    3  N   UNL     1      43.393 -14.320   3.765  1.00  0.00    -0.309 N 
HETATM    4  O   UNL     1      41.674 -14.880   5.181  1.00  0.00    -0.247 OA
HETATM    5  H   UNL     1      44.401 -14.253   3.702  1.00  0.00     0.170 HD
ENDROOT
BRANCH   1   6
HETATM    6  C   UNL     1      43.425 -16.000   6.991  1.00  0.00     0.170 C 
BRANCH   6   7
HETATM    7  C   UNL     1      43.693 -17.450   6.707  1.00  0.00     0.013 A 
HETATM    8  C   UNL     1      43.763 -18.373   7.736  1.00  0.00     0.170 A 
HETATM    9  N   UNL     1      43.995 -19.685   7.607  1.00  0.00    -0.224 NA
HETATM   10  C   UNL     1      44.178 -20.156   6.361  1.00  0.00     0.070 A 
HETATM   11  C   UNL     1      44.158 -19.317   5.226  1.00  0.00    -0.006 A 
HETATM   12  C   UNL     1      44.399 -21.511   6.172  1.00  0.00     0.033 A 
HETATM   13  C   UNL     1      44.356 -19.858   3.943  1.00  0.00     0.021 A 
HETATM   14  C   UNL     1      43.928 -17.945   5.423  1.00  0.00     0.027 A 
HETATM   15  C   UNL     1      44.561 -21.233   3.770  1.00  0.00    -0.058 A 
HETATM   16  C   UNL     1      44.589 -22.055   4.898  1.00  0.00     0.009 A 
BRANCH   8  17
HETATM   17  O   UNL     1      43.595 -18.000   9.031  1.00  0.00    -0.344 OA
HETATM   18  H   UNL     1      43.668 -18.877   9.453  1.00  0.00     0.219 HD
ENDBRANCH   8  17
BRANCH  15  19
HETATM   19  C   UNL     1      44.771 -21.815   2.395  1.00  0.00     0.034 C 
HETATM   20  C   UNL     1      43.525 -21.698   1.532  1.00  0.00     0.010 C 
ENDBRANCH  15  19
ENDBRANCH   6   7
ENDBRANCH   1   6
BRANCH   1  21
HETATM   21  C   UNL     1      44.628 -13.925   6.356  1.00  0.00     0.129 C 
BRANCH  21  22
HETATM   22  C   UNL     1      44.699 -13.733   7.886  1.00  0.00     0.048 C 
BRANCH  22  23
HETATM   23  C   UNL     1      44.816 -12.291   8.394  1.00  0.00     0.236 C 
BRANCH  23  24
HETATM   24  N   UNL     1      43.892 -11.907   9.519  1.00  0.00    -0.067 N 
HETATM   25  H   UNL     1      43.371 -12.729   9.861  1.00  0.00     0.280 HD
HETATM   26  C   UNL     1      44.576 -11.361  10.772  1.00  0.00     0.261 C 
HETATM   27  C   UNL     1      43.519 -10.976  11.817  1.00  0.00     0.195 C 
HETATM   28  O   UNL     1      42.599 -10.015  11.284  1.00  0.00    -0.388 OA
HETATM   29  C   UNL     1      41.878 -10.554  10.172  1.00  0.00     0.195 C 
HETATM   30  C   UNL     1      42.833 -10.916   9.033  1.00  0.00     0.261 C 
ENDBRANCH  23  24
ENDBRANCH  22  23
ENDBRANCH  21  22
ENDBRANCH   1  21
BRANCH   3  31
HETATM   31  C   UNL     1      42.660 -13.985   2.607  1.00  0.00     0.037 A 
HETATM   32  C   UNL     1      42.344 -15.015   1.717  1.00  0.00     0.053 A 
HETATM   33  C   UNL     1      41.647 -14.730   0.541  1.00  0.00     0.036 A 
HETATM   34 CL   UNL     1      41.328 -15.993  -0.583  1.00  0.00    -0.084 Cl
HETATM   35  C   UNL     1      41.224 -13.434   0.259  1.00  0.00     0.024 A 
HETATM   36  C   UNL     1      41.507 -12.410   1.160  1.00  0.00     0.004 A 
HETATM   37  C   UNL     1      42.230 -12.684   2.324  1.00  0.00     0.029 A 
ENDBRANCH   3  31
TORSDOF 9
ENDMDL
MODEL 2
REMARK VINA RESULT:      -9.2      2.543      3.821
REMARK  9 active torsions:
REMARK  status: ('A' for Active; 'I' for Inactive)
REMARK    1  A    between atoms: C_2  and  C_3 
REMARK    2  A    between atoms: C_8  and  O_9 
REMARK    3  A    between atoms: C_10  and  C_11 
REMARK    4  A    between atoms: C_11  and  N_12 
REMARK       I    between atoms: N_12  and  C_13 
REMARK    5  A    between atoms: N_12  and  C_23 
REMARK       I    between atoms: C_13  and  N_14 
REMARK    6  A    between atoms: N_14  and  C_15 
REMARK    7  A    between atoms: C_23  and  C_24 
REMARK    8  A    between atoms: C_24  and  C_25 
REMARK    9  A    between atoms: C_25  and  N_26 
ROOT
HETATM    1  N   UNL     1      40.771 -14.599   2.992  1.00  0.00    -0.330 N 
HETATM    2  C   UNL     1      40.212 -14.947   1.770  1.00  0.00     0.323 C 
HETATM    3  N   UNL     1      40.863 -14.416   0.685  1.00  0.00    -0.309 N 
HETATM    4  O   UNL     1      39.111 -15.490   1.711  1.00  0.00    -0.247 OA
HETATM    5  H   UNL     1      41.724 -13.916   0.865  1.00  0.00     0.170 HD
ENDROOT
BRANCH   1   6
HETATM    6  C   UNL     1      40.413 -15.457   4.141  1.00  0.00     0.170 C 
BRANCH   6   7
HETATM    7  C   UNL     1      41.419 -16.518   4.480  1.00  0.00     0.013 A 
HETATM    8  C   UNL     1      41.891 -16.662   5.773  1.00  0.00     0.170 A 
HETATM    9  N   UNL     1      42.784 -17.566   6.194  1.00  0.00    -0.224 NA
HETATM   10  C   UNL     1      43.272 -18.418   5.276  1.00  0.00     0.070 A 
HETATM   11  C   UNL     1      42.894 -18.364   3.917  1.00  0.00    -0.006 A 
HETATM   12  C   UNL     1      44.182 -19.389   5.666  1.00  0.00     0.033 A 
HETATM   13  C   UNL     1      43.434 -19.278   2.996  1.00  0.00     0.021 A 
HETATM   14  C   UNL     1      41.966 -17.382   3.529  1.00  0.00     0.027 A 
HETATM   15  C   UNL     1      44.339 -20.263   3.411  1.00  0.00    -0.058 A 
HETATM   16  C   UNL     1      44.716 -20.305   4.755  1.00  0.00     0.009 A 
BRANCH   8  17
HETATM   17  O   UNL     1      41.464 -15.848   6.774  1.00  0.00    -0.344 OA
HETATM   18  H   UNL     1      41.068 -15.137   6.234  1.00  0.00     0.219 HD
ENDBRANCH   8  17
BRANCH  15  19
HETATM   19  C   UNL     1      44.918 -21.245   2.424  1.00  0.00     0.034 C 
HETATM   20  C   UNL     1      43.848 -21.845   1.525  1.00  0.00     0.010 C 
ENDBRANCH  15  19
ENDBRANCH   6   7
ENDBRANCH   1   6
BRANCH   1  21
HETATM   21  C   UNL     1      40.875 -13.169   3.299  1.00  0.00     0.129 C 
BRANCH  21  22
HETATM   22  C   UNL     1      42.120 -12.772   4.121  1.00  0.00     0.048 C 
BRANCH  22  23
HETATM   23  C   UNL     1      41.898 -12.482   5.611  1.00  0.00     0.236 C 
BRANCH  23  24
HETATM   24  N   UNL     1      42.864 -13.135   6.564  1.00  0.00    -0.067 N 
HETATM   25  H   UNL     1      42.394 -13.869   7.116  1.00  0.00     0.280 HD
HETATM   26  C   UNL     1      44.038 -13.864   5.912  1.00  0.00     0.261 C 
HETATM   27  C   UNL     1      44.958 -14.445   6.995  1.00  0.00     0.195 C 
HETATM   28  O   UNL     1      45.428 -13.414   7.873  1.00  0.00    -0.388 OA
HETATM   29  C   UNL     1      44.342 -12.794   8.568  1.00  0.00     0.195 C 
HETATM   30  C   UNL     1      43.386 -12.119   7.583  1.00  0.00     0.261 C 
ENDBRANCH  23  24
ENDBRANCH  22  23
ENDBRANCH  21  22
ENDBRANCH   1  21
BRANCH   3  31
HETATM   31  C   UNL     1      40.508 -14.601  -0.668  1.00  0.00     0.037 A 
HETATM   32  C   UNL     1      39.540 -13.749  -1.208  1.00  0.00     0.053 A 
HETATM   33  C   UNL     1      39.131 -13.910  -2.534  1.00  0.00     0.036 A 
HETATM   34 CL   UNL     1      37.888 -12.904  -3.166  1.00  0.00    -0.084 Cl
HETATM   35  C   UNL     1      39.705 -14.887  -3.343  1.00  0.00     0.024 A 
HETATM   36  C   UNL     1      40.694 -15.717  -2.819  1.00  0.00     0.004 A 
HETATM   37  C   UNL     1      41.086 -15.579  -1.484  1.00  0.00     0.029 A 
ENDBRANCH   3  31
TORSDOF 9
ENDMDL
MODEL 3
REMARK VINA RESULT:      -9.0      3.359      5.336
REMARK  9 active torsions:
REMARK  status: ('A' for Active; 'I' for Inactive)
REMARK    1  A    between atoms: C_2  and  C_3 
REMARK    2  A    between atoms: C_8  and  O_9 
REMARK    3  A    between atoms: C_10  and  C_11 
REMARK    4  A    between atoms: C_11  and  N_12 
REMARK       I    between atoms: N_12  and  C_13 
REMARK    5  A    between atoms: N_12  and  C_23 
REMARK       I    between atoms: C_13  and  N_14 
REMARK    6  A    between atoms: N_14  and  C_15 
REMARK    7  A    between atoms: C_23  and  C_24 
REMARK    8  A    between atoms: C_24  and  C_25 
REMARK    9  A    between atoms: C_25  and  N_26 
ROOT
HETATM    1  N   UNL     1      41.828 -14.868   5.340  1.00  0.00    -0.330 N 
HETATM    2  C   UNL     1      42.937 -14.064   5.565  1.00  0.00     0.323 C 
HETATM    3  N   UNL     1      43.445 -14.150   6.837  1.00  0.00    -0.309 N 
HETATM    4  O   UNL     1      43.265 -13.201   4.753  1.00  0.00    -0.247 OA
HETATM    5  H   UNL     1      43.037 -14.847   7.447  1.00  0.00     0.170 HD
ENDROOT
BRANCH   1   6
HETATM    6  C   UNL     1      41.508 -15.157   3.927  1.00  0.00     0.170 C 
BRANCH   6   7
HETATM    7  C   UNL     1      42.047 -16.459   3.406  1.00  0.00     0.013 A 
HETATM    8  C   UNL     1      41.794 -16.862   2.107  1.00  0.00     0.170 A 
HETATM    9  N   UNL     1      42.219 -17.995   1.533  1.00  0.00    -0.224 NA
HETATM   10  C   UNL     1      42.962 -18.822   2.287  1.00  0.00     0.070 A 
HETATM   11  C   UNL     1      43.273 -18.542   3.636  1.00  0.00    -0.006 A 
HETATM   12  C   UNL     1      43.447 -19.997   1.732  1.00  0.00     0.033 A 
HETATM   13  C   UNL     1      44.055 -19.441   4.382  1.00  0.00     0.021 A 
HETATM   14  C   UNL     1      42.786 -17.347   4.190  1.00  0.00     0.027 A 
HETATM   15  C   UNL     1      44.549 -20.615   3.800  1.00  0.00    -0.058 A 
HETATM   16  C   UNL     1      44.231 -20.890   2.468  1.00  0.00     0.009 A 
BRANCH   8  17
HETATM   17  O   UNL     1      41.049 -16.100   1.265  1.00  0.00    -0.344 OA
HETATM   18  H   UNL     1      41.248 -15.220   1.639  1.00  0.00     0.219 HD
ENDBRANCH   8  17
BRANCH  15  19
HETATM   19  C   UNL     1      45.389 -21.579   4.599  1.00  0.00     0.034 C 
HETATM   20  C   UNL     1      44.582 -22.268   5.689  1.00  0.00     0.010 C 
ENDBRANCH  15  19
ENDBRANCH   6   7
ENDBRANCH   1   6
BRANCH   1  21
HETATM   21  C   UNL     1      40.664 -14.664   6.207  1.00  0.00     0.129 C 
BRANCH  21  22
HETATM   22  C   UNL     1      39.653 -13.614   5.698  1.00  0.00     0.048 C 
BRANCH  22  23
HETATM   23  C   UNL     1      40.037 -12.141   5.884  1.00  0.00     0.236 C 
BRANCH  23  24
HETATM   24  N   UNL     1      40.523 -11.751   7.255  1.00  0.00    -0.067 N 
HETATM   25  H   UNL     1      41.022 -12.534   7.703  1.00  0.00     0.280 HD
HETATM   26  C   UNL     1      41.534 -10.606   7.291  1.00  0.00     0.261 C 
HETATM   27  C   UNL     1      41.911 -10.289   8.746  1.00  0.00     0.195 C 
HETATM   28  O   UNL     1      40.748  -9.960   9.515  1.00  0.00    -0.388 OA
HETATM   29  C   UNL     1      39.840 -11.064   9.574  1.00  0.00     0.195 C 
HETATM   30  C   UNL     1      39.343 -11.429   8.174  1.00  0.00     0.261 C 
ENDBRANCH  23  24
ENDBRANCH  22  23
ENDBRANCH  21  22
ENDBRANCH   1  21
BRANCH   3  31
HETATM   31  C   UNL     1      44.557 -13.441   7.337  1.00  0.00     0.037 A 
HETATM   32  C   UNL     1      44.381 -12.696   8.507  1.00  0.00     0.053 A 
HETATM   33  C   UNL     1      45.442 -11.952   9.026  1.00  0.00     0.036 A 
HETATM   34 CL   UNL     1      45.194 -10.982  10.424  1.00  0.00    -0.084 Cl
HETATM   35  C   UNL     1      46.694 -11.973   8.415  1.00  0.00     0.024 A 
HETATM   36  C   UNL     1      46.883 -12.741   7.268  1.00  0.00     0.004 A 
HETATM   37  C   UNL     1      45.816 -13.464   6.727  1.00  0.00     0.029 A 
ENDBRANCH   3  31
TORSDOF 9
ENDMDL
MODEL 4
REMARK VINA RESULT:      -9.0      1.603      2.171
REMARK  9 active torsions:
REMARK  status: ('A' for Active; 'I' for Inactive)
REMARK    1  A    between atoms: C_2  and  C_3 
REMARK    2  A    between atoms: C_8  and  O_9 
REMARK    3  A    between atoms: C_10  and  C_11 
REMARK    4  A    between atoms: C_11  and  N_12 
REMARK       I    between atoms: N_12  and  C_13 
REMARK    5  A    between atoms: N_12  and  C_23 
REMARK       I    between atoms: C_13  and  N_14 
REMARK    6  A    between atoms: N_14  and  C_15 
REMARK    7  A    between atoms: C_23  and  C_24 
REMARK    8  A    between atoms: C_24  and  C_25 
REMARK    9  A    between atoms: C_25  and  N_26 
ROOT
HETATM    1  N   UNL     1      42.164 -14.716   3.846  1.00  0.00    -0.330 N 
HETATM    2  C   UNL     1      41.398 -14.514   2.706  1.00  0.00     0.323 C 
HETATM    3  N   UNL     1      42.100 -14.008   1.641  1.00  0.00    -0.309 N 
HETATM    4  O   UNL     1      40.172 -14.577   2.751  1.00  0.00    -0.247 OA
HETATM    5  H   UNL     1      43.103 -13.924   1.751  1.00  0.00     0.170 HD
ENDROOT
BRANCH   1   6
HETATM    6  C   UNL     1      41.602 -15.639   4.854  1.00  0.00     0.170 C 
BRANCH   6   7
HETATM    7  C   UNL     1      42.358 -16.925   5.030  1.00  0.00     0.013 A 
HETATM    8  C   UNL     1      42.730 -17.362   6.289  1.00  0.00     0.170 A 
HETATM    9  N   UNL     1      43.403 -18.485   6.569  1.00  0.00    -0.224 NA
HETATM   10  C   UNL     1      43.751 -19.267   5.533  1.00  0.00     0.070 A 
HETATM   11  C   UNL     1      43.455 -18.924   4.195  1.00  0.00    -0.006 A 
HETATM   12  C   UNL     1      44.428 -20.453   5.772  1.00  0.00     0.033 A 
HETATM   13  C   UNL     1      43.842 -19.776   3.145  1.00  0.00     0.021 A 
HETATM   14  C   UNL     1      42.763 -17.725   3.959  1.00  0.00     0.027 A 
HETATM   15  C   UNL     1      44.510 -20.978   3.408  1.00  0.00    -0.058 A 
HETATM   16  C   UNL     1      44.808 -21.306   4.732  1.00  0.00     0.009 A 
BRANCH   8  17
HETATM   17  O   UNL     1      42.430 -16.644   7.402  1.00  0.00    -0.344 OA
HETATM   18  H   UNL     1      43.108 -17.007   8.005  1.00  0.00     0.219 HD
ENDBRANCH   8  17
BRANCH  15  19
HETATM   19  C   UNL     1      44.924 -21.893   2.283  1.00  0.00     0.034 C 
HETATM   20  C   UNL     1      43.882 -21.939   1.176  1.00  0.00     0.010 C 
ENDBRANCH  15  19
ENDBRANCH   6   7
ENDBRANCH   1   6
BRANCH   1  21
HETATM   21  C   UNL     1      42.866 -13.554   4.398  1.00  0.00     0.129 C 
BRANCH  21  22
HETATM   22  C   UNL     1      42.742 -13.387   5.927  1.00  0.00     0.048 C 
BRANCH  22  23
HETATM   23  C   UNL     1      44.009 -13.639   6.753  1.00  0.00     0.236 C 
BRANCH  23  24
HETATM   24  N   UNL     1      44.112 -12.891   8.056  1.00  0.00    -0.067 N 
HETATM   25  H   UNL     1      43.763 -13.467   8.837  1.00  0.00     0.280 HD
HETATM   26  C   UNL     1      45.528 -12.513   8.486  1.00  0.00     0.261 C 
HETATM   27  C   UNL     1      45.481 -11.725   9.803  1.00  0.00     0.195 C 
HETATM   28  O   UNL     1      44.664 -10.555   9.670  1.00  0.00    -0.388 OA
HETATM   29  C   UNL     1      43.310 -10.904   9.369  1.00  0.00     0.195 C 
HETATM   30  C   UNL     1      43.227 -11.643   8.032  1.00  0.00     0.261 C 
ENDBRANCH  23  24
ENDBRANCH  22  23
ENDBRANCH  21  22
ENDBRANCH   1  21
BRANCH   3  31
HETATM   31  C   UNL     1      41.573 -13.702   0.369  1.00  0.00     0.037 A 
HETATM   32  C   UNL     1      41.472 -14.742  -0.560  1.00  0.00     0.053 A 
HETATM   33  C   UNL     1      40.985 -14.485  -1.843  1.00  0.00     0.036 A 
HETATM   34 CL   UNL     1      40.934 -15.757  -3.001  1.00  0.00    -0.084 Cl
HETATM   35  C   UNL     1      40.558 -13.209  -2.202  1.00  0.00     0.024 A 
HETATM   36  C   UNL     1      40.625 -12.177  -1.268  1.00  0.00     0.004 A 
HETATM   37  C   UNL     1      41.140 -12.422   0.008  1.00  0.00     0.029 A 
ENDBRANCH   3  31
TORSDOF 9
ENDMDL
MODEL 5
REMARK VINA RESULT:      -8.9      2.691      3.797
REMARK  9 active torsions:
REMARK  status: ('A' for Active; 'I' for Inactive)
REMARK    1  A    between atoms: C_2  and  C_3 
REMARK    2  A    between atoms: C_8  and  O_9 
REMARK    3  A    between atoms: C_10  and  C_11 
REMARK    4  A    between atoms: C_11  and  N_12 
REMARK       I    between atoms: N_12  and  C_13 
REMARK    5  A    between atoms: N_12  and  C_23 
REMARK       I    between atoms: C_13  and  N_14 
REMARK    6  A    between atoms: N_14  and  C_15 
REMARK    7  A    between atoms: C_23  and  C_24 
REMARK    8  A    between atoms: C_24  and  C_25 
REMARK    9  A    between atoms: C_25  and  N_26 
ROOT
HETATM    1  N   UNL     1      40.584 -14.291   2.983  1.00  0.00    -0.330 N 
HETATM    2  C   UNL     1      40.102 -14.776   1.776  1.00  0.00     0.323 C 
HETATM    3  N   UNL     1      40.672 -14.195   0.670  1.00  0.00    -0.309 N 
HETATM    4  O   UNL     1      39.102 -15.490   1.736  1.00  0.00    -0.247 OA
HETATM    5  H   UNL     1      41.440 -13.556   0.832  1.00  0.00     0.170 HD
ENDROOT
BRANCH   1   6
HETATM    6  C   UNL     1      40.355 -15.145   4.167  1.00  0.00     0.170 C 
BRANCH   6   7
HETATM    7  C   UNL     1      41.459 -16.114   4.476  1.00  0.00     0.013 A 
HETATM    8  C   UNL     1      42.172 -16.023   5.658  1.00  0.00     0.170 A 
HETATM    9  N   UNL     1      43.173 -16.826   6.041  1.00  0.00    -0.224 NA
HETATM   10  C   UNL     1      43.522 -17.816   5.201  1.00  0.00     0.070 A 
HETATM   11  C   UNL     1      42.892 -18.003   3.952  1.00  0.00    -0.006 A 
HETATM   12  C   UNL     1      44.536 -18.689   5.563  1.00  0.00     0.033 A 
HETATM   13  C   UNL     1      43.294 -19.054   3.108  1.00  0.00     0.021 A 
HETATM   14  C   UNL     1      41.860 -17.120   3.594  1.00  0.00     0.027 A 
HETATM   15  C   UNL     1      44.309 -19.936   3.498  1.00  0.00    -0.058 A 
HETATM   16  C   UNL     1      44.934 -19.739   4.731  1.00  0.00     0.009 A 
BRANCH   8  17
HETATM   17  O   UNL     1      41.902 -15.057   6.573  1.00  0.00    -0.344 OA
HETATM   18  H   UNL     1      42.214 -15.516   7.376  1.00  0.00     0.219 HD
ENDBRANCH   8  17
BRANCH  15  19
HETATM   19  C   UNL     1      44.740 -21.064   2.595  1.00  0.00     0.034 C 
HETATM   20  C   UNL     1      43.582 -21.607   1.771  1.00  0.00     0.010 C 
ENDBRANCH  15  19
ENDBRANCH   6   7
ENDBRANCH   1   6
BRANCH   1  21
HETATM   21  C   UNL     1      40.456 -12.851   3.228  1.00  0.00     0.129 C 
BRANCH  21  22
HETATM   22  C   UNL     1      40.166 -12.465   4.693  1.00  0.00     0.048 C 
BRANCH  22  23
HETATM   23  C   UNL     1      41.354 -11.959   5.520  1.00  0.00     0.236 C 
BRANCH  23  24
HETATM   24  N   UNL     1      41.106 -11.777   6.994  1.00  0.00    -0.067 N 
HETATM   25  H   UNL     1      41.376 -12.623   7.518  1.00  0.00     0.280 HD
HETATM   26  C   UNL     1      41.911 -10.663   7.663  1.00  0.00     0.261 C 
HETATM   27  C   UNL     1      41.532 -10.565   9.148  1.00  0.00     0.195 C 
HETATM   28  O   UNL     1      40.126 -10.335   9.302  1.00  0.00    -0.388 OA
HETATM   29  C   UNL     1      39.365 -11.423   8.771  1.00  0.00     0.195 C 
HETATM   30  C   UNL     1      39.615 -11.575   7.270  1.00  0.00     0.261 C 
ENDBRANCH  23  24
ENDBRANCH  22  23
ENDBRANCH  21  22
ENDBRANCH   1  21
BRANCH   3  31
HETATM   31  C   UNL     1      40.366 -14.492  -0.674  1.00  0.00     0.037 A 
HETATM   32  C   UNL     1      39.320 -13.785  -1.275  1.00  0.00     0.053 A 
HETATM   33  C   UNL     1      38.958 -14.063  -2.595  1.00  0.00     0.036 A 
HETATM   34 CL   UNL     1      37.623 -13.239  -3.299  1.00  0.00    -0.084 Cl
HETATM   35  C   UNL     1      39.653 -15.012  -3.340  1.00  0.00     0.024 A 
HETATM   36  C   UNL     1      40.718 -15.695  -2.756  1.00  0.00     0.004 A 
HETATM   37  C   UNL     1      41.065 -15.442  -1.426  1.00  0.00     0.029 A 
ENDBRANCH   3  31
TORSDOF 9
ENDMDL
MODEL 6
REMARK VINA RESULT:      -8.8      3.562      7.150
REMARK  9 active torsions:
REMARK  status: ('A' for Active; 'I' for Inactive)
REMARK    1  A    between atoms: C_2  and  C_3 
REMARK    2  A    between atoms: C_8  and  O_9 
REMARK    3  A    between atoms: C_10  and  C_11 
REMARK    4  A    between atoms: C_11  and  N_12 
REMARK       I    between atoms: N_12  and  C_13 
REMARK    5  A    between atoms: N_12  and  C_23 
REMARK       I    between atoms: C_13  and  N_14 
REMARK    6  A    between atoms: N_14  and  C_15 
REMARK    7  A    between atoms: C_23  and  C_24 
REMARK    8  A    between atoms: C_24  and  C_25 
REMARK    9  A    between atoms: C_25  and  N_26 
ROOT
HETATM    1  N   UNL     1      41.374 -13.488   5.842  1.00  0.00    -0.330 N 
HETATM    2  C   UNL     1      41.168 -12.227   6.384  1.00  0.00     0.323 C 
HETATM    3  N   UNL     1      40.139 -12.167   7.291  1.00  0.00    -0.309 N 
HETATM    4  O   UNL     1      41.719 -11.237   5.907  1.00  0.00    -0.247 OA
HETATM    5  H   UNL     1      39.703 -13.044   7.548  1.00  0.00     0.170 HD
ENDROOT
BRANCH   1   6
HETATM    6  C   UNL     1      42.693 -13.723   5.221  1.00  0.00     0.170 C 
BRANCH   6   7
HETATM    7  C   UNL     1      43.153 -15.152   5.223  1.00  0.00     0.013 A 
HETATM    8  C   UNL     1      43.712 -15.716   6.356  1.00  0.00     0.170 A 
HETATM    9  N   UNL     1      44.157 -16.973   6.477  1.00  0.00    -0.224 NA
HETATM   10  C   UNL     1      44.052 -17.767   5.398  1.00  0.00     0.070 A 
HETATM   11  C   UNL     1      43.523 -17.310   4.171  1.00  0.00    -0.006 A 
HETATM   12  C   UNL     1      44.476 -19.085   5.479  1.00  0.00     0.033 A 
HETATM   13  C   UNL     1      43.435 -18.180   3.071  1.00  0.00     0.021 A 
HETATM   14  C   UNL     1      43.089 -15.976   4.097  1.00  0.00     0.027 A 
HETATM   15  C   UNL     1      43.854 -19.513   3.177  1.00  0.00    -0.058 A 
HETATM   16  C   UNL     1      44.384 -19.956   4.390  1.00  0.00     0.009 A 
BRANCH   8  17
HETATM   17  O   UNL     1      43.867 -14.997   7.498  1.00  0.00    -0.344 OA
HETATM   18  H   UNL     1      43.766 -15.720   8.148  1.00  0.00     0.219 HD
ENDBRANCH   8  17
BRANCH  15  19
HETATM   19  C   UNL     1      43.758 -20.448   1.998  1.00  0.00     0.034 C 
HETATM   20  C   UNL     1      44.439 -21.780   2.272  1.00  0.00     0.010 C 
ENDBRANCH  15  19
ENDBRANCH   6   7
ENDBRANCH   1   6
BRANCH   1  21
HETATM   21  C   UNL     1      40.245 -14.113   5.147  1.00  0.00     0.129 C 
BRANCH  21  22
HETATM   22  C   UNL     1      39.940 -13.530   3.751  1.00  0.00     0.048 C 
BRANCH  22  23
HETATM   23  C   UNL     1      39.457 -14.518   2.682  1.00  0.00     0.236 C 
BRANCH  23  24
HETATM   24  N   UNL     1      40.465 -14.900   1.630  1.00  0.00    -0.067 N 
HETATM   25  H   UNL     1      41.411 -14.590   1.899  1.00  0.00     0.280 HD
HETATM   26  C   UNL     1      40.628 -16.401   1.393  1.00  0.00     0.261 C 
HETATM   27  C   UNL     1      41.651 -16.644   0.274  1.00  0.00     0.195 C 
HETATM   28  O   UNL     1      41.255 -15.981  -0.934  1.00  0.00    -0.388 OA
HETATM   29  C   UNL     1      41.201 -14.564  -0.749  1.00  0.00     0.195 C 
HETATM   30  C   UNL     1      40.156 -14.197   0.307  1.00  0.00     0.261 C 
ENDBRANCH  23  24
ENDBRANCH  22  23
ENDBRANCH  21  22
ENDBRANCH   1  21
BRANCH   3  31
HETATM   31  C   UNL     1      39.710 -11.016   7.984  1.00  0.00     0.037 A 
HETATM   32  C   UNL     1      39.806 -11.025   9.379  1.00  0.00     0.053 A 
HETATM   33  C   UNL     1      39.366  -9.922  10.115  1.00  0.00     0.036 A 
HETATM   34 CL   UNL     1      39.421  -9.973  11.833  1.00  0.00    -0.084 Cl
HETATM   35  C   UNL     1      38.867  -8.790   9.474  1.00  0.00     0.024 A 
HETATM   36  C   UNL     1      38.802  -8.765   8.083  1.00  0.00     0.004 A 
HETATM   37  C   UNL     1      39.213  -9.877   7.343  1.00  0.00     0.029 A 
ENDBRANCH   3  31
TORSDOF 9
ENDMDL
MODEL 7
REMARK VINA RESULT:      -8.8      3.554      8.814
REMARK  9 active torsions:
REMARK  status: ('A' for Active; 'I' for Inactive)
REMARK    1  A    between atoms: C_2  and  C_3 
REMARK    2  A    between atoms: C_8  and  O_9 
REMARK    3  A    between atoms: C_10  and  C_11 
REMARK    4  A    between atoms: C_11  and  N_12 
REMARK       I    between atoms: N_12  and  C_13 
REMARK    5  A    between atoms: N_12  and  C_23 
REMARK       I    between atoms: C_13  and  N_14 
REMARK    6  A    between atoms: N_14  and  C_15 
REMARK    7  A    between atoms: C_23  and  C_24 
REMARK    8  A    between atoms: C_24  and  C_25 
REMARK    9  A    between atoms: C_25  and  N_26 
ROOT
HETATM    1  N   UNL     1      41.293 -15.473   2.025  1.00  0.00    -0.330 N 
HETATM    2  C   UNL     1      42.384 -16.282   2.311  1.00  0.00     0.323 C 
HETATM    3  N   UNL     1      42.052 -17.556   2.697  1.00  0.00    -0.309 N 
HETATM    4  O   UNL     1      43.512 -15.805   2.419  1.00  0.00    -0.247 OA
HETATM    5  H   UNL     1      41.074 -17.812   2.644  1.00  0.00     0.170 HD
ENDROOT
BRANCH   1   6
HETATM    6  C   UNL     1      41.567 -14.275   1.205  1.00  0.00     0.170 C 
BRANCH   6   7
HETATM    7  C   UNL     1      40.651 -14.084   0.030  1.00  0.00     0.013 A 
HETATM    8  C   UNL     1      40.793 -14.853  -1.111  1.00  0.00     0.170 A 
HETATM    9  N   UNL     1      40.042 -14.775  -2.217  1.00  0.00    -0.224 NA
HETATM   10  C   UNL     1      39.054 -13.863  -2.223  1.00  0.00     0.070 A 
HETATM   11  C   UNL     1      38.818 -12.998  -1.133  1.00  0.00    -0.006 A 
HETATM   12  C   UNL     1      38.232 -13.758  -3.335  1.00  0.00     0.033 A 
HETATM   13  C   UNL     1      37.771 -12.060  -1.189  1.00  0.00     0.021 A 
HETATM   14  C   UNL     1      39.649 -13.113  -0.007  1.00  0.00     0.027 A 
HETATM   15  C   UNL     1      36.941 -11.980  -2.314  1.00  0.00    -0.058 A 
HETATM   16  C   UNL     1      37.186 -12.833  -3.392  1.00  0.00     0.009 A 
BRANCH   8  17
HETATM   17  O   UNL     1      41.763 -15.800  -1.209  1.00  0.00    -0.344 OA
HETATM   18  H   UNL     1      41.284 -16.453  -1.754  1.00  0.00     0.219 HD
ENDBRANCH   8  17
BRANCH  15  19
HETATM   19  C   UNL     1      35.817 -10.977  -2.374  1.00  0.00     0.034 C 
HETATM   20  C   UNL     1      35.192 -10.741  -1.008  1.00  0.00     0.010 C 
ENDBRANCH  15  19
ENDBRANCH   6   7
ENDBRANCH   1   6
BRANCH   1  21
HETATM   21  C   UNL     1      40.303 -15.280   3.088  1.00  0.00     0.129 C 
BRANCH  21  22
HETATM   22  C   UNL     1      40.854 -14.630   4.376  1.00  0.00     0.048 C 
BRANCH  22  23
HETATM   23  C   UNL     1      40.603 -15.383   5.688  1.00  0.00     0.236 C 
BRANCH  23  24
HETATM   24  N   UNL     1      41.810 -15.619   6.557  1.00  0.00    -0.067 N 
HETATM   25  H   UNL     1      41.748 -15.071   7.428  1.00  0.00     0.280 HD
HETATM   26  C   UNL     1      41.998 -17.056   7.043  1.00  0.00     0.261 C 
HETATM   27  C   UNL     1      43.281 -17.159   7.881  1.00  0.00     0.195 C 
HETATM   28  O   UNL     1      44.421 -16.728   7.126  1.00  0.00    -0.388 OA
HETATM   29  C   UNL     1      44.301 -15.352   6.755  1.00  0.00     0.195 C 
HETATM   30  C   UNL     1      43.083 -15.139   5.855  1.00  0.00     0.261 C 
ENDBRANCH  23  24
ENDBRANCH  22  23
ENDBRANCH  21  22
ENDBRANCH   1  21
BRANCH   3  31
HETATM   31  C   UNL     1      42.957 -18.579   3.051  1.00  0.00     0.037 A 
HETATM   32  C   UNL     1      43.154 -19.617   2.136  1.00  0.00     0.053 A 
HETATM   33  C   UNL     1      44.017 -20.669   2.452  1.00  0.00     0.036 A 
HETATM   34 CL   UNL     1      44.196 -21.978   1.350  1.00  0.00    -0.084 Cl
HETATM   35  C   UNL     1      44.719 -20.680   3.655  1.00  0.00     0.024 A 
HETATM   36  C   UNL     1      44.550 -19.630   4.554  1.00  0.00     0.004 A 
HETATM   37  C   UNL     1      43.666 -18.589   4.257  1.00  0.00     0.029 A 
ENDBRANCH   3  31
TORSDOF 9
ENDMDL
MODEL 8
REMARK VINA RESULT:      -8.8      4.027      7.933
REMARK  9 active torsions:
REMARK  status: ('A' for Active; 'I' for Inactive)
REMARK    1  A    between atoms: C_2  and  C_3 
REMARK    2  A    between atoms: C_8  and  O_9 
REMARK    3  A    between atoms: C_10  and  C_11 
REMARK    4  A    between atoms: C_11  and  N_12 
REMARK       I    between atoms: N_12  and  C_13 
REMARK    5  A    between atoms: N_12  and  C_23 
REMARK       I    between atoms: C_13  and  N_14 
REMARK    6  A    between atoms: N_14  and  C_15 
REMARK    7  A    between atoms: C_23  and  C_24 
REMARK    8  A    between atoms: C_24  and  C_25 
REMARK    9  A    between atoms: C_25  and  N_26 
ROOT
HETATM    1  N   UNL     1      41.191 -14.320   2.115  1.00  0.00    -0.330 N 
HETATM    2  C   UNL     1      40.690 -13.035   2.273  1.00  0.00     0.323 C 
HETATM    3  N   UNL     1      39.340 -12.985   2.514  1.00  0.00    -0.309 N 
HETATM    4  O   UNL     1      41.372 -12.052   1.990  1.00  0.00    -0.247 OA
HETATM    5  H   UNL     1      38.865 -13.869   2.651  1.00  0.00     0.170 HD
ENDROOT
BRANCH   1   6
HETATM    6  C   UNL     1      42.649 -14.476   2.289  1.00  0.00     0.170 C 
BRANCH   6   7
HETATM    7  C   UNL     1      43.072 -15.698   3.054  1.00  0.00     0.013 A 
HETATM    8  C   UNL     1      43.202 -15.663   4.431  1.00  0.00     0.170 A 
HETATM    9  N   UNL     1      43.570 -16.682   5.217  1.00  0.00    -0.224 NA
HETATM   10  C   UNL     1      43.840 -17.854   4.616  1.00  0.00     0.070 A 
HETATM   11  C   UNL     1      43.770 -18.018   3.215  1.00  0.00    -0.006 A 
HETATM   12  C   UNL     1      44.202 -18.947   5.388  1.00  0.00     0.033 A 
HETATM   13  C   UNL     1      44.063 -19.265   2.634  1.00  0.00     0.021 A 
HETATM   14  C   UNL     1      43.396 -16.909   2.439  1.00  0.00     0.027 A 
HETATM   15  C   UNL     1      44.411 -20.362   3.432  1.00  0.00    -0.058 A 
HETATM   16  C   UNL     1      44.486 -20.190   4.815  1.00  0.00     0.009 A 
BRANCH   8  17
HETATM   17  O   UNL     1      42.957 -14.527   5.134  1.00  0.00    -0.344 OA
HETATM   18  H   UNL     1      42.392 -14.064   4.485  1.00  0.00     0.219 HD
ENDBRANCH   8  17
BRANCH  15  19
HETATM   19  C   UNL     1      44.723 -21.700   2.810  1.00  0.00     0.034 C 
HETATM   20  C   UNL     1      43.970 -21.910   1.505  1.00  0.00     0.010 C 
ENDBRANCH  15  19
ENDBRANCH   6   7
ENDBRANCH   1   6
BRANCH   1  21
HETATM   21  C   UNL     1      40.605 -15.143   1.054  1.00  0.00     0.129 C 
BRANCH  21  22
HETATM   22  C   UNL     1      41.145 -14.856  -0.363  1.00  0.00     0.048 C 
BRANCH  22  23
HETATM   23  C   UNL     1      40.225 -14.069  -1.305  1.00  0.00     0.236 C 
BRANCH  23  24
HETATM   24  N   UNL     1      39.279 -14.888  -2.143  1.00  0.00    -0.067 N 
HETATM   25  H   UNL     1      38.919 -15.693  -1.610  1.00  0.00     0.280 HD
HETATM   26  C   UNL     1      38.015 -14.162  -2.604  1.00  0.00     0.261 C 
HETATM   27  C   UNL     1      37.166 -15.097  -3.477  1.00  0.00     0.195 C 
HETATM   28  O   UNL     1      37.918 -15.567  -4.604  1.00  0.00    -0.388 OA
HETATM   29  C   UNL     1      39.047 -16.337  -4.183  1.00  0.00     0.195 C 
HETATM   30  C   UNL     1      40.005 -15.481  -3.352  1.00  0.00     0.261 C 
ENDBRANCH  23  24
ENDBRANCH  22  23
ENDBRANCH  21  22
ENDBRANCH   1  21
BRANCH   3  31
HETATM   31  C   UNL     1      38.573 -11.816   2.706  1.00  0.00     0.037 A 
HETATM   32  C   UNL     1      37.696 -11.440   1.685  1.00  0.00     0.053 A 
HETATM   33  C   UNL     1      36.937 -10.274   1.812  1.00  0.00     0.036 A 
HETATM   34 CL   UNL     1      35.916  -9.782   0.519  1.00  0.00    -0.084 Cl
HETATM   35  C   UNL     1      37.011  -9.498   2.966  1.00  0.00     0.024 A 
HETATM   36  C   UNL     1      37.859  -9.888   4.000  1.00  0.00     0.004 A 
HETATM   37  C   UNL     1      38.643 -11.037   3.866  1.00  0.00     0.029 A 
ENDBRANCH   3  31
TORSDOF 9
ENDMDL
MODEL 9
REMARK VINA RESULT:      -8.6      3.900      9.856
REMARK  9 active torsions:
REMARK  status: ('A' for Active; 'I' for Inactive)
REMARK    1  A    between atoms: C_2  and  C_3 
REMARK    2  A    between atoms: C_8  and  O_9 
REMARK    3  A    between atoms: C_10  and  C_11 
REMARK    4  A    between atoms: C_11  and  N_12 
REMARK       I    between atoms: N_12  and  C_13 
REMARK    5  A    between atoms: N_12  and  C_23 
REMARK       I    between atoms: C_13  and  N_14 
REMARK    6  A    between atoms: N_14  and  C_15 
REMARK    7  A    between atoms: C_23  and  C_24 
REMARK    8  A    between atoms: C_24  and  C_25 
REMARK    9  A    between atoms: C_25  and  N_26 
ROOT
HETATM    1  N   UNL     1      40.901 -15.714   2.108  1.00  0.00    -0.330 N 
HETATM    2  C   UNL     1      41.405 -16.788   2.829  1.00  0.00     0.323 C 
HETATM    3  N   UNL     1      42.685 -17.144   2.484  1.00  0.00    -0.309 N 
HETATM    4  O   UNL     1      40.670 -17.473   3.537  1.00  0.00    -0.247 OA
HETATM    5  H   UNL     1      43.165 -16.545   1.824  1.00  0.00     0.170 HD
ENDROOT
BRANCH   1   6
HETATM    6  C   UNL     1      39.744 -15.015   2.704  1.00  0.00     0.170 C 
BRANCH   6   7
HETATM    7  C   UNL     1      40.090 -13.974   3.730  1.00  0.00     0.013 A 
HETATM    8  C   UNL     1      40.052 -14.270   5.081  1.00  0.00     0.170 A 
HETATM    9  N   UNL     1      40.337 -13.428   6.083  1.00  0.00    -0.224 NA
HETATM   10  C   UNL     1      40.694 -12.176   5.750  1.00  0.00     0.070 A 
HETATM   11  C   UNL     1      40.747 -11.737   4.409  1.00  0.00    -0.006 A 
HETATM   12  C   UNL     1      41.022 -11.274   6.750  1.00  0.00     0.033 A 
HETATM   13  C   UNL     1      41.126 -10.416   4.113  1.00  0.00     0.021 A 
HETATM   14  C   UNL     1      40.421 -12.658   3.400  1.00  0.00     0.027 A 
HETATM   15  C   UNL     1      41.470  -9.523   5.135  1.00  0.00    -0.058 A 
HETATM   16  C   UNL     1      41.407  -9.962   6.459  1.00  0.00     0.009 A 
BRANCH   8  17
HETATM   17  O   UNL     1      39.700 -15.505   5.523  1.00  0.00    -0.344 OA
HETATM   18  H   UNL     1      39.631 -15.311   6.478  1.00  0.00     0.219 HD
ENDBRANCH   8  17
BRANCH  15  19
HETATM   19  C   UNL     1      41.879  -8.107   4.819  1.00  0.00     0.034 C 
HETATM   20  C   UNL     1      41.077  -7.529   3.662  1.00  0.00     0.010 C 
ENDBRANCH  15  19
ENDBRANCH   6   7
ENDBRANCH   1   6
BRANCH   1  21
HETATM   21  C   UNL     1      40.856 -15.847   0.649  1.00  0.00     0.129 C 
BRANCH  21  22
HETATM   22  C   UNL     1      41.256 -14.577  -0.131  1.00  0.00     0.048 C 
BRANCH  22  23
HETATM   23  C   UNL     1      40.154 -13.895  -0.950  1.00  0.00     0.236 C 
BRANCH  23  24
HETATM   24  N   UNL     1      39.348 -14.792  -1.852  1.00  0.00    -0.067 N 
HETATM   25  H   UNL     1      39.004 -15.616  -1.337  1.00  0.00     0.280 HD
HETATM   26  C   UNL     1      38.079 -14.169  -2.433  1.00  0.00     0.261 C 
HETATM   27  C   UNL     1      37.381 -15.175  -3.359  1.00  0.00     0.195 C 
HETATM   28  O   UNL     1      38.261 -15.600  -4.408  1.00  0.00    -0.388 OA
HETATM   29  C   UNL     1      39.404 -16.277  -3.878  1.00  0.00     0.195 C 
HETATM   30  C   UNL     1      40.219 -15.342  -2.984  1.00  0.00     0.261 C 
ENDBRANCH  23  24
ENDBRANCH  22  23
ENDBRANCH  21  22
ENDBRANCH   1  21
BRANCH   3  31
HETATM   31  C   UNL     1      43.434 -18.197   3.048  1.00  0.00     0.037 A 
HETATM   32  C   UNL     1      43.632 -19.343   2.272  1.00  0.00     0.053 A 
HETATM   33  C   UNL     1      44.341 -20.426   2.796  1.00  0.00     0.036 A 
HETATM   34 CL   UNL     1      44.515 -21.858   1.858  1.00  0.00    -0.084 Cl
HETATM   35  C   UNL     1      44.892 -20.367   4.073  1.00  0.00     0.024 A 
HETATM   36  C   UNL     1      44.727 -19.214   4.837  1.00  0.00     0.004 A 
HETATM   37  C   UNL     1      43.992 -18.138   4.329  1.00  0.00     0.029 A 
ENDBRANCH   3  31
TORSDOF 9
ENDMDL
MODEL 10
REMARK VINA RESULT:      -8.6      2.066      2.758
REMARK  9 active torsions:
REMARK  status: ('A' for Active; 'I' for Inactive)
REMARK    1  A    between atoms: C_2  and  C_3 
REMARK    2  A    between atoms: C_8  and  O_9 
REMARK    3  A    between atoms: C_10  and  C_11 
REMARK    4  A    between atoms: C_11  and  N_12 
REMARK       I    between atoms: N_12  and  C_13 
REMARK    5  A    between atoms: N_12  and  C_23 
REMARK       I    between atoms: C_13  and  N_14 
REMARK    6  A    between atoms: N_14  and  C_15 
REMARK    7  A    between atoms: C_23  and  C_24 
REMARK    8  A    between atoms: C_24  and  C_25 
REMARK    9  A    between atoms: C_25  and  N_26 
ROOT
HETATM    1  N   UNL     1      41.568 -14.366   3.673  1.00  0.00    -0.330 N 
HETATM    2  C   UNL     1      40.797 -14.380   2.519  1.00  0.00     0.323 C 
HETATM    3  N   UNL     1      41.386 -13.765   1.443  1.00  0.00    -0.309 N 
HETATM    4  O   UNL     1      39.615 -14.716   2.553  1.00  0.00    -0.247 OA
HETATM    5  H   UNL     1      42.342 -13.454   1.560  1.00  0.00     0.170 HD
ENDROOT
BRANCH   1   6
HETATM    6  C   UNL     1      41.209 -15.358   4.708  1.00  0.00     0.170 C 
BRANCH   6   7
HETATM    7  C   UNL     1      42.167 -16.506   4.848  1.00  0.00     0.013 A 
HETATM    8  C   UNL     1      42.882 -16.694   6.017  1.00  0.00     0.170 A 
HETATM    9  N   UNL     1      43.761 -17.676   6.258  1.00  0.00    -0.224 NA
HETATM   10  C   UNL     1      43.972 -18.566   5.273  1.00  0.00     0.070 A 
HETATM   11  C   UNL     1      43.325 -18.474   4.021  1.00  0.00    -0.006 A 
HETATM   12  C   UNL     1      44.854 -19.615   5.481  1.00  0.00     0.033 A 
HETATM   13  C   UNL     1      43.580 -19.430   3.022  1.00  0.00     0.021 A 
HETATM   14  C   UNL     1      42.427 -17.413   3.818  1.00  0.00     0.027 A 
HETATM   15  C   UNL     1      44.462 -20.492   3.256  1.00  0.00    -0.058 A 
HETATM   16  C   UNL     1      45.104 -20.572   4.494  1.00  0.00     0.009 A 
BRANCH   8  17
HETATM   17  O   UNL     1      42.746 -15.849   7.072  1.00  0.00    -0.344 OA
HETATM   18  H   UNL     1      43.210 -15.072   6.705  1.00  0.00     0.219 HD
ENDBRANCH   8  17
BRANCH  15  19
HETATM   19  C   UNL     1      44.735 -21.519   2.187  1.00  0.00     0.034 C 
HETATM   20  C   UNL     1      43.472 -21.902   1.431  1.00  0.00     0.010 C 
ENDBRANCH  15  19
ENDBRANCH   6   7
ENDBRANCH   1   6
BRANCH   1  21
HETATM   21  C   UNL     1      41.980 -13.058   4.189  1.00  0.00     0.129 C 
BRANCH  21  22
HETATM   22  C   UNL     1      41.883 -12.906   5.722  1.00  0.00     0.048 C 
BRANCH  22  23
HETATM   23  C   UNL     1      41.156 -11.661   6.245  1.00  0.00     0.236 C 
BRANCH  23  24
HETATM   24  N   UNL     1      41.131 -11.488   7.741  1.00  0.00    -0.067 N 
HETATM   25  H   UNL     1      41.257 -12.394   8.217  1.00  0.00     0.280 HD
HETATM   26  C   UNL     1      42.245 -10.615   8.319  1.00  0.00     0.261 C 
HETATM   27  C   UNL     1      42.076 -10.494   9.840  1.00  0.00     0.195 C 
HETATM   28  O   UNL     1      40.790  -9.954  10.170  1.00  0.00    -0.388 OA
HETATM   29  C   UNL     1      39.740 -10.817   9.724  1.00  0.00     0.195 C 
HETATM   30  C   UNL     1      39.770 -10.961   8.201  1.00  0.00     0.261 C 
ENDBRANCH  23  24
ENDBRANCH  22  23
ENDBRANCH  21  22
ENDBRANCH   1  21
BRANCH   3  31
HETATM   31  C   UNL     1      40.826 -13.628   0.155  1.00  0.00     0.037 A 
HETATM   32  C   UNL     1      40.944 -14.710  -0.723  1.00  0.00     0.053 A 
HETATM   33  C   UNL     1      40.434 -14.614  -2.019  1.00  0.00     0.036 A 
HETATM   34 CL   UNL     1      40.649 -15.923  -3.114  1.00  0.00    -0.084 Cl
HETATM   35  C   UNL     1      39.770 -13.465  -2.441  1.00  0.00     0.024 A 
HETATM   36  C   UNL     1      39.621 -12.397  -1.558  1.00  0.00     0.004 A 
HETATM   37  C   UNL     1      40.155 -12.477  -0.269  1.00  0.00     0.029 A 
ENDBRANCH   3  31
TORSDOF 9
ENDMDL
