MODEL 1
REMARK VINA RESULT:      -8.0      0.000      0.000
REMARK  4 active torsions:
REMARK  status: ('A' for Active; 'I' for Inactive)
REMARK    1  A    between atoms: C_5  and  C_6 
REMARK       I    between atoms: C_6  and  N_7 
REMARK    2  A    between atoms: N_7  and  C_8 
REMARK    3  A    between atoms: C_8  and  N_9 
REMARK    4  A    between atoms: N_9  and  C_10 
ROOT
HETATM    1  C   UNL     1      44.002 -17.226   5.749  1.00  0.00     0.257 C 
HETATM    2  N   UNL     1      43.311 -16.099   5.317  1.00  0.00    -0.299 N 
HETATM    3  O   UNL     1      44.634 -17.335   6.792  1.00  0.00    -0.267 OA
HETATM    4  H   UNL     1      43.193 -16.021   4.317  1.00  0.00     0.171 HD
ENDROOT
BRANCH   2   5
HETATM    5  C   UNL     1      43.198 -14.908   5.966  1.00  0.00     0.180 C 
HETATM    6  S   UNL     1      42.556 -13.602   5.138  1.00  0.00    -0.040 SA
BRANCH   5   7
HETATM    7  N   UNL     1      43.629 -14.737   7.235  1.00  0.00    -0.318 N 
HETATM    8  H   UNL     1      43.437 -15.506   7.863  1.00  0.00     0.170 HD
BRANCH   7   9
HETATM    9  C   UNL     1      44.657 -13.874   7.653  1.00  0.00     0.129 A 
HETATM   10  N   UNL     1      44.531 -13.165   8.796  1.00  0.00    -0.236 NA
HETATM   11  C   UNL     1      45.502 -12.267   9.095  1.00  0.00     0.033 A 
HETATM   12  C   UNL     1      45.333 -11.468  10.351  1.00  0.00     0.070 C 
HETATM   13  C   UNL     1      46.595 -12.033   8.265  1.00  0.00     0.027 A 
HETATM   14  C   UNL     1      46.708 -12.765   7.091  1.00  0.00     0.006 A 
HETATM   15  C   UNL     1      45.724 -13.697   6.778  1.00  0.00     0.050 A 
ENDBRANCH   7   9
ENDBRANCH   5   7
ENDBRANCH   2   5
BRANCH   1  16
HETATM   16  C   UNL     1      44.081 -18.306   4.730  1.00  0.00     0.032 A 
HETATM   17  C   UNL     1      43.414 -18.129   3.513  1.00  0.00     0.017 A 
HETATM   18  C   UNL     1      43.399 -19.157   2.567  1.00  0.00     0.007 A 
HETATM   19  C   UNL     1      44.056 -20.366   2.825  1.00  0.00    -0.062 A 
HETATM   20  C   UNL     1      44.048 -21.473   1.812  1.00  0.00     0.048 C 
HETATM   21  C   UNL     1      44.755 -20.523   4.031  1.00  0.00     0.007 A 
HETATM   22  C   UNL     1      44.767 -19.499   4.983  1.00  0.00     0.017 A 
ENDBRANCH   1  16
TORSDOF 4
ENDMDL
MODEL 2
REMARK VINA RESULT:      -7.6      5.424      7.263
REMARK  4 active torsions:
REMARK  status: ('A' for Active; 'I' for Inactive)
REMARK    1  A    between atoms: C_5  and  C_6 
REMARK       I    between atoms: C_6  and  N_7 
REMARK    2  A    between atoms: N_7  and  C_8 
REMARK    3  A    between atoms: C_8  and  N_9 
REMARK    4  A    between atoms: N_9  and  C_10 
ROOT
HETATM    1  C   UNL     1      43.074 -17.904   1.573  1.00  0.00     0.257 C 
HETATM    2  N   UNL     1      41.786 -17.518   1.930  1.00  0.00    -0.299 N 
HETATM    3  O   UNL     1      43.681 -17.565   0.565  1.00  0.00    -0.267 OA
HETATM    4  H   UNL     1      41.295 -18.159   2.536  1.00  0.00     0.171 HD
ENDROOT
BRANCH   2   5
HETATM    5  C   UNL     1      40.957 -16.691   1.238  1.00  0.00     0.180 C 
HETATM    6  S   UNL     1      39.916 -15.698   2.095  1.00  0.00    -0.040 SA
BRANCH   5   7
HETATM    7  N   UNL     1      40.914 -16.682  -0.113  1.00  0.00    -0.318 N 
HETATM    8  H   UNL     1      40.301 -17.370  -0.529  1.00  0.00     0.170 HD
BRANCH   7   9
HETATM    9  C   UNL     1      41.240 -15.598  -0.946  1.00  0.00     0.129 A 
HETATM   10  N   UNL     1      41.696 -14.443  -0.416  1.00  0.00    -0.236 NA
HETATM   11  C   UNL     1      41.892 -13.395  -1.255  1.00  0.00     0.033 A 
HETATM   12  C   UNL     1      42.371 -12.111  -0.646  1.00  0.00     0.070 C 
HETATM   13  C   UNL     1      41.617 -13.456  -2.617  1.00  0.00     0.027 A 
HETATM   14  C   UNL     1      41.143 -14.649  -3.146  1.00  0.00     0.006 A 
HETATM   15  C   UNL     1      40.948 -15.735  -2.300  1.00  0.00     0.050 A 
ENDBRANCH   7   9
ENDBRANCH   5   7
ENDBRANCH   2   5
BRANCH   1  16
HETATM   16  C   UNL     1      43.649 -18.955   2.454  1.00  0.00     0.032 A 
HETATM   17  C   UNL     1      43.840 -20.238   1.929  1.00  0.00     0.017 A 
HETATM   18  C   UNL     1      44.300 -21.268   2.751  1.00  0.00     0.007 A 
HETATM   19  C   UNL     1      44.582 -21.026   4.101  1.00  0.00    -0.062 A 
HETATM   20  C   UNL     1      45.081 -22.127   4.990  1.00  0.00     0.048 C 
HETATM   21  C   UNL     1      44.424 -19.729   4.612  1.00  0.00     0.007 A 
HETATM   22  C   UNL     1      43.958 -18.696   3.794  1.00  0.00     0.017 A 
ENDBRANCH   1  16
TORSDOF 4
ENDMDL
MODEL 3
REMARK VINA RESULT:      -7.4      2.879      4.619
REMARK  4 active torsions:
REMARK  status: ('A' for Active; 'I' for Inactive)
REMARK    1  A    between atoms: C_5  and  C_6 
REMARK       I    between atoms: C_6  and  N_7 
REMARK    2  A    between atoms: N_7  and  C_8 
REMARK    3  A    between atoms: C_8  and  N_9 
REMARK    4  A    between atoms: N_9  and  C_10 
ROOT
HETATM    1  C   UNL     1      43.236 -17.850   5.726  1.00  0.00     0.257 C 
HETATM    2  N   UNL     1      43.274 -16.530   5.291  1.00  0.00    -0.299 N 
HETATM    3  O   UNL     1      43.055 -18.231   6.876  1.00  0.00    -0.267 OA
HETATM    4  H   UNL     1      43.808 -16.367   4.449  1.00  0.00     0.171 HD
ENDROOT
BRANCH   2   5
HETATM    5  C   UNL     1      43.113 -15.411   6.049  1.00  0.00     0.180 C 
HETATM    6  S   UNL     1      44.450 -14.772   6.830  1.00  0.00    -0.040 SA
BRANCH   5   7
HETATM    7  N   UNL     1      41.905 -14.833   6.229  1.00  0.00    -0.318 N 
HETATM    8  H   UNL     1      41.761 -14.410   7.135  1.00  0.00     0.170 HD
BRANCH   7   9
HETATM    9  C   UNL     1      41.048 -14.371   5.216  1.00  0.00     0.129 A 
HETATM   10  N   UNL     1      40.706 -15.179   4.189  1.00  0.00    -0.236 NA
HETATM   11  C   UNL     1      39.966 -14.648   3.184  1.00  0.00     0.033 A 
HETATM   12  C   UNL     1      39.620 -15.550   2.039  1.00  0.00     0.070 C 
HETATM   13  C   UNL     1      39.574 -13.313   3.159  1.00  0.00     0.027 A 
HETATM   14  C   UNL     1      39.938 -12.493   4.218  1.00  0.00     0.006 A 
HETATM   15  C   UNL     1      40.688 -13.027   5.261  1.00  0.00     0.050 A 
ENDBRANCH   7   9
ENDBRANCH   5   7
ENDBRANCH   2   5
BRANCH   1  16
HETATM   16  C   UNL     1      43.624 -18.836   4.682  1.00  0.00     0.032 A 
HETATM   17  C   UNL     1      43.086 -18.697   3.398  1.00  0.00     0.017 A 
HETATM   18  C   UNL     1      43.364 -19.651   2.417  1.00  0.00     0.007 A 
HETATM   19  C   UNL     1      44.186 -20.747   2.707  1.00  0.00    -0.062 A 
HETATM   20  C   UNL     1      44.493 -21.774   1.657  1.00  0.00     0.048 C 
HETATM   21  C   UNL     1      44.752 -20.859   3.985  1.00  0.00     0.007 A 
HETATM   22  C   UNL     1      44.472 -19.910   4.972  1.00  0.00     0.017 A 
ENDBRANCH   1  16
TORSDOF 4
ENDMDL
MODEL 4
REMARK VINA RESULT:      -7.4      2.544      3.448
REMARK  4 active torsions:
REMARK  status: ('A' for Active; 'I' for Inactive)
REMARK    1  A    between atoms: C_5  and  C_6 
REMARK       I    between atoms: C_6  and  N_7 
REMARK    2  A    between atoms: N_7  and  C_8 
REMARK    3  A    between atoms: C_8  and  N_9 
REMARK    4  A    between atoms: N_9  and  C_10 
ROOT
HETATM    1  C   UNL     1      43.259 -17.392   2.804  1.00  0.00     0.257 C 
HETATM    2  N   UNL     1      42.018 -17.092   3.354  1.00  0.00    -0.299 N 
HETATM    3  O   UNL     1      43.983 -16.625   2.181  1.00  0.00    -0.267 OA
HETATM    4  H   UNL     1      41.395 -17.878   3.470  1.00  0.00     0.171 HD
ENDROOT
BRANCH   2   5
HETATM    5  C   UNL     1      41.372 -15.895   3.314  1.00  0.00     0.180 C 
HETATM    6  S   UNL     1      40.176 -15.668   2.163  1.00  0.00    -0.040 SA
BRANCH   5   7
HETATM    7  N   UNL     1      41.697 -14.874   4.137  1.00  0.00    -0.318 N 
HETATM    8  H   UNL     1      41.003 -14.144   4.213  1.00  0.00     0.170 HD
BRANCH   7   9
HETATM    9  C   UNL     1      42.623 -14.924   5.194  1.00  0.00     0.129 A 
HETATM   10  N   UNL     1      42.613 -15.959   6.062  1.00  0.00    -0.236 NA
HETATM   11  C   UNL     1      43.454 -15.904   7.124  1.00  0.00     0.033 A 
HETATM   12  C   UNL     1      43.411 -17.046   8.093  1.00  0.00     0.070 C 
HETATM   13  C   UNL     1      44.294 -14.821   7.366  1.00  0.00     0.027 A 
HETATM   14  C   UNL     1      44.289 -13.762   6.469  1.00  0.00     0.006 A 
HETATM   15  C   UNL     1      43.439 -13.811   5.368  1.00  0.00     0.050 A 
ENDBRANCH   7   9
ENDBRANCH   5   7
ENDBRANCH   2   5
BRANCH   1  16
HETATM   16  C   UNL     1      43.608 -18.837   2.868  1.00  0.00     0.032 A 
HETATM   17  C   UNL     1      44.255 -19.320   4.010  1.00  0.00     0.017 A 
HETATM   18  C   UNL     1      44.670 -20.652   4.069  1.00  0.00     0.007 A 
HETATM   19  C   UNL     1      44.436 -21.515   2.991  1.00  0.00    -0.062 A 
HETATM   20  C   UNL     1      44.875 -22.949   3.048  1.00  0.00     0.048 C 
HETATM   21  C   UNL     1      43.753 -21.034   1.864  1.00  0.00     0.007 A 
HETATM   22  C   UNL     1      43.342 -19.700   1.799  1.00  0.00     0.017 A 
ENDBRANCH   1  16
TORSDOF 4
ENDMDL
MODEL 5
REMARK VINA RESULT:      -7.3      5.007      7.917
REMARK  4 active torsions:
REMARK  status: ('A' for Active; 'I' for Inactive)
REMARK    1  A    between atoms: C_5  and  C_6 
REMARK       I    between atoms: C_6  and  N_7 
REMARK    2  A    between atoms: N_7  and  C_8 
REMARK    3  A    between atoms: C_8  and  N_9 
REMARK    4  A    between atoms: N_9  and  C_10 
ROOT
HETATM    1  C   UNL     1      41.853 -16.630   1.711  1.00  0.00     0.257 C 
HETATM    2  N   UNL     1      41.759 -16.928   3.066  1.00  0.00    -0.299 N 
HETATM    3  O   UNL     1      42.793 -16.894   0.972  1.00  0.00    -0.267 OA
HETATM    4  H   UNL     1      41.151 -16.325   3.601  1.00  0.00     0.171 HD
ENDROOT
BRANCH   2   5
HETATM    5  C   UNL     1      42.682 -17.573   3.830  1.00  0.00     0.180 C 
HETATM    6  S   UNL     1      42.527 -17.513   5.496  1.00  0.00    -0.040 SA
BRANCH   5   7
HETATM    7  N   UNL     1      43.741 -18.215   3.288  1.00  0.00    -0.318 N 
HETATM    8  H   UNL     1      44.600 -17.682   3.262  1.00  0.00     0.170 HD
BRANCH   7   9
HETATM    9  C   UNL     1      43.903 -19.607   3.185  1.00  0.00     0.129 A 
HETATM   10  N   UNL     1      44.428 -20.311   4.210  1.00  0.00    -0.236 NA
HETATM   11  C   UNL     1      44.664 -21.633   4.017  1.00  0.00     0.033 A 
HETATM   12  C   UNL     1      45.274 -22.394   5.155  1.00  0.00     0.070 C 
HETATM   13  C   UNL     1      44.413 -22.275   2.809  1.00  0.00     0.027 A 
HETATM   14  C   UNL     1      43.879 -21.537   1.761  1.00  0.00     0.006 A 
HETATM   15  C   UNL     1      43.623 -20.183   1.950  1.00  0.00     0.050 A 
ENDBRANCH   7   9
ENDBRANCH   5   7
ENDBRANCH   2   5
BRANCH   1  16
HETATM   16  C   UNL     1      40.752 -15.763   1.212  1.00  0.00     0.032 A 
HETATM   17  C   UNL     1      40.908 -15.128  -0.025  1.00  0.00     0.017 A 
HETATM   18  C   UNL     1      39.931 -14.243  -0.486  1.00  0.00     0.007 A 
HETATM   19  C   UNL     1      38.787 -13.990   0.281  1.00  0.00    -0.062 A 
HETATM   20  C   UNL     1      37.730 -13.044  -0.209  1.00  0.00     0.048 C 
HETATM   21  C   UNL     1      38.619 -14.659   1.502  1.00  0.00     0.007 A 
HETATM   22  C   UNL     1      39.597 -15.541   1.970  1.00  0.00     0.017 A 
ENDBRANCH   1  16
TORSDOF 4
ENDMDL
MODEL 6
REMARK VINA RESULT:      -7.3      4.563      6.568
REMARK  4 active torsions:
REMARK  status: ('A' for Active; 'I' for Inactive)
REMARK    1  A    between atoms: C_5  and  C_6 
REMARK       I    between atoms: C_6  and  N_7 
REMARK    2  A    between atoms: N_7  and  C_8 
REMARK    3  A    between atoms: C_8  and  N_9 
REMARK    4  A    between atoms: N_9  and  C_10 
ROOT
HETATM    1  C   UNL     1      42.728 -16.467   3.256  1.00  0.00     0.257 C 
HETATM    2  N   UNL     1      41.411 -16.413   3.699  1.00  0.00    -0.299 N 
HETATM    3  O   UNL     1      43.413 -15.518   2.896  1.00  0.00    -0.267 OA
HETATM    4  H   UNL     1      40.877 -17.262   3.575  1.00  0.00     0.171 HD
ENDROOT
BRANCH   2   5
HETATM    5  C   UNL     1      40.633 -15.303   3.824  1.00  0.00     0.180 C 
HETATM    6  S   UNL     1      41.081 -14.131   4.933  1.00  0.00    -0.040 SA
BRANCH   5   7
HETATM    7  N   UNL     1      39.490 -15.143   3.120  1.00  0.00    -0.318 N 
HETATM    8  H   UNL     1      38.668 -14.947   3.673  1.00  0.00     0.170 HD
BRANCH   7   9
HETATM    9  C   UNL     1      39.395 -14.781   1.765  1.00  0.00     0.129 A 
HETATM   10  N   UNL     1      40.506 -14.691   1.002  1.00  0.00    -0.236 NA
HETATM   11  C   UNL     1      40.368 -14.233  -0.266  1.00  0.00     0.033 A 
HETATM   12  C   UNL     1      41.615 -14.111  -1.090  1.00  0.00     0.070 C 
HETATM   13  C   UNL     1      39.145 -13.831  -0.795  1.00  0.00     0.027 A 
HETATM   14  C   UNL     1      38.013 -13.923   0.002  1.00  0.00     0.006 A 
HETATM   15  C   UNL     1      38.139 -14.403   1.303  1.00  0.00     0.050 A 
ENDBRANCH   7   9
ENDBRANCH   5   7
ENDBRANCH   2   5
BRANCH   1  16
HETATM   16  C   UNL     1      43.239 -17.851   3.067  1.00  0.00     0.032 A 
HETATM   17  C   UNL     1      42.903 -18.535   1.893  1.00  0.00     0.017 A 
HETATM   18  C   UNL     1      43.297 -19.863   1.720  1.00  0.00     0.007 A 
HETATM   19  C   UNL     1      44.036 -20.518   2.714  1.00  0.00    -0.062 A 
HETATM   20  C   UNL     1      44.467 -21.944   2.533  1.00  0.00     0.048 C 
HETATM   21  C   UNL     1      44.401 -19.815   3.871  1.00  0.00     0.007 A 
HETATM   22  C   UNL     1      44.004 -18.487   4.051  1.00  0.00     0.017 A 
ENDBRANCH   1  16
TORSDOF 4
ENDMDL
MODEL 7
REMARK VINA RESULT:      -7.3      5.175      7.884
REMARK  4 active torsions:
REMARK  status: ('A' for Active; 'I' for Inactive)
REMARK    1  A    between atoms: C_5  and  C_6 
REMARK       I    between atoms: C_6  and  N_7 
REMARK    2  A    between atoms: N_7  and  C_8 
REMARK    3  A    between atoms: C_8  and  N_9 
REMARK    4  A    between atoms: N_9  and  C_10 
ROOT
HETATM    1  C   UNL     1      43.567 -17.446   1.949  1.00  0.00     0.257 C 
HETATM    2  N   UNL     1      42.214 -17.128   1.928  1.00  0.00    -0.299 N 
HETATM    3  O   UNL     1      44.450 -16.908   1.292  1.00  0.00    -0.267 OA
HETATM    4  H   UNL     1      41.589 -17.877   2.191  1.00  0.00     0.171 HD
ENDROOT
BRANCH   2   5
HETATM    5  C   UNL     1      41.610 -16.161   1.185  1.00  0.00     0.180 C 
HETATM    6  S   UNL     1      40.132 -15.563   1.696  1.00  0.00    -0.040 SA
BRANCH   5   7
HETATM    7  N   UNL     1      42.142 -15.706   0.029  1.00  0.00    -0.318 N 
HETATM    8  H   UNL     1      43.031 -16.113  -0.225  1.00  0.00     0.170 HD
BRANCH   7   9
HETATM    9  C   UNL     1      41.435 -15.114  -1.032  1.00  0.00     0.129 A 
HETATM   10  N   UNL     1      40.721 -15.877  -1.888  1.00  0.00    -0.236 NA
HETATM   11  C   UNL     1      40.149 -15.267  -2.955  1.00  0.00     0.033 A 
HETATM   12  C   UNL     1      39.385 -16.133  -3.911  1.00  0.00     0.070 C 
HETATM   13  C   UNL     1      40.293 -13.907  -3.214  1.00  0.00     0.027 A 
HETATM   14  C   UNL     1      41.035 -13.137  -2.329  1.00  0.00     0.006 A 
HETATM   15  C   UNL     1      41.617 -13.748  -1.224  1.00  0.00     0.050 A 
ENDBRANCH   7   9
ENDBRANCH   5   7
ENDBRANCH   2   5
BRANCH   1  16
HETATM   16  C   UNL     1      43.882 -18.669   2.735  1.00  0.00     0.032 A 
HETATM   17  C   UNL     1      44.100 -18.544   4.111  1.00  0.00     0.017 A 
HETATM   18  C   UNL     1      44.478 -19.658   4.863  1.00  0.00     0.007 A 
HETATM   19  C   UNL     1      44.634 -20.907   4.250  1.00  0.00    -0.062 A 
HETATM   20  C   UNL     1      45.036 -22.109   5.054  1.00  0.00     0.048 C 
HETATM   21  C   UNL     1      44.377 -21.033   2.877  1.00  0.00     0.007 A 
HETATM   22  C   UNL     1      44.005 -19.920   2.119  1.00  0.00     0.017 A 
ENDBRANCH   1  16
TORSDOF 4
ENDMDL
MODEL 8
REMARK VINA RESULT:      -7.1      5.158      7.119
REMARK  4 active torsions:
REMARK  status: ('A' for Active; 'I' for Inactive)
REMARK    1  A    between atoms: C_5  and  C_6 
REMARK       I    between atoms: C_6  and  N_7 
REMARK    2  A    between atoms: N_7  and  C_8 
REMARK    3  A    between atoms: C_8  and  N_9 
REMARK    4  A    between atoms: N_9  and  C_10 
ROOT
HETATM    1  C   UNL     1      43.103 -14.855   2.798  1.00  0.00     0.257 C 
HETATM    2  N   UNL     1      41.861 -14.544   2.254  1.00  0.00    -0.299 N 
HETATM    3  O   UNL     1      43.959 -14.057   3.157  1.00  0.00    -0.267 OA
HETATM    4  H   UNL     1      41.457 -15.256   1.662  1.00  0.00     0.171 HD
ENDROOT
BRANCH   2   5
HETATM    5  C   UNL     1      41.356 -13.302   2.022  1.00  0.00     0.180 C 
HETATM    6  S   UNL     1      39.944 -12.852   2.801  1.00  0.00    -0.040 SA
BRANCH   5   7
HETATM    7  N   UNL     1      41.930 -12.444   1.149  1.00  0.00    -0.318 N 
HETATM    8  H   UNL     1      42.656 -11.858   1.536  1.00  0.00     0.170 HD
BRANCH   7   9
HETATM    9  C   UNL     1      41.960 -12.581  -0.250  1.00  0.00     0.129 A 
HETATM   10  N   UNL     1      41.484 -13.700  -0.837  1.00  0.00    -0.236 NA
HETATM   11  C   UNL     1      41.637 -13.827  -2.178  1.00  0.00     0.033 A 
HETATM   12  C   UNL     1      41.130 -15.088  -2.810  1.00  0.00     0.070 C 
HETATM   13  C   UNL     1      42.284 -12.872  -2.957  1.00  0.00     0.027 A 
HETATM   14  C   UNL     1      42.773 -11.730  -2.339  1.00  0.00     0.006 A 
HETATM   15  C   UNL     1      42.613 -11.582  -0.965  1.00  0.00     0.050 A 
ENDBRANCH   7   9
ENDBRANCH   5   7
ENDBRANCH   2   5
BRANCH   1  16
HETATM   16  C   UNL     1      43.426 -16.306   2.759  1.00  0.00     0.032 A 
HETATM   17  C   UNL     1      43.688 -16.901   1.520  1.00  0.00     0.017 A 
HETATM   18  C   UNL     1      43.914 -18.277   1.439  1.00  0.00     0.007 A 
HETATM   19  C   UNL     1      43.888 -19.068   2.593  1.00  0.00    -0.062 A 
HETATM   20  C   UNL     1      44.135 -20.547   2.514  1.00  0.00     0.048 C 
HETATM   21  C   UNL     1      43.663 -18.460   3.837  1.00  0.00     0.007 A 
HETATM   22  C   UNL     1      43.429 -17.084   3.922  1.00  0.00     0.017 A 
ENDBRANCH   1  16
TORSDOF 4
ENDMDL
MODEL 9
REMARK VINA RESULT:      -7.0      4.377      5.140
REMARK  4 active torsions:
REMARK  status: ('A' for Active; 'I' for Inactive)
REMARK    1  A    between atoms: C_5  and  C_6 
REMARK       I    between atoms: C_6  and  N_7 
REMARK    2  A    between atoms: N_7  and  C_8 
REMARK    3  A    between atoms: C_8  and  N_9 
REMARK    4  A    between atoms: N_9  and  C_10 
ROOT
HETATM    1  C   UNL     1      42.994 -17.397   2.171  1.00  0.00     0.257 C 
HETATM    2  N   UNL     1      41.679 -17.315   1.728  1.00  0.00    -0.299 N 
HETATM    3  O   UNL     1      43.825 -16.496   2.153  1.00  0.00    -0.267 OA
HETATM    4  H   UNL     1      41.264 -18.190   1.440  1.00  0.00     0.171 HD
ENDROOT
BRANCH   2   5
HETATM    5  C   UNL     1      41.058 -16.226   1.197  1.00  0.00     0.180 C 
HETATM    6  S   UNL     1      41.441 -15.769  -0.367  1.00  0.00    -0.040 SA
BRANCH   5   7
HETATM    7  N   UNL     1      40.185 -15.480   1.908  1.00  0.00    -0.318 N 
HETATM    8  H   UNL     1      39.233 -15.493   1.570  1.00  0.00     0.170 HD
BRANCH   7   9
HETATM    9  C   UNL     1      40.333 -15.080   3.248  1.00  0.00     0.129 A 
HETATM   10  N   UNL     1      40.785 -15.953   4.174  1.00  0.00    -0.236 NA
HETATM   11  C   UNL     1      40.805 -15.549   5.469  1.00  0.00     0.033 A 
HETATM   12  C   UNL     1      41.282 -16.539   6.488  1.00  0.00     0.070 C 
HETATM   13  C   UNL     1      40.358 -14.296   5.875  1.00  0.00     0.027 A 
HETATM   14  C   UNL     1      39.891 -13.412   4.913  1.00  0.00     0.006 A 
HETATM   15  C   UNL     1      39.875 -13.809   3.579  1.00  0.00     0.050 A 
ENDBRANCH   7   9
ENDBRANCH   5   7
ENDBRANCH   2   5
BRANCH   1  16
HETATM   16  C   UNL     1      43.419 -18.775   2.533  1.00  0.00     0.032 A 
HETATM   17  C   UNL     1      44.031 -18.984   3.774  1.00  0.00     0.017 A 
HETATM   18  C   UNL     1      44.516 -20.249   4.111  1.00  0.00     0.007 A 
HETATM   19  C   UNL     1      44.387 -21.318   3.217  1.00  0.00    -0.062 A 
HETATM   20  C   UNL     1      44.901 -22.682   3.574  1.00  0.00     0.048 C 
HETATM   21  C   UNL     1      43.738 -21.112   1.991  1.00  0.00     0.007 A 
HETATM   22  C   UNL     1      43.257 -19.846   1.646  1.00  0.00     0.017 A 
ENDBRANCH   1  16
TORSDOF 4
ENDMDL
MODEL 10
REMARK VINA RESULT:      -7.0      4.239      6.157
REMARK  4 active torsions:
REMARK  status: ('A' for Active; 'I' for Inactive)
REMARK    1  A    between atoms: C_5  and  C_6 
REMARK       I    between atoms: C_6  and  N_7 
REMARK    2  A    between atoms: N_7  and  C_8 
REMARK    3  A    between atoms: C_8  and  N_9 
REMARK    4  A    between atoms: N_9  and  C_10 
ROOT
HETATM    1  C   UNL     1      43.158 -17.922   1.592  1.00  0.00     0.257 C 
HETATM    2  N   UNL     1      42.841 -19.056   2.331  1.00  0.00    -0.299 N 
HETATM    3  O   UNL     1      44.279 -17.575   1.238  1.00  0.00    -0.267 OA
HETATM    4  H   UNL     1      41.986 -18.998   2.866  1.00  0.00     0.171 HD
ENDROOT
BRANCH   2   5
HETATM    5  C   UNL     1      43.705 -19.998   2.799  1.00  0.00     0.180 C 
HETATM    6  S   UNL     1      43.955 -21.379   1.886  1.00  0.00    -0.040 SA
BRANCH   5   7
HETATM    7  N   UNL     1      44.324 -19.875   3.993  1.00  0.00    -0.318 N 
HETATM    8  H   UNL     1      45.273 -20.221   4.024  1.00  0.00     0.170 HD
BRANCH   7   9
HETATM    9  C   UNL     1      43.993 -18.962   5.010  1.00  0.00     0.129 A 
HETATM   10  N   UNL     1      42.724 -18.519   5.143  1.00  0.00    -0.236 NA
HETATM   11  C   UNL     1      42.482 -17.558   6.069  1.00  0.00     0.033 A 
HETATM   12  C   UNL     1      41.075 -17.057   6.183  1.00  0.00     0.070 C 
HETATM   13  C   UNL     1      43.484 -16.999   6.856  1.00  0.00     0.027 A 
HETATM   14  C   UNL     1      44.784 -17.460   6.704  1.00  0.00     0.006 A 
HETATM   15  C   UNL     1      45.045 -18.454   5.765  1.00  0.00     0.050 A 
ENDBRANCH   7   9
ENDBRANCH   5   7
ENDBRANCH   2   5
BRANCH   1  16
HETATM   16  C   UNL     1      42.009 -17.001   1.385  1.00  0.00     0.032 A 
HETATM   17  C   UNL     1      42.048 -16.112   0.306  1.00  0.00     0.017 A 
HETATM   18  C   UNL     1      41.024 -15.179   0.131  1.00  0.00     0.007 A 
HETATM   19  C   UNL     1      39.949 -15.130   1.027  1.00  0.00    -0.062 A 
HETATM   20  C   UNL     1      38.843 -14.133   0.843  1.00  0.00     0.048 C 
HETATM   21  C   UNL     1      39.897 -16.049   2.085  1.00  0.00     0.007 A 
HETATM   22  C   UNL     1      40.923 -16.981   2.268  1.00  0.00     0.017 A 
ENDBRANCH   1  16
TORSDOF 4
ENDMDL
