MODEL 1
REMARK VINA RESULT:      -7.8      0.000      0.000
REMARK  8 active torsions:
REMARK  status: ('A' for Active; 'I' for Inactive)
REMARK    1  A    between atoms: C_2  and  O_3 
REMARK    2  A    between atoms: O_3  and  C_4 
REMARK       I    between atoms: C_4  and  N_5 
REMARK    3  A    between atoms: C_8  and  N_9 
REMARK       I    between atoms: N_9  and  C_10 
REMARK    4  A    between atoms: C_10  and  C_11 
REMARK    5  A    between atoms: C_12  and  C_13 
REMARK    6  A    between atoms: N_18  and  C_19 
REMARK    7  A    between atoms: C_19  and  C_20 
REMARK    8  A    between atoms: C_20  and  O_21 
ROOT
HETATM    1  C   UNL     1      39.407 -13.249   0.417  1.00  0.00     0.139 C 
HETATM    2  C   UNL     1      40.227 -13.562  -0.852  1.00  0.00     0.145 C 
HETATM    3  N   UNL     1      40.773 -12.297  -1.363  1.00  0.00    -0.335 N 
HETATM    4  C   UNL     1      39.968 -11.161  -1.436  1.00  0.00     0.255 C 
HETATM    5  O   UNL     1      40.368 -10.079  -1.854  1.00  0.00    -0.267 OA
HETATM    6  C   UNL     1      38.584 -11.278  -0.881  1.00  0.00     0.039 A 
HETATM    7  C   UNL     1      38.284 -12.289   0.063  1.00  0.00    -0.027 A 
HETATM    8  C   UNL     1      37.621 -10.335  -1.248  1.00  0.00     0.017 A 
HETATM    9  C   UNL     1      36.347 -10.393  -0.687  1.00  0.00     0.001 A 
HETATM   10  C   UNL     1      36.047 -11.373   0.259  1.00  0.00     0.001 A 
HETATM   11  C   UNL     1      37.011 -12.310   0.645  1.00  0.00     0.009 A 
ENDROOT
BRANCH   1  12
HETATM   12  C   UNL     1      39.122 -14.544   1.159  1.00  0.00     0.229 C 
HETATM   13  N   UNL     1      40.280 -15.225   1.493  1.00  0.00    -0.356 N 
HETATM   14  H   UNL     1      41.166 -14.763   1.297  1.00  0.00     0.162 HD
HETATM   15  O   UNL     1      38.000 -14.961   1.411  1.00  0.00    -0.273 OA
BRANCH  13  16
HETATM   16  C   UNL     1      40.378 -16.559   2.081  1.00  0.00     0.087 C 
HETATM   17  C   UNL     1      41.058 -17.604   1.192  1.00  0.00     0.045 C 
HETATM   18  C   UNL     1      42.551 -17.787   1.443  1.00  0.00     0.130 C 
HETATM   19  N   UNL     1      42.864 -17.855   2.865  1.00  0.00    -0.328 N 
HETATM   20  C   UNL     1      43.941 -18.590   3.344  1.00  0.00     0.362 C 
HETATM   21  C   UNL     1      42.378 -16.752   3.677  1.00  0.00     0.130 C 
HETATM   22  O   UNL     1      44.394 -18.482   4.478  1.00  0.00    -0.238 OA
HETATM   23  C   UNL     1      40.875 -16.561   3.528  1.00  0.00     0.045 C 
BRANCH  20  24
HETATM   24  O   UNL     1      44.428 -19.466   2.422  1.00  0.00    -0.304 OA
BRANCH  24  25
HETATM   25  C   UNL     1      44.485 -20.840   2.828  1.00  0.00     0.176 C 
HETATM   26  C   UNL     1      43.985 -21.745   1.718  1.00  0.00     0.034 C 
ENDBRANCH  24  25
ENDBRANCH  20  24
ENDBRANCH  13  16
ENDBRANCH   1  12
BRANCH   2  27
HETATM   27  C   UNL     1      39.501 -14.291  -1.984  1.00  0.00     0.006 A 
HETATM   28  S   UNL     1      40.369 -15.456  -2.922  1.00  0.00    -0.104 SA
HETATM   29  C   UNL     1      39.012 -15.809  -3.891  1.00  0.00     0.050 A 
HETATM   30  C   UNL     1      37.902 -15.098  -3.502  1.00  0.00     0.008 A 
HETATM   31  C   UNL     1      38.181 -14.233  -2.402  1.00  0.00     0.017 A 
ENDBRANCH   2  27
BRANCH   3  32
HETATM   32  C   UNL     1      42.228 -12.153  -1.455  1.00  0.00     0.153 C 
BRANCH  32  33
HETATM   33  C   UNL     1      42.770 -12.670  -2.800  1.00  0.00     0.187 C 
BRANCH  33  34
HETATM   34  O   UNL     1      41.912 -12.325  -3.906  1.00  0.00    -0.394 OA
HETATM   35  C   UNL     1      42.364 -11.164  -4.597  1.00  0.00     0.201 C 
ENDBRANCH  33  34
ENDBRANCH  32  33
ENDBRANCH   3  32
TORSDOF 8
ENDMDL
MODEL 2
REMARK VINA RESULT:      -7.4      3.153      5.238
REMARK  8 active torsions:
REMARK  status: ('A' for Active; 'I' for Inactive)
REMARK    1  A    between atoms: C_2  and  O_3 
REMARK    2  A    between atoms: O_3  and  C_4 
REMARK       I    between atoms: C_4  and  N_5 
REMARK    3  A    between atoms: C_8  and  N_9 
REMARK       I    between atoms: N_9  and  C_10 
REMARK    4  A    between atoms: C_10  and  C_11 
REMARK    5  A    between atoms: C_12  and  C_13 
REMARK    6  A    between atoms: N_18  and  C_19 
REMARK    7  A    between atoms: C_19  and  C_20 
REMARK    8  A    between atoms: C_20  and  O_21 
ROOT
HETATM    1  C   UNL     1      39.939 -13.333   1.733  1.00  0.00     0.139 C 
HETATM    2  C   UNL     1      40.403 -12.703   3.062  1.00  0.00     0.145 C 
HETATM    3  N   UNL     1      40.419 -11.243   2.891  1.00  0.00    -0.335 N 
HETATM    4  C   UNL     1      40.959 -10.675   1.738  1.00  0.00     0.255 C 
HETATM    5  O   UNL     1      41.000  -9.465   1.540  1.00  0.00    -0.267 OA
HETATM    6  C   UNL     1      41.415 -11.620   0.671  1.00  0.00     0.039 A 
HETATM    7  C   UNL     1      40.903 -12.938   0.627  1.00  0.00    -0.027 A 
HETATM    8  C   UNL     1      42.288 -11.159  -0.318  1.00  0.00     0.017 A 
HETATM    9  C   UNL     1      42.667 -12.008  -1.355  1.00  0.00     0.001 A 
HETATM   10  C   UNL     1      42.154 -13.303  -1.418  1.00  0.00     0.001 A 
HETATM   11  C   UNL     1      41.265 -13.765  -0.441  1.00  0.00     0.009 A 
ENDROOT
BRANCH   1  12
HETATM   12  C   UNL     1      39.580 -14.791   1.972  1.00  0.00     0.229 C 
HETATM   13  N   UNL     1      40.656 -15.530   2.431  1.00  0.00    -0.356 N 
HETATM   14  H   UNL     1      41.515 -15.023   2.640  1.00  0.00     0.162 HD
HETATM   15  O   UNL     1      38.476 -15.272   1.758  1.00  0.00    -0.273 OA
BRANCH  13  16
HETATM   16  C   UNL     1      40.710 -16.977   2.630  1.00  0.00     0.087 C 
HETATM   17  C   UNL     1      41.503 -17.742   1.569  1.00  0.00     0.045 C 
HETATM   18  C   UNL     1      42.961 -18.011   1.926  1.00  0.00     0.130 C 
HETATM   19  N   UNL     1      43.113 -18.478   3.298  1.00  0.00    -0.328 N 
HETATM   20  C   UNL     1      44.141 -19.334   3.672  1.00  0.00     0.362 C 
HETATM   21  C   UNL     1      42.519 -17.637   4.325  1.00  0.00     0.130 C 
HETATM   22  O   UNL     1      44.461 -19.554   4.834  1.00  0.00    -0.238 OA
HETATM   23  C   UNL     1      41.040 -17.390   4.067  1.00  0.00     0.045 C 
BRANCH  20  24
HETATM   24  O   UNL     1      44.744 -19.925   2.603  1.00  0.00    -0.304 OA
BRANCH  24  25
HETATM   25  C   UNL     1      44.653 -21.355   2.541  1.00  0.00     0.176 C 
HETATM   26  C   UNL     1      43.518 -21.778   1.628  1.00  0.00     0.034 C 
ENDBRANCH  24  25
ENDBRANCH  20  24
ENDBRANCH  13  16
ENDBRANCH   1  12
BRANCH   2  27
HETATM   27  C   UNL     1      41.756 -13.160   3.612  1.00  0.00     0.006 A 
HETATM   28  S   UNL     1      41.959 -13.306   5.323  1.00  0.00    -0.104 SA
HETATM   29  C   UNL     1      43.576 -13.821   5.170  1.00  0.00     0.050 A 
HETATM   30  C   UNL     1      43.961 -13.925   3.855  1.00  0.00     0.008 A 
HETATM   31  C   UNL     1      42.914 -13.553   2.961  1.00  0.00     0.017 A 
ENDBRANCH   2  27
BRANCH   3  32
HETATM   32  C   UNL     1      39.560 -10.431   3.757  1.00  0.00     0.153 C 
BRANCH  32  33
HETATM   33  C   UNL     1      38.652 -11.302   4.643  1.00  0.00     0.187 C 
BRANCH  33  34
HETATM   34  O   UNL     1      38.960 -11.165   6.044  1.00  0.00    -0.394 OA
HETATM   35  C   UNL     1      39.634  -9.943   6.332  1.00  0.00     0.201 C 
ENDBRANCH  33  34
ENDBRANCH  32  33
ENDBRANCH   3  32
TORSDOF 8
ENDMDL
MODEL 3
REMARK VINA RESULT:      -7.0      2.034      3.789
REMARK  8 active torsions:
REMARK  status: ('A' for Active; 'I' for Inactive)
REMARK    1  A    between atoms: C_2  and  O_3 
REMARK    2  A    between atoms: O_3  and  C_4 
REMARK       I    between atoms: C_4  and  N_5 
REMARK    3  A    between atoms: C_8  and  N_9 
REMARK       I    between atoms: N_9  and  C_10 
REMARK    4  A    between atoms: C_10  and  C_11 
REMARK    5  A    between atoms: C_12  and  C_13 
REMARK    6  A    between atoms: N_18  and  C_19 
REMARK    7  A    between atoms: C_19  and  C_20 
REMARK    8  A    between atoms: C_20  and  O_21 
ROOT
HETATM    1  C   UNL     1      41.545 -13.751  -0.030  1.00  0.00     0.139 C 
HETATM    2  C   UNL     1      40.262 -14.239  -0.733  1.00  0.00     0.145 C 
HETATM    3  N   UNL     1      40.577 -14.457  -2.151  1.00  0.00    -0.335 N 
HETATM    4  C   UNL     1      41.327 -13.519  -2.859  1.00  0.00     0.255 C 
HETATM    5  O   UNL     1      41.621 -13.646  -4.043  1.00  0.00    -0.267 OA
HETATM    6  C   UNL     1      41.864 -12.359  -2.080  1.00  0.00     0.039 A 
HETATM    7  C   UNL     1      42.010 -12.457  -0.676  1.00  0.00    -0.027 A 
HETATM    8  C   UNL     1      42.287 -11.217  -2.765  1.00  0.00     0.017 A 
HETATM    9  C   UNL     1      42.851 -10.157  -2.059  1.00  0.00     0.001 A 
HETATM   10  C   UNL     1      43.017 -10.251  -0.677  1.00  0.00     0.001 A 
HETATM   11  C   UNL     1      42.613 -11.398   0.013  1.00  0.00     0.009 A 
ENDROOT
BRANCH   1  12
HETATM   12  C   UNL     1      41.357 -13.847   1.476  1.00  0.00     0.229 C 
HETATM   13  N   UNL     1      41.549 -15.134   1.949  1.00  0.00    -0.356 N 
HETATM   14  H   UNL     1      41.872 -15.833   1.282  1.00  0.00     0.162 HD
HETATM   15  O   UNL     1      41.042 -12.907   2.192  1.00  0.00    -0.273 OA
BRANCH  13  16
HETATM   16  C   UNL     1      41.314 -15.615   3.309  1.00  0.00     0.087 C 
HETATM   17  C   UNL     1      41.067 -17.122   3.422  1.00  0.00     0.045 C 
HETATM   18  C   UNL     1      42.306 -17.953   3.737  1.00  0.00     0.130 C 
HETATM   19  N   UNL     1      43.115 -17.357   4.792  1.00  0.00    -0.328 N 
HETATM   20  C   UNL     1      43.879 -18.130   5.657  1.00  0.00     0.362 C 
HETATM   21  C   UNL     1      43.512 -15.974   4.584  1.00  0.00     0.130 C 
HETATM   22  O   UNL     1      44.757 -17.680   6.384  1.00  0.00    -0.238 OA
HETATM   23  C   UNL     1      42.311 -15.073   4.336  1.00  0.00     0.045 C 
BRANCH  20  24
HETATM   24  O   UNL     1      43.532 -19.446   5.626  1.00  0.00    -0.304 OA
BRANCH  24  25
HETATM   25  C   UNL     1      44.607 -20.376   5.426  1.00  0.00     0.176 C 
HETATM   26  C   UNL     1      44.925 -20.512   3.949  1.00  0.00     0.034 C 
ENDBRANCH  24  25
ENDBRANCH  20  24
ENDBRANCH  13  16
ENDBRANCH   1  12
BRANCH   2  27
HETATM   27  C   UNL     1      39.028 -13.342  -0.623  1.00  0.00     0.006 A 
HETATM   28  S   UNL     1      37.886 -13.640   0.641  1.00  0.00    -0.104 SA
HETATM   29  C   UNL     1      36.887 -12.346   0.156  1.00  0.00     0.050 A 
HETATM   30  C   UNL     1      37.411 -11.666  -0.916  1.00  0.00     0.008 A 
HETATM   31  C   UNL     1      38.643 -12.232  -1.358  1.00  0.00     0.017 A 
ENDBRANCH   2  27
BRANCH   3  32
HETATM   32  C   UNL     1      40.407 -15.803  -2.704  1.00  0.00     0.153 C 
BRANCH  32  33
HETATM   33  C   UNL     1      39.293 -15.849  -3.766  1.00  0.00     0.187 C 
BRANCH  33  34
HETATM   34  O   UNL     1      38.007 -15.484  -3.227  1.00  0.00    -0.394 OA
HETATM   35  C   UNL     1      37.325 -14.542  -4.050  1.00  0.00     0.201 C 
ENDBRANCH  33  34
ENDBRANCH  32  33
ENDBRANCH   3  32
TORSDOF 8
ENDMDL
MODEL 4
REMARK VINA RESULT:      -6.8      2.723      4.697
REMARK  8 active torsions:
REMARK  status: ('A' for Active; 'I' for Inactive)
REMARK    1  A    between atoms: C_2  and  O_3 
REMARK    2  A    between atoms: O_3  and  C_4 
REMARK       I    between atoms: C_4  and  N_5 
REMARK    3  A    between atoms: C_8  and  N_9 
REMARK       I    between atoms: N_9  and  C_10 
REMARK    4  A    between atoms: C_10  and  C_11 
REMARK    5  A    between atoms: C_12  and  C_13 
REMARK    6  A    between atoms: N_18  and  C_19 
REMARK    7  A    between atoms: C_19  and  C_20 
REMARK    8  A    between atoms: C_20  and  O_21 
ROOT
HETATM    1  C   UNL     1      41.847 -12.953   0.260  1.00  0.00     0.139 C 
HETATM    2  C   UNL     1      40.639 -13.808  -0.175  1.00  0.00     0.145 C 
HETATM    3  N   UNL     1      40.997 -14.498  -1.422  1.00  0.00    -0.335 N 
HETATM    4  C   UNL     1      41.642 -13.809  -2.448  1.00  0.00     0.255 C 
HETATM    5  O   UNL     1      41.964 -14.330  -3.510  1.00  0.00    -0.267 OA
HETATM    6  C   UNL     1      42.030 -12.391  -2.168  1.00  0.00     0.039 A 
HETATM    7  C   UNL     1      42.167 -11.946  -0.832  1.00  0.00    -0.027 A 
HETATM    8  C   UNL     1      42.325 -11.542  -3.238  1.00  0.00     0.017 A 
HETATM    9  C   UNL     1      42.753 -10.240  -2.989  1.00  0.00     0.001 A 
HETATM   10  C   UNL     1      42.910  -9.797  -1.676  1.00  0.00     0.001 A 
HETATM   11  C   UNL     1      42.633 -10.647  -0.600  1.00  0.00     0.009 A 
ENDROOT
BRANCH   1  12
HETATM   12  C   UNL     1      41.651 -12.508   1.700  1.00  0.00     0.229 C 
HETATM   13  N   UNL     1      41.758 -13.558   2.595  1.00  0.00    -0.356 N 
HETATM   14  H   UNL     1      42.035 -14.463   2.221  1.00  0.00     0.162 HD
HETATM   15  O   UNL     1      41.397 -11.359   2.037  1.00  0.00    -0.273 OA
BRANCH  13  16
HETATM   16  C   UNL     1      41.490 -13.520   4.031  1.00  0.00     0.087 C 
HETATM   17  C   UNL     1      40.813 -14.774   4.591  1.00  0.00     0.045 C 
HETATM   18  C   UNL     1      41.767 -15.814   5.170  1.00  0.00     0.130 C 
HETATM   19  N   UNL     1      42.792 -15.211   6.012  1.00  0.00    -0.328 N 
HETATM   20  C   UNL     1      43.352 -15.890   7.086  1.00  0.00     0.362 C 
HETATM   21  C   UNL     1      43.567 -14.142   5.403  1.00  0.00     0.130 C 
HETATM   22  O   UNL     1      44.375 -15.537   7.662  1.00  0.00    -0.238 OA
HETATM   23  C   UNL     1      42.675 -13.032   4.867  1.00  0.00     0.045 C 
BRANCH  20  24
HETATM   24  O   UNL     1      42.627 -16.984   7.449  1.00  0.00    -0.304 OA
BRANCH  24  25
HETATM   25  C   UNL     1      43.370 -18.195   7.644  1.00  0.00     0.176 C 
HETATM   26  C   UNL     1      43.630 -18.880   6.315  1.00  0.00     0.034 C 
ENDBRANCH  24  25
ENDBRANCH  20  24
ENDBRANCH  13  16
ENDBRANCH   1  12
BRANCH   2  27
HETATM   27  C   UNL     1      39.307 -13.080  -0.366  1.00  0.00     0.006 A 
HETATM   28  S   UNL     1      38.173 -13.054   0.940  1.00  0.00    -0.104 SA
HETATM   29  C   UNL     1      37.046 -12.135   0.050  1.00  0.00     0.050 A 
HETATM   30  C   UNL     1      37.517 -11.811  -1.199  1.00  0.00     0.008 A 
HETATM   31  C   UNL     1      38.818 -12.347  -1.434  1.00  0.00     0.017 A 
ENDBRANCH   2  27
BRANCH   3  32
HETATM   32  C   UNL     1      40.992 -15.963  -1.434  1.00  0.00     0.153 C 
BRANCH  32  33
HETATM   33  C   UNL     1      41.187 -16.548  -0.024  1.00  0.00     0.187 C 
BRANCH  33  34
HETATM   34  O   UNL     1      42.578 -16.741   0.301  1.00  0.00    -0.394 OA
HETATM   35  C   UNL     1      42.796 -16.829   1.707  1.00  0.00     0.201 C 
ENDBRANCH  33  34
ENDBRANCH  32  33
ENDBRANCH   3  32
TORSDOF 8
ENDMDL
MODEL 5
REMARK VINA RESULT:      -6.8      1.747      2.036
REMARK  8 active torsions:
REMARK  status: ('A' for Active; 'I' for Inactive)
REMARK    1  A    between atoms: C_2  and  O_3 
REMARK    2  A    between atoms: O_3  and  C_4 
REMARK       I    between atoms: C_4  and  N_5 
REMARK    3  A    between atoms: C_8  and  N_9 
REMARK       I    between atoms: N_9  and  C_10 
REMARK    4  A    between atoms: C_10  and  C_11 
REMARK    5  A    between atoms: C_12  and  C_13 
REMARK    6  A    between atoms: N_18  and  C_19 
REMARK    7  A    between atoms: C_19  and  C_20 
REMARK    8  A    between atoms: C_20  and  O_21 
ROOT
HETATM    1  C   UNL     1      40.654 -13.357   1.530  1.00  0.00     0.139 C 
HETATM    2  C   UNL     1      40.807 -13.250  -0.001  1.00  0.00     0.145 C 
HETATM    3  N   UNL     1      41.581 -12.036  -0.295  1.00  0.00    -0.335 N 
HETATM    4  C   UNL     1      41.294 -10.841   0.362  1.00  0.00     0.255 C 
HETATM    5  O   UNL     1      41.904  -9.796   0.158  1.00  0.00    -0.267 OA
HETATM    6  C   UNL     1      40.248 -10.894   1.431  1.00  0.00     0.039 A 
HETATM    7  C   UNL     1      39.930 -12.127   2.049  1.00  0.00    -0.027 A 
HETATM    8  C   UNL     1      39.651  -9.705   1.858  1.00  0.00     0.017 A 
HETATM    9  C   UNL     1      38.725  -9.732   2.899  1.00  0.00     0.001 A 
HETATM   10  C   UNL     1      38.418 -10.939   3.528  1.00  0.00     0.001 A 
HETATM   11  C   UNL     1      39.026 -12.130   3.117  1.00  0.00     0.009 A 
ENDROOT
BRANCH   1  12
HETATM   12  C   UNL     1      40.173 -14.754   1.887  1.00  0.00     0.229 C 
HETATM   13  N   UNL     1      41.212 -15.593   2.247  1.00  0.00    -0.356 N 
HETATM   14  H   UNL     1      42.141 -15.181   2.321  1.00  0.00     0.162 HD
HETATM   15  O   UNL     1      39.005 -15.114   1.836  1.00  0.00    -0.273 OA
BRANCH  13  16
HETATM   16  C   UNL     1      41.133 -17.028   2.513  1.00  0.00     0.087 C 
HETATM   17  C   UNL     1      41.979 -17.901   1.582  1.00  0.00     0.045 C 
HETATM   18  C   UNL     1      43.364 -18.253   2.115  1.00  0.00     0.130 C 
HETATM   19  N   UNL     1      43.327 -18.660   3.514  1.00  0.00    -0.328 N 
HETATM   20  C   UNL     1      44.239 -19.566   4.040  1.00  0.00     0.362 C 
HETATM   21  C   UNL     1      42.689 -17.728   4.430  1.00  0.00     0.130 C 
HETATM   22  O   UNL     1      44.411 -19.748   5.240  1.00  0.00    -0.238 OA
HETATM   23  C   UNL     1      41.270 -17.390   3.994  1.00  0.00     0.045 C 
BRANCH  20  24
HETATM   24  O   UNL     1      44.911 -20.251   3.073  1.00  0.00    -0.304 OA
BRANCH  24  25
HETATM   25  C   UNL     1      44.546 -21.629   2.911  1.00  0.00     0.176 C 
HETATM   26  C   UNL     1      43.886 -21.851   1.564  1.00  0.00     0.034 C 
ENDBRANCH  24  25
ENDBRANCH  20  24
ENDBRANCH  13  16
ENDBRANCH   1  12
BRANCH   2  27
HETATM   27  C   UNL     1      39.520 -13.240  -0.827  1.00  0.00     0.006 A 
HETATM   28  S   UNL     1      39.439 -14.203  -2.262  1.00  0.00    -0.104 SA
HETATM   29  C   UNL     1      37.840 -13.717  -2.596  1.00  0.00     0.050 A 
HETATM   30  C   UNL     1      37.346 -12.873  -1.631  1.00  0.00     0.008 A 
HETATM   31  C   UNL     1      38.307 -12.607  -0.612  1.00  0.00     0.017 A 
ENDBRANCH   2  27
BRANCH   3  32
HETATM   32  C   UNL     1      42.856 -12.177  -1.003  1.00  0.00     0.153 C 
BRANCH  32  33
HETATM   33  C   UNL     1      42.668 -12.148  -2.531  1.00  0.00     0.187 C 
BRANCH  33  34
HETATM   34  O   UNL     1      41.567 -11.310  -2.932  1.00  0.00    -0.394 OA
HETATM   35  C   UNL     1      41.478 -11.176  -4.348  1.00  0.00     0.201 C 
ENDBRANCH  33  34
ENDBRANCH  32  33
ENDBRANCH   3  32
TORSDOF 8
ENDMDL
MODEL 6
REMARK VINA RESULT:      -6.8      2.424      4.665
REMARK  8 active torsions:
REMARK  status: ('A' for Active; 'I' for Inactive)
REMARK    1  A    between atoms: C_2  and  O_3 
REMARK    2  A    between atoms: O_3  and  C_4 
REMARK       I    between atoms: C_4  and  N_5 
REMARK    3  A    between atoms: C_8  and  N_9 
REMARK       I    between atoms: N_9  and  C_10 
REMARK    4  A    between atoms: C_10  and  C_11 
REMARK    5  A    between atoms: C_12  and  C_13 
REMARK    6  A    between atoms: N_18  and  C_19 
REMARK    7  A    between atoms: C_19  and  C_20 
REMARK    8  A    between atoms: C_20  and  O_21 
ROOT
HETATM    1  C   UNL     1      40.494 -13.248   0.090  1.00  0.00     0.139 C 
HETATM    2  C   UNL     1      40.208 -11.757  -0.183  1.00  0.00     0.145 C 
HETATM    3  N   UNL     1      38.820 -11.639  -0.648  1.00  0.00    -0.335 N 
HETATM    4  C   UNL     1      38.317 -12.528  -1.597  1.00  0.00     0.255 C 
HETATM    5  O   UNL     1      37.168 -12.479  -2.024  1.00  0.00    -0.267 OA
HETATM    6  C   UNL     1      39.221 -13.642  -2.023  1.00  0.00     0.039 A 
HETATM    7  C   UNL     1      40.294 -14.040  -1.191  1.00  0.00    -0.027 A 
HETATM    8  C   UNL     1      38.945 -14.326  -3.210  1.00  0.00     0.017 A 
HETATM    9  C   UNL     1      39.738 -15.408  -3.584  1.00  0.00     0.001 A 
HETATM   10  C   UNL     1      40.787 -15.821  -2.761  1.00  0.00     0.001 A 
HETATM   11  C   UNL     1      41.058 -15.151  -1.563  1.00  0.00     0.009 A 
ENDROOT
BRANCH   1  12
HETATM   12  C   UNL     1      41.780 -13.371   0.891  1.00  0.00     0.229 C 
HETATM   13  N   UNL     1      41.845 -14.554   1.606  1.00  0.00    -0.356 N 
HETATM   14  H   UNL     1      41.098 -15.231   1.456  1.00  0.00     0.162 HD
HETATM   15  O   UNL     1      42.652 -12.514   0.928  1.00  0.00    -0.273 OA
BRANCH  13  16
HETATM   16  C   UNL     1      42.862 -14.938   2.582  1.00  0.00     0.087 C 
HETATM   17  C   UNL     1      42.324 -15.248   3.981  1.00  0.00     0.045 C 
HETATM   18  C   UNL     1      42.040 -16.722   4.248  1.00  0.00     0.130 C 
HETATM   19  N   UNL     1      43.113 -17.584   3.771  1.00  0.00    -0.328 N 
HETATM   20  C   UNL     1      43.412 -18.794   4.385  1.00  0.00     0.362 C 
HETATM   21  C   UNL     1      43.490 -17.418   2.376  1.00  0.00     0.130 C 
HETATM   22  O   UNL     1      44.121 -19.660   3.885  1.00  0.00    -0.238 OA
HETATM   23  C   UNL     1      43.858 -15.976   2.059  1.00  0.00     0.045 C 
BRANCH  20  24
HETATM   24  O   UNL     1      42.847 -18.906   5.619  1.00  0.00    -0.304 OA
BRANCH  24  25
HETATM   25  C   UNL     1      43.735 -19.265   6.687  1.00  0.00     0.176 C 
HETATM   26  C   UNL     1      44.732 -18.151   6.948  1.00  0.00     0.034 C 
ENDBRANCH  24  25
ENDBRANCH  20  24
ENDBRANCH  13  16
ENDBRANCH   1  12
BRANCH   2  27
HETATM   27  C   UNL     1      41.133 -11.043  -1.170  1.00  0.00     0.006 A 
HETATM   28  S   UNL     1      41.487  -9.368  -0.925  1.00  0.00    -0.104 SA
HETATM   29  C   UNL     1      42.494  -9.296  -2.299  1.00  0.00     0.050 A 
HETATM   30  C   UNL     1      42.603 -10.515  -2.922  1.00  0.00     0.008 A 
HETATM   31  C   UNL     1      41.830 -11.520  -2.269  1.00  0.00     0.017 A 
ENDBRANCH   2  27
BRANCH   3  32
HETATM   32  C   UNL     1      37.888 -10.826   0.137  1.00  0.00     0.153 C 
BRANCH  32  33
HETATM   33  C   UNL     1      37.412 -11.561   1.403  1.00  0.00     0.187 C 
BRANCH  33  34
HETATM   34  O   UNL     1      37.962 -10.991   2.607  1.00  0.00    -0.394 OA
HETATM   35  C   UNL     1      38.830 -11.895   3.285  1.00  0.00     0.201 C 
ENDBRANCH  33  34
ENDBRANCH  32  33
ENDBRANCH   3  32
TORSDOF 8
ENDMDL
MODEL 7
REMARK VINA RESULT:      -6.6      2.510      4.623
REMARK  8 active torsions:
REMARK  status: ('A' for Active; 'I' for Inactive)
REMARK    1  A    between atoms: C_2  and  O_3 
REMARK    2  A    between atoms: O_3  and  C_4 
REMARK       I    between atoms: C_4  and  N_5 
REMARK    3  A    between atoms: C_8  and  N_9 
REMARK       I    between atoms: N_9  and  C_10 
REMARK    4  A    between atoms: C_10  and  C_11 
REMARK    5  A    between atoms: C_12  and  C_13 
REMARK    6  A    between atoms: N_18  and  C_19 
REMARK    7  A    between atoms: C_19  and  C_20 
REMARK    8  A    between atoms: C_20  and  O_21 
ROOT
HETATM    1  C   UNL     1      39.828 -14.302   0.101  1.00  0.00     0.139 C 
HETATM    2  C   UNL     1      40.243 -13.008   0.830  1.00  0.00     0.145 C 
HETATM    3  N   UNL     1      39.024 -12.244   1.126  1.00  0.00    -0.335 N 
HETATM    4  C   UNL     1      38.033 -12.093   0.157  1.00  0.00     0.255 C 
HETATM    5  O   UNL     1      36.996 -11.466   0.346  1.00  0.00    -0.267 OA
HETATM    6  C   UNL     1      38.236 -12.824  -1.133  1.00  0.00     0.039 A 
HETATM    7  C   UNL     1      39.100 -13.943  -1.183  1.00  0.00    -0.027 A 
HETATM    8  C   UNL     1      37.505 -12.434  -2.258  1.00  0.00     0.017 A 
HETATM    9  C   UNL     1      37.634 -13.148  -3.447  1.00  0.00     0.001 A 
HETATM   10  C   UNL     1      38.468 -14.264  -3.503  1.00  0.00     0.001 A 
HETATM   11  C   UNL     1      39.189 -14.671  -2.375  1.00  0.00     0.009 A 
ENDROOT
BRANCH   1  12
HETATM   12  C   UNL     1      41.003 -15.266   0.089  1.00  0.00     0.229 C 
HETATM   13  N   UNL     1      41.637 -15.339   1.317  1.00  0.00    -0.356 N 
HETATM   14  H   UNL     1      41.214 -14.830   2.091  1.00  0.00     0.162 HD
HETATM   15  O   UNL     1      41.372 -15.890  -0.897  1.00  0.00    -0.273 OA
BRANCH  13  16
HETATM   16  C   UNL     1      42.876 -16.050   1.627  1.00  0.00     0.087 C 
HETATM   17  C   UNL     1      43.665 -15.480   2.808  1.00  0.00     0.045 C 
HETATM   18  C   UNL     1      43.381 -16.144   4.151  1.00  0.00     0.130 C 
HETATM   19  N   UNL     1      43.345 -17.597   4.048  1.00  0.00    -0.328 N 
HETATM   20  C   UNL     1      43.713 -18.417   5.107  1.00  0.00     0.362 C 
HETATM   21  C   UNL     1      42.441 -18.142   3.048  1.00  0.00     0.130 C 
HETATM   22  O   UNL     1      43.468 -19.616   5.163  1.00  0.00    -0.238 OA
HETATM   23  C   UNL     1      42.720 -17.572   1.665  1.00  0.00     0.045 C 
BRANCH  20  24
HETATM   24  O   UNL     1      44.401 -17.746   6.073  1.00  0.00    -0.304 OA
BRANCH  24  25
HETATM   25  C   UNL     1      44.096 -18.106   7.427  1.00  0.00     0.176 C 
HETATM   26  C   UNL     1      43.349 -16.982   8.121  1.00  0.00     0.034 C 
ENDBRANCH  24  25
ENDBRANCH  20  24
ENDBRANCH  13  16
ENDBRANCH   1  12
BRANCH   2  27
HETATM   27  C   UNL     1      41.245 -12.100   0.114  1.00  0.00     0.006 A 
HETATM   28  S   UNL     1      41.392 -10.453   0.620  1.00  0.00    -0.104 SA
HETATM   29  C   UNL     1      42.599 -10.119  -0.537  1.00  0.00     0.050 A 
HETATM   30  C   UNL     1      42.926 -11.231  -1.275  1.00  0.00     0.008 A 
HETATM   31  C   UNL     1      42.155 -12.369  -0.896  1.00  0.00     0.017 A 
ENDBRANCH   2  27
BRANCH   3  32
HETATM   32  C   UNL     1      38.706 -11.953   2.527  1.00  0.00     0.153 C 
BRANCH  32  33
HETATM   33  C   UNL     1      39.865 -12.332   3.467  1.00  0.00     0.187 C 
BRANCH  33  34
HETATM   34  O   UNL     1      39.439 -13.189   4.544  1.00  0.00    -0.394 OA
HETATM   35  C   UNL     1      40.025 -14.485   4.468  1.00  0.00     0.201 C 
ENDBRANCH  33  34
ENDBRANCH  32  33
ENDBRANCH   3  32
TORSDOF 8
ENDMDL
MODEL 8
REMARK VINA RESULT:      -6.5      2.760      4.535
REMARK  8 active torsions:
REMARK  status: ('A' for Active; 'I' for Inactive)
REMARK    1  A    between atoms: C_2  and  O_3 
REMARK    2  A    between atoms: O_3  and  C_4 
REMARK       I    between atoms: C_4  and  N_5 
REMARK    3  A    between atoms: C_8  and  N_9 
REMARK       I    between atoms: N_9  and  C_10 
REMARK    4  A    between atoms: C_10  and  C_11 
REMARK    5  A    between atoms: C_12  and  C_13 
REMARK    6  A    between atoms: N_18  and  C_19 
REMARK    7  A    between atoms: C_19  and  C_20 
REMARK    8  A    between atoms: C_20  and  O_21 
ROOT
HETATM    1  C   UNL     1      39.113 -13.746  -0.977  1.00  0.00     0.139 C 
HETATM    2  C   UNL     1      39.639 -12.300  -0.871  1.00  0.00     0.145 C 
HETATM    3  N   UNL     1      38.480 -11.398  -0.828  1.00  0.00    -0.335 N 
HETATM    4  C   UNL     1      37.410 -11.583  -1.703  1.00  0.00     0.255 C 
HETATM    5  O   UNL     1      36.417 -10.863  -1.715  1.00  0.00    -0.267 OA
HETATM    6  C   UNL     1      37.468 -12.785  -2.593  1.00  0.00     0.039 A 
HETATM    7  C   UNL     1      38.283 -13.886  -2.241  1.00  0.00    -0.027 A 
HETATM    8  C   UNL     1      36.651 -12.832  -3.725  1.00  0.00     0.017 A 
HETATM    9  C   UNL     1      36.644 -13.973  -4.525  1.00  0.00     0.001 A 
HETATM   10  C   UNL     1      37.430 -15.072  -4.177  1.00  0.00     0.001 A 
HETATM   11  C   UNL     1      38.237 -15.038  -3.035  1.00  0.00     0.009 A 
ENDROOT
BRANCH   1  12
HETATM   12  C   UNL     1      40.248 -14.712  -0.676  1.00  0.00     0.229 C 
HETATM   13  N   UNL     1      40.202 -15.190   0.622  1.00  0.00    -0.356 N 
HETATM   14  H   UNL     1      39.397 -14.927   1.188  1.00  0.00     0.162 HD
HETATM   15  O   UNL     1      41.123 -15.016  -1.475  1.00  0.00    -0.273 OA
BRANCH  13  16
HETATM   16  C   UNL     1      41.203 -16.019   1.290  1.00  0.00     0.087 C 
HETATM   17  C   UNL     1      42.496 -15.289   1.662  1.00  0.00     0.045 C 
HETATM   18  C   UNL     1      42.538 -14.741   3.084  1.00  0.00     0.130 C 
HETATM   19  N   UNL     1      42.045 -15.705   4.060  1.00  0.00    -0.328 N 
HETATM   20  C   UNL     1      42.516 -15.733   5.366  1.00  0.00     0.362 C 
HETATM   21  C   UNL     1      40.723 -16.252   3.800  1.00  0.00     0.130 C 
HETATM   22  O   UNL     1      41.969 -16.342   6.279  1.00  0.00    -0.238 OA
HETATM   23  C   UNL     1      40.635 -16.883   2.418  1.00  0.00     0.045 C 
BRANCH  20  24
HETATM   24  O   UNL     1      43.670 -15.028   5.521  1.00  0.00    -0.304 OA
BRANCH  24  25
HETATM   25  C   UNL     1      44.386 -15.253   6.744  1.00  0.00     0.176 C 
HETATM   26  C   UNL     1      44.747 -13.934   7.401  1.00  0.00     0.034 C 
ENDBRANCH  24  25
ENDBRANCH  20  24
ENDBRANCH  13  16
ENDBRANCH   1  12
BRANCH   2  27
HETATM   27  C   UNL     1      40.603 -11.830  -1.963  1.00  0.00     0.006 A 
HETATM   28  S   UNL     1      41.897 -10.766  -1.536  1.00  0.00    -0.104 SA
HETATM   29  C   UNL     1      42.483 -10.705  -3.136  1.00  0.00     0.050 A 
HETATM   30  C   UNL     1      41.749 -11.499  -3.984  1.00  0.00     0.008 A 
HETATM   31  C   UNL     1      40.676 -12.151  -3.309  1.00  0.00     0.017 A 
ENDBRANCH   2  27
BRANCH   3  32
HETATM   32  C   UNL     1      38.303 -10.545   0.350  1.00  0.00     0.153 C 
BRANCH  32  33
HETATM   33  C   UNL     1      37.895 -11.360   1.591  1.00  0.00     0.187 C 
BRANCH  33  34
HETATM   34  O   UNL     1      38.894 -11.317   2.628  1.00  0.00    -0.394 OA
HETATM   35  C   UNL     1      39.377 -12.614   2.968  1.00  0.00     0.201 C 
ENDBRANCH  33  34
ENDBRANCH  32  33
ENDBRANCH   3  32
TORSDOF 8
ENDMDL
MODEL 9
REMARK VINA RESULT:      -6.3      4.028      8.729
REMARK  8 active torsions:
REMARK  status: ('A' for Active; 'I' for Inactive)
REMARK    1  A    between atoms: C_2  and  O_3 
REMARK    2  A    between atoms: O_3  and  C_4 
REMARK       I    between atoms: C_4  and  N_5 
REMARK    3  A    between atoms: C_8  and  N_9 
REMARK       I    between atoms: N_9  and  C_10 
REMARK    4  A    between atoms: C_10  and  C_11 
REMARK    5  A    between atoms: C_12  and  C_13 
REMARK    6  A    between atoms: N_18  and  C_19 
REMARK    7  A    between atoms: C_19  and  C_20 
REMARK    8  A    between atoms: C_20  and  O_21 
ROOT
HETATM    1  C   UNL     1      42.806 -13.906   3.674  1.00  0.00     0.139 C 
HETATM    2  C   UNL     1      42.872 -13.289   5.086  1.00  0.00     0.145 C 
HETATM    3  N   UNL     1      43.684 -14.175   5.931  1.00  0.00    -0.335 N 
HETATM    4  C   UNL     1      43.494 -15.556   5.890  1.00  0.00     0.255 C 
HETATM    5  O   UNL     1      44.141 -16.345   6.571  1.00  0.00    -0.267 OA
HETATM    6  C   UNL     1      42.513 -16.072   4.884  1.00  0.00     0.039 A 
HETATM    7  C   UNL     1      42.175 -15.285   3.758  1.00  0.00    -0.027 A 
HETATM    8  C   UNL     1      42.001 -17.363   5.035  1.00  0.00     0.017 A 
HETATM    9  C   UNL     1      41.139 -17.881   4.070  1.00  0.00     0.001 A 
HETATM   10  C   UNL     1      40.813 -17.121   2.947  1.00  0.00     0.001 A 
HETATM   11  C   UNL     1      41.337 -15.834   2.781  1.00  0.00     0.009 A 
ENDROOT
BRANCH   1  12
HETATM   12  C   UNL     1      42.280 -12.865   2.699  1.00  0.00     0.229 C 
HETATM   13  N   UNL     1      42.194 -13.351   1.406  1.00  0.00    -0.356 N 
HETATM   14  H   UNL     1      42.396 -14.339   1.264  1.00  0.00     0.162 HD
HETATM   15  O   UNL     1      41.991 -11.717   3.007  1.00  0.00    -0.273 OA
BRANCH  13  16
HETATM   16  C   UNL     1      41.866 -12.592   0.201  1.00  0.00     0.087 C 
HETATM   17  C   UNL     1      42.100 -13.341  -1.113  1.00  0.00     0.045 C 
HETATM   18  C   UNL     1      40.873 -14.053  -1.673  1.00  0.00     0.130 C 
HETATM   19  N   UNL     1      39.680 -13.218  -1.617  1.00  0.00    -0.328 N 
HETATM   20  C   UNL     1      38.656 -13.337  -2.549  1.00  0.00     0.362 C 
HETATM   21  C   UNL     1      39.353 -12.663  -0.314  1.00  0.00     0.130 C 
HETATM   22  O   UNL     1      37.541 -12.848  -2.407  1.00  0.00    -0.238 OA
HETATM   23  C   UNL     1      40.516 -11.875   0.272  1.00  0.00     0.045 C 
BRANCH  20  24
HETATM   24  O   UNL     1      39.033 -14.039  -3.653  1.00  0.00    -0.304 OA
BRANCH  24  25
HETATM   25  C   UNL     1      38.216 -15.169  -3.989  1.00  0.00     0.176 C 
HETATM   26  C   UNL     1      39.049 -16.436  -4.027  1.00  0.00     0.034 C 
ENDBRANCH  24  25
ENDBRANCH  20  24
ENDBRANCH  13  16
ENDBRANCH   1  12
BRANCH   2  27
HETATM   27  C   UNL     1      41.539 -13.009   5.783  1.00  0.00     0.006 A 
HETATM   28  S   UNL     1      41.348 -11.532   6.663  1.00  0.00    -0.104 SA
HETATM   29  C   UNL     1      39.745 -11.908   7.106  1.00  0.00     0.050 A 
HETATM   30  C   UNL     1      39.332 -13.107   6.576  1.00  0.00     0.008 A 
HETATM   31  C   UNL     1      40.358 -13.734   5.810  1.00  0.00     0.017 A 
ENDBRANCH   2  27
BRANCH   3  32
HETATM   32  C   UNL     1      44.905 -13.636   6.534  1.00  0.00     0.153 C 
BRANCH  32  33
HETATM   33  C   UNL     1      44.684 -13.217   7.999  1.00  0.00     0.187 C 
BRANCH  33  34
HETATM   34  O   UNL     1      45.576 -12.162   8.408  1.00  0.00    -0.394 OA
HETATM   35  C   UNL     1      45.468 -11.873   9.799  1.00  0.00     0.201 C 
ENDBRANCH  33  34
ENDBRANCH  32  33
ENDBRANCH   3  32
TORSDOF 8
ENDMDL
MODEL 10
REMARK VINA RESULT:      -6.3      2.156      3.897
REMARK  8 active torsions:
REMARK  status: ('A' for Active; 'I' for Inactive)
REMARK    1  A    between atoms: C_2  and  O_3 
REMARK    2  A    between atoms: O_3  and  C_4 
REMARK       I    between atoms: C_4  and  N_5 
REMARK    3  A    between atoms: C_8  and  N_9 
REMARK       I    between atoms: N_9  and  C_10 
REMARK    4  A    between atoms: C_10  and  C_11 
REMARK    5  A    between atoms: C_12  and  C_13 
REMARK    6  A    between atoms: N_18  and  C_19 
REMARK    7  A    between atoms: C_19  and  C_20 
REMARK    8  A    between atoms: C_20  and  O_21 
ROOT
HETATM    1  C   UNL     1      38.610 -13.260  -0.549  1.00  0.00     0.139 C 
HETATM    2  C   UNL     1      39.293 -11.877  -0.545  1.00  0.00     0.145 C 
HETATM    3  N   UNL     1      38.266 -10.863  -0.823  1.00  0.00    -0.335 N 
HETATM    4  C   UNL     1      37.332 -11.066  -1.838  1.00  0.00     0.255 C 
HETATM    5  O   UNL     1      36.454 -10.257  -2.116  1.00  0.00    -0.267 OA
HETATM    6  C   UNL     1      37.375 -12.388  -2.538  1.00  0.00     0.039 A 
HETATM    7  C   UNL     1      37.978 -13.502  -1.909  1.00  0.00    -0.027 A 
HETATM    8  C   UNL     1      36.747 -12.520  -3.779  1.00  0.00     0.017 A 
HETATM    9  C   UNL     1      36.720 -13.762  -4.411  1.00  0.00     0.001 A 
HETATM   10  C   UNL     1      37.295 -14.871  -3.791  1.00  0.00     0.001 A 
HETATM   11  C   UNL     1      37.910 -14.749  -2.541  1.00  0.00     0.009 A 
ENDROOT
BRANCH   1  12
HETATM   12  C   UNL     1      39.550 -14.282   0.068  1.00  0.00     0.229 C 
HETATM   13  N   UNL     1      39.292 -14.491   1.412  1.00  0.00    -0.356 N 
HETATM   14  H   UNL     1      38.477 -14.026   1.808  1.00  0.00     0.162 HD
HETATM   15  O   UNL     1      40.454 -14.841  -0.538  1.00  0.00    -0.273 OA
BRANCH  13  16
HETATM   16  C   UNL     1      40.081 -15.292   2.345  1.00  0.00     0.087 C 
HETATM   17  C   UNL     1      39.965 -16.805   2.150  1.00  0.00     0.045 C 
HETATM   18  C   UNL     1      41.051 -17.425   1.276  1.00  0.00     0.130 C 
HETATM   19  N   UNL     1      42.378 -16.924   1.610  1.00  0.00    -0.328 N 
HETATM   20  C   UNL     1      43.518 -17.699   1.446  1.00  0.00     0.362 C 
HETATM   21  C   UNL     1      42.531 -15.478   1.604  1.00  0.00     0.130 C 
HETATM   22  O   UNL     1      44.660 -17.253   1.470  1.00  0.00    -0.238 OA
HETATM   23  C   UNL     1      41.520 -14.799   2.518  1.00  0.00     0.045 C 
BRANCH  20  24
HETATM   24  O   UNL     1      43.232 -19.020   1.277  1.00  0.00    -0.304 OA
BRANCH  24  25
HETATM   25  C   UNL     1      43.768 -19.911   2.264  1.00  0.00     0.176 C 
HETATM   26  C   UNL     1      43.738 -21.343   1.763  1.00  0.00     0.034 C 
ENDBRANCH  24  25
ENDBRANCH  20  24
ENDBRANCH  13  16
ENDBRANCH   1  12
BRANCH   2  27
HETATM   27  C   UNL     1      40.468 -11.680  -1.505  1.00  0.00     0.006 A 
HETATM   28  S   UNL     1      41.834 -10.760  -0.978  1.00  0.00    -0.104 SA
HETATM   29  C   UNL     1      42.652 -10.974  -2.458  1.00  0.00     0.050 A 
HETATM   30  C   UNL     1      41.937 -11.757  -3.333  1.00  0.00     0.008 A 
HETATM   31  C   UNL     1      40.688 -12.169  -2.782  1.00  0.00     0.017 A 
ENDBRANCH   2  27
BRANCH   3  32
HETATM   32  C   UNL     1      38.017  -9.829   0.185  1.00  0.00     0.153 C 
BRANCH  32  33
HETATM   33  C   UNL     1      37.143 -10.353   1.339  1.00  0.00     0.187 C 
BRANCH  33  34
HETATM   34  O   UNL     1      37.776 -10.190   2.623  1.00  0.00    -0.394 OA
HETATM   35  C   UNL     1      38.414 -11.385   3.065  1.00  0.00     0.201 C 
ENDBRANCH  33  34
ENDBRANCH  32  33
ENDBRANCH   3  32
TORSDOF 8
ENDMDL
