MODEL 1
REMARK VINA RESULT:      -8.9      0.000      0.000
REMARK  6 active torsions:
REMARK  status: ('A' for Active; 'I' for Inactive)
REMARK    1  A    between atoms: C_2  and  O_3 
REMARK    2  A    between atoms: O_3  and  C_4 
REMARK    3  A    between atoms: C_7  and  N_8 
REMARK    4  A    between atoms: C_11  and  N_12 
REMARK    5  A    between atoms: C_16  and  O_17 
REMARK    6  A    between atoms: C_16  and  C_18 
ROOT
HETATM    1  N   UNL     1      41.311 -14.187   1.537  1.00  0.00    -0.251 N 
HETATM    2  C   UNL     1      41.060 -14.950   2.657  1.00  0.00     0.262 C 
HETATM    3  O   UNL     1      40.585 -16.072   2.747  1.00  0.00    -0.270 OA
HETATM    4  C   UNL     1      41.484 -14.138   3.867  1.00  0.00     0.289 C 
HETATM    5  C   UNL     1      42.596 -13.299   3.282  1.00  0.00     0.146 C 
HETATM    6  C   UNL     1      42.158 -13.147   1.855  1.00  0.00     0.233 C 
HETATM    7  O   UNL     1      42.563 -12.221   1.173  1.00  0.00    -0.273 OA
ENDROOT
BRANCH   4   8
HETATM    8  N   UNL     1      41.958 -14.898   5.141  1.00  0.00    -0.058 N 
HETATM    9  H   UNL     1      41.816 -14.277   5.952  1.00  0.00     0.281 HD
HETATM   10  C   UNL     1      41.135 -16.160   5.340  1.00  0.00     0.239 C 
HETATM   11  C   UNL     1      41.618 -16.955   6.539  1.00  0.00     0.071 C 
HETATM   12  C   UNL     1      43.103 -17.340   6.424  1.00  0.00     0.088 C 
HETATM   13  C   UNL     1      43.864 -16.009   6.327  1.00  0.00     0.071 C 
HETATM   14  C   UNL     1      43.453 -15.199   5.108  1.00  0.00     0.239 C 
BRANCH  12  15
HETATM   15  O   UNL     1      43.462 -17.928   7.676  1.00  0.00    -0.385 OA
HETATM   16  H   UNL     1      42.680 -18.341   8.085  1.00  0.00     0.211 HD
ENDBRANCH  12  15
BRANCH  12  17
HETATM   17  C   UNL     1      43.441 -18.347   5.318  1.00  0.00    -0.024 A 
HETATM   18  C   UNL     1      44.316 -19.426   5.560  1.00  0.00     0.011 A 
HETATM   19  C   UNL     1      44.636 -20.349   4.558  1.00  0.00     0.020 A 
HETATM   20  C   UNL     1      44.063 -20.229   3.298  1.00  0.00     0.011 A 
HETATM   21 BR   UNL     1      44.496 -21.470   1.944  1.00  0.00    -0.051 Br
HETATM   22  C   UNL     1      43.160 -19.206   3.041  1.00  0.00     0.020 A 
HETATM   23  C   UNL     1      42.842 -18.283   4.046  1.00  0.00     0.011 A 
ENDBRANCH  12  17
ENDBRANCH   4   8
BRANCH   1  24
HETATM   24  C   UNL     1      40.743 -14.423   0.244  1.00  0.00     0.045 A 
HETATM   25  C   UNL     1      39.587 -13.748  -0.182  1.00  0.00     0.033 A 
HETATM   26  C   UNL     1      39.085 -13.905  -1.481  1.00  0.00     0.039 A 
HETATM   27  C   UNL     1      39.728 -14.731  -2.396  1.00  0.00     0.068 A 
HETATM   28  C   UNL     1      40.840 -15.452  -1.983  1.00  0.00     0.039 A 
HETATM   29  C   UNL     1      41.340 -15.298  -0.679  1.00  0.00     0.033 A 
BRANCH  27  30
HETATM   30  O   UNL     1      39.176 -14.763  -3.643  1.00  0.00    -0.352 OA
BRANCH  30  31
HETATM   31  C   UNL     1      37.956 -15.496  -3.770  1.00  0.00     0.171 C 
HETATM   32  C   UNL     1      36.878 -14.534  -4.235  1.00  0.00     0.034 C 
ENDBRANCH  30  31
ENDBRANCH  27  30
ENDBRANCH   1  24
TORSDOF 6
ENDMDL
MODEL 2
REMARK VINA RESULT:      -8.7      3.454      9.310
REMARK  6 active torsions:
REMARK  status: ('A' for Active; 'I' for Inactive)
REMARK    1  A    between atoms: C_2  and  O_3 
REMARK    2  A    between atoms: O_3  and  C_4 
REMARK    3  A    between atoms: C_7  and  N_8 
REMARK    4  A    between atoms: C_11  and  N_12 
REMARK    5  A    between atoms: C_16  and  O_17 
REMARK    6  A    between atoms: C_16  and  C_18 
ROOT
HETATM    1  N   UNL     1      42.209 -16.396   2.188  1.00  0.00    -0.251 N 
HETATM    2  C   UNL     1      41.540 -16.772   1.042  1.00  0.00     0.262 C 
HETATM    3  O   UNL     1      40.966 -17.818   0.781  1.00  0.00    -0.270 OA
HETATM    4  C   UNL     1      41.624 -15.614   0.064  1.00  0.00     0.289 C 
HETATM    5  C   UNL     1      41.701 -14.437   1.008  1.00  0.00     0.146 C 
HETATM    6  C   UNL     1      42.401 -15.031   2.195  1.00  0.00     0.233 C 
HETATM    7  O   UNL     1      43.001 -14.322   2.985  1.00  0.00    -0.273 OA
ENDROOT
BRANCH   4   8
HETATM    8  N   UNL     1      40.477 -15.435  -0.973  1.00  0.00    -0.058 N 
HETATM    9  H   UNL     1      39.891 -16.283  -0.947  1.00  0.00     0.281 HD
HETATM   10  C   UNL     1      39.619 -14.235  -0.610  1.00  0.00     0.239 C 
HETATM   11  C   UNL     1      38.530 -13.998  -1.641  1.00  0.00     0.071 C 
HETATM   12  C   UNL     1      39.100 -13.795  -3.055  1.00  0.00     0.088 C 
HETATM   13  C   UNL     1      39.866 -15.088  -3.377  1.00  0.00     0.071 C 
HETATM   14  C   UNL     1      41.004 -15.341  -2.402  1.00  0.00     0.239 C 
BRANCH  12  15
HETATM   15  O   UNL     1      37.978 -13.753  -3.938  1.00  0.00    -0.385 OA
HETATM   16  H   UNL     1      37.354 -14.468  -3.715  1.00  0.00     0.211 HD
ENDBRANCH  12  15
BRANCH  12  17
HETATM   17  C   UNL     1      39.910 -12.509  -3.263  1.00  0.00    -0.024 A 
HETATM   18  C   UNL     1      39.443 -11.270  -2.781  1.00  0.00     0.011 A 
HETATM   19  C   UNL     1      40.171 -10.089  -2.967  1.00  0.00     0.020 A 
HETATM   20  C   UNL     1      41.398 -10.128  -3.617  1.00  0.00     0.011 A 
HETATM   21 BR   UNL     1      42.380  -8.537  -3.874  1.00  0.00    -0.051 Br
HETATM   22  C   UNL     1      41.910 -11.341  -4.062  1.00  0.00     0.020 A 
HETATM   23  C   UNL     1      41.179 -12.521  -3.874  1.00  0.00     0.011 A 
ENDBRANCH  12  17
ENDBRANCH   4   8
BRANCH   1  24
HETATM   24  C   UNL     1      42.666 -17.299   3.201  1.00  0.00     0.045 A 
HETATM   25  C   UNL     1      43.830 -18.066   3.025  1.00  0.00     0.033 A 
HETATM   26  C   UNL     1      44.331 -18.879   4.050  1.00  0.00     0.039 A 
HETATM   27  C   UNL     1      43.694 -18.940   5.284  1.00  0.00     0.068 A 
HETATM   28  C   UNL     1      42.512 -18.234   5.465  1.00  0.00     0.039 A 
HETATM   29  C   UNL     1      42.007 -17.425   4.434  1.00  0.00     0.033 A 
BRANCH  27  30
HETATM   30  O   UNL     1      44.305 -19.723   6.220  1.00  0.00    -0.352 OA
BRANCH  30  31
HETATM   31  C   UNL     1      43.801 -21.054   6.349  1.00  0.00     0.171 C 
HETATM   32  C   UNL     1      44.701 -21.975   5.545  1.00  0.00     0.034 C 
ENDBRANCH  30  31
ENDBRANCH  27  30
ENDBRANCH   1  24
TORSDOF 6
ENDMDL
MODEL 3
REMARK VINA RESULT:      -8.6      4.985      7.830
REMARK  6 active torsions:
REMARK  status: ('A' for Active; 'I' for Inactive)
REMARK    1  A    between atoms: C_2  and  O_3 
REMARK    2  A    between atoms: O_3  and  C_4 
REMARK    3  A    between atoms: C_7  and  N_8 
REMARK    4  A    between atoms: C_11  and  N_12 
REMARK    5  A    between atoms: C_16  and  O_17 
REMARK    6  A    between atoms: C_16  and  C_18 
ROOT
HETATM    1  N   UNL     1      42.954 -15.331   4.399  1.00  0.00    -0.251 N 
HETATM    2  C   UNL     1      42.036 -14.357   4.065  1.00  0.00     0.262 C 
HETATM    3  O   UNL     1      41.113 -14.396   3.265  1.00  0.00    -0.270 OA
HETATM    4  C   UNL     1      42.357 -13.125   4.891  1.00  0.00     0.289 C 
HETATM    5  C   UNL     1      42.961 -13.748   6.127  1.00  0.00     0.146 C 
HETATM    6  C   UNL     1      43.590 -14.994   5.575  1.00  0.00     0.233 C 
HETATM    7  O   UNL     1      44.503 -15.547   6.165  1.00  0.00    -0.273 OA
ENDROOT
BRANCH   4   8
HETATM    8  N   UNL     1      41.195 -12.154   5.255  1.00  0.00    -0.058 N 
HETATM    9  H   UNL     1      40.636 -11.995   4.404  1.00  0.00     0.281 HD
HETATM   10  C   UNL     1      40.304 -12.773   6.319  1.00  0.00     0.239 C 
HETATM   11  C   UNL     1      39.199 -11.822   6.740  1.00  0.00     0.071 C 
HETATM   12  C   UNL     1      39.749 -10.485   7.267  1.00  0.00     0.088 C 
HETATM   13  C   UNL     1      40.551  -9.886   6.101  1.00  0.00     0.071 C 
HETATM   14  C   UNL     1      41.706 -10.780   5.677  1.00  0.00     0.239 C 
BRANCH  12  15
HETATM   15  O   UNL     1      38.618  -9.636   7.465  1.00  0.00    -0.385 OA
HETATM   16  H   UNL     1      38.330  -9.679   8.396  1.00  0.00     0.211 HD
ENDBRANCH  12  15
BRANCH  12  17
HETATM   17  C   UNL     1      40.517 -10.562   8.592  1.00  0.00    -0.024 A 
HETATM   18  C   UNL     1      39.898 -11.041   9.764  1.00  0.00     0.011 A 
HETATM   19  C   UNL     1      40.586 -11.113  10.980  1.00  0.00     0.020 A 
HETATM   20  C   UNL     1      41.921 -10.733  11.043  1.00  0.00     0.011 A 
HETATM   21 BR   UNL     1      42.851 -10.825  12.683  1.00  0.00    -0.051 Br
HETATM   22  C   UNL     1      42.575 -10.303   9.896  1.00  0.00     0.020 A 
HETATM   23  C   UNL     1      41.883 -10.232   8.680  1.00  0.00     0.011 A 
ENDBRANCH  12  17
ENDBRANCH   4   8
BRANCH   1  24
HETATM   24  C   UNL     1      43.228 -16.498   3.618  1.00  0.00     0.045 A 
HETATM   25  C   UNL     1      42.826 -17.775   4.045  1.00  0.00     0.033 A 
HETATM   26  C   UNL     1      43.007 -18.906   3.238  1.00  0.00     0.039 A 
HETATM   27  C   UNL     1      43.583 -18.795   1.978  1.00  0.00     0.068 A 
HETATM   28  C   UNL     1      44.038 -17.554   1.555  1.00  0.00     0.039 A 
HETATM   29  C   UNL     1      43.862 -16.421   2.367  1.00  0.00     0.033 A 
BRANCH  27  30
HETATM   30  O   UNL     1      43.658 -19.957   1.265  1.00  0.00    -0.352 OA
BRANCH  30  31
HETATM   31  C   UNL     1      43.374 -21.156   1.989  1.00  0.00     0.171 C 
HETATM   32  C   UNL     1      44.627 -22.013   1.983  1.00  0.00     0.034 C 
ENDBRANCH  30  31
ENDBRANCH  27  30
ENDBRANCH   1  24
TORSDOF 6
ENDMDL
MODEL 4
REMARK VINA RESULT:      -8.5      3.397      4.633
REMARK  6 active torsions:
REMARK  status: ('A' for Active; 'I' for Inactive)
REMARK    1  A    between atoms: C_2  and  O_3 
REMARK    2  A    between atoms: O_3  and  C_4 
REMARK    3  A    between atoms: C_7  and  N_8 
REMARK    4  A    between atoms: C_11  and  N_12 
REMARK    5  A    between atoms: C_16  and  O_17 
REMARK    6  A    between atoms: C_16  and  C_18 
ROOT
HETATM    1  N   UNL     1      41.242 -12.995  -2.420  1.00  0.00    -0.251 N 
HETATM    2  C   UNL     1      41.272 -12.720  -1.069  1.00  0.00     0.262 C 
HETATM    3  O   UNL     1      41.017 -11.681  -0.478  1.00  0.00    -0.270 OA
HETATM    4  C   UNL     1      41.706 -13.987  -0.355  1.00  0.00     0.289 C 
HETATM    5  C   UNL     1      41.180 -15.048  -1.293  1.00  0.00     0.146 C 
HETATM    6  C   UNL     1      41.259 -14.358  -2.624  1.00  0.00     0.233 C 
HETATM    7  O   UNL     1      41.310 -15.002  -3.658  1.00  0.00    -0.273 OA
ENDROOT
BRANCH   4   8
HETATM    8  N   UNL     1      41.212 -14.223   1.102  1.00  0.00    -0.058 N 
HETATM    9  H   UNL     1      40.647 -13.407   1.382  1.00  0.00     0.281 HD
HETATM   10  C   UNL     1      40.342 -15.467   1.170  1.00  0.00     0.239 C 
HETATM   11  C   UNL     1      39.898 -15.758   2.592  1.00  0.00     0.071 C 
HETATM   12  C   UNL     1      41.088 -15.928   3.552  1.00  0.00     0.088 C 
HETATM   13  C   UNL     1      41.853 -14.597   3.495  1.00  0.00     0.071 C 
HETATM   14  C   UNL     1      42.366 -14.287   2.098  1.00  0.00     0.239 C 
BRANCH  12  15
HETATM   15  O   UNL     1      40.534 -16.027   4.865  1.00  0.00    -0.385 OA
HETATM   16  H   UNL     1      40.019 -15.224   5.068  1.00  0.00     0.211 HD
ENDBRANCH  12  15
BRANCH  12  17
HETATM   17  C   UNL     1      41.957 -17.169   3.314  1.00  0.00    -0.024 A 
HETATM   18  C   UNL     1      42.734 -17.722   4.352  1.00  0.00     0.011 A 
HETATM   19  C   UNL     1      43.534 -18.852   4.148  1.00  0.00     0.020 A 
HETATM   20  C   UNL     1      43.550 -19.472   2.904  1.00  0.00     0.011 A 
HETATM   21 BR   UNL     1      44.631 -20.993   2.623  1.00  0.00    -0.051 Br
HETATM   22  C   UNL     1      42.759 -18.981   1.873  1.00  0.00     0.020 A 
HETATM   23  C   UNL     1      41.960 -17.849   2.082  1.00  0.00     0.011 A 
ENDBRANCH  12  17
ENDBRANCH   4   8
BRANCH   1  24
HETATM   24  C   UNL     1      41.230 -12.006  -3.455  1.00  0.00     0.045 A 
HETATM   25  C   UNL     1      42.424 -11.493  -3.989  1.00  0.00     0.033 A 
HETATM   26  C   UNL     1      42.417 -10.596  -5.066  1.00  0.00     0.039 A 
HETATM   27  C   UNL     1      41.221 -10.196  -5.649  1.00  0.00     0.068 A 
HETATM   28  C   UNL     1      40.025 -10.645  -5.105  1.00  0.00     0.039 A 
HETATM   29  C   UNL     1      40.033 -11.539  -4.021  1.00  0.00     0.033 A 
BRANCH  27  30
HETATM   30  O   UNL     1      41.344  -9.363  -6.723  1.00  0.00    -0.352 OA
BRANCH  30  31
HETATM   31  C   UNL     1      40.624  -9.744  -7.898  1.00  0.00     0.171 C 
HETATM   32  C   UNL     1      41.606 -10.390  -8.859  1.00  0.00     0.034 C 
ENDBRANCH  30  31
ENDBRANCH  27  30
ENDBRANCH   1  24
TORSDOF 6
ENDMDL
MODEL 5
REMARK VINA RESULT:      -8.5      1.907      3.123
REMARK  6 active torsions:
REMARK  status: ('A' for Active; 'I' for Inactive)
REMARK    1  A    between atoms: C_2  and  O_3 
REMARK    2  A    between atoms: O_3  and  C_4 
REMARK    3  A    between atoms: C_7  and  N_8 
REMARK    4  A    between atoms: C_11  and  N_12 
REMARK    5  A    between atoms: C_16  and  O_17 
REMARK    6  A    between atoms: C_16  and  C_18 
ROOT
HETATM    1  N   UNL     1      40.063 -14.228  -1.223  1.00  0.00    -0.251 N 
HETATM    2  C   UNL     1      40.220 -13.797   0.077  1.00  0.00     0.262 C 
HETATM    3  O   UNL     1      39.494 -13.088   0.758  1.00  0.00    -0.270 OA
HETATM    4  C   UNL     1      41.529 -14.367   0.592  1.00  0.00     0.289 C 
HETATM    5  C   UNL     1      41.628 -15.645  -0.207  1.00  0.00     0.146 C 
HETATM    6  C   UNL     1      40.922 -15.275  -1.479  1.00  0.00     0.233 C 
HETATM    7  O   UNL     1      41.139 -15.885  -2.513  1.00  0.00    -0.273 OA
ENDROOT
BRANCH   4   8
HETATM    8  N   UNL     1      41.669 -14.641   2.119  1.00  0.00    -0.058 N 
HETATM    9  H   UNL     1      41.379 -13.789   2.622  1.00  0.00     0.281 HD
HETATM   10  C   UNL     1      40.764 -15.788   2.535  1.00  0.00     0.239 C 
HETATM   11  C   UNL     1      40.927 -16.119   4.007  1.00  0.00     0.071 C 
HETATM   12  C   UNL     1      42.380 -16.474   4.367  1.00  0.00     0.088 C 
HETATM   13  C   UNL     1      43.207 -15.231   4.006  1.00  0.00     0.071 C 
HETATM   14  C   UNL     1      43.118 -14.889   2.527  1.00  0.00     0.239 C 
BRANCH  12  15
HETATM   15  O   UNL     1      42.423 -16.597   5.789  1.00  0.00    -0.385 OA
HETATM   16  H   UNL     1      41.656 -16.142   6.184  1.00  0.00     0.211 HD
ENDBRANCH  12  15
BRANCH  12  17
HETATM   17  C   UNL     1      42.909 -17.783   3.767  1.00  0.00    -0.024 A 
HETATM   18  C   UNL     1      43.830 -18.585   4.470  1.00  0.00     0.011 A 
HETATM   19  C   UNL     1      44.323 -19.780   3.933  1.00  0.00     0.020 A 
HETATM   20  C   UNL     1      43.882 -20.212   2.689  1.00  0.00     0.011 A 
HETATM   21 BR   UNL     1      44.548 -21.820   1.958  1.00  0.00    -0.051 Br
HETATM   22  C   UNL     1      42.938 -19.470   1.990  1.00  0.00     0.020 A 
HETATM   23  C   UNL     1      42.447 -18.275   2.531  1.00  0.00     0.011 A 
ENDBRANCH  12  17
ENDBRANCH   4   8
BRANCH   1  24
HETATM   24  C   UNL     1      39.165 -13.646  -2.174  1.00  0.00     0.045 A 
HETATM   25  C   UNL     1      38.046 -14.350  -2.648  1.00  0.00     0.033 A 
HETATM   26  C   UNL     1      37.113 -13.749  -3.505  1.00  0.00     0.039 A 
HETATM   27  C   UNL     1      37.263 -12.426  -3.902  1.00  0.00     0.068 A 
HETATM   28  C   UNL     1      38.389 -11.725  -3.491  1.00  0.00     0.039 A 
HETATM   29  C   UNL     1      39.327 -12.330  -2.637  1.00  0.00     0.033 A 
BRANCH  27  30
HETATM   30  O   UNL     1      36.265 -11.935  -4.692  1.00  0.00    -0.352 OA
BRANCH  30  31
HETATM   31  C   UNL     1      35.343 -12.898  -5.207  1.00  0.00     0.171 C 
HETATM   32  C   UNL     1      33.944 -12.469  -4.802  1.00  0.00     0.034 C 
ENDBRANCH  30  31
ENDBRANCH  27  30
ENDBRANCH   1  24
TORSDOF 6
ENDMDL
MODEL 6
REMARK VINA RESULT:      -8.4      2.577      3.163
REMARK  6 active torsions:
REMARK  status: ('A' for Active; 'I' for Inactive)
REMARK    1  A    between atoms: C_2  and  O_3 
REMARK    2  A    between atoms: O_3  and  C_4 
REMARK    3  A    between atoms: C_7  and  N_8 
REMARK    4  A    between atoms: C_11  and  N_12 
REMARK    5  A    between atoms: C_16  and  O_17 
REMARK    6  A    between atoms: C_16  and  C_18 
ROOT
HETATM    1  N   UNL     1      40.369 -13.447   2.930  1.00  0.00    -0.251 N 
HETATM    2  C   UNL     1      40.398 -13.699   4.286  1.00  0.00     0.262 C 
HETATM    3  O   UNL     1      39.475 -13.798   5.081  1.00  0.00    -0.270 OA
HETATM    4  C   UNL     1      41.853 -13.844   4.692  1.00  0.00     0.289 C 
HETATM    5  C   UNL     1      42.462 -14.380   3.418  1.00  0.00     0.146 C 
HETATM    6  C   UNL     1      41.587 -13.760   2.367  1.00  0.00     0.233 C 
HETATM    7  O   UNL     1      41.989 -13.621   1.224  1.00  0.00    -0.273 OA
ENDROOT
BRANCH   4   8
HETATM    8  N   UNL     1      42.195 -14.753   5.910  1.00  0.00    -0.058 N 
HETATM    9  H   UNL     1      42.027 -14.208   6.769  1.00  0.00     0.281 HD
HETATM   10  C   UNL     1      41.297 -15.979   5.923  1.00  0.00     0.239 C 
HETATM   11  C   UNL     1      41.651 -16.915   7.064  1.00  0.00     0.071 C 
HETATM   12  C   UNL     1      43.119 -17.372   7.008  1.00  0.00     0.088 C 
HETATM   13  C   UNL     1      43.953 -16.084   7.098  1.00  0.00     0.071 C 
HETATM   14  C   UNL     1      43.672 -15.135   5.944  1.00  0.00     0.239 C 
BRANCH  12  15
HETATM   15  O   UNL     1      43.358 -18.100   8.214  1.00  0.00    -0.385 OA
HETATM   16  H   UNL     1      44.178 -18.620   8.130  1.00  0.00     0.211 HD
ENDBRANCH  12  15
BRANCH  12  17
HETATM   17  C   UNL     1      43.484 -18.283   5.829  1.00  0.00    -0.024 A 
HETATM   18  C   UNL     1      44.402 -19.341   5.985  1.00  0.00     0.011 A 
HETATM   19  C   UNL     1      44.746 -20.177   4.917  1.00  0.00     0.020 A 
HETATM   20  C   UNL     1      44.154 -19.989   3.673  1.00  0.00     0.011 A 
HETATM   21 BR   UNL     1      44.619 -21.111   2.229  1.00  0.00    -0.051 Br
HETATM   22  C   UNL     1      43.209 -18.986   3.499  1.00  0.00     0.020 A 
HETATM   23  C   UNL     1      42.868 -18.151   4.570  1.00  0.00     0.011 A 
ENDBRANCH  12  17
ENDBRANCH   4   8
BRANCH   1  24
HETATM   24  C   UNL     1      39.248 -12.905   2.224  1.00  0.00     0.045 A 
HETATM   25  C   UNL     1      38.491 -13.691   1.340  1.00  0.00     0.033 A 
HETATM   26  C   UNL     1      37.338 -13.191   0.721  1.00  0.00     0.039 A 
HETATM   27  C   UNL     1      36.900 -11.896   0.975  1.00  0.00     0.068 A 
HETATM   28  C   UNL     1      37.661 -11.080   1.802  1.00  0.00     0.039 A 
HETATM   29  C   UNL     1      38.820 -11.581   2.417  1.00  0.00     0.033 A 
BRANCH  27  30
HETATM   30  O   UNL     1      35.737 -11.540   0.356  1.00  0.00    -0.352 OA
BRANCH  30  31
HETATM   31  C   UNL     1      35.136 -10.323   0.803  1.00  0.00     0.171 C 
HETATM   32  C   UNL     1      33.707 -10.630   1.213  1.00  0.00     0.034 C 
ENDBRANCH  30  31
ENDBRANCH  27  30
ENDBRANCH   1  24
TORSDOF 6
ENDMDL
MODEL 7
REMARK VINA RESULT:      -8.0      3.187      8.772
REMARK  6 active torsions:
REMARK  status: ('A' for Active; 'I' for Inactive)
REMARK    1  A    between atoms: C_2  and  O_3 
REMARK    2  A    between atoms: O_3  and  C_4 
REMARK    3  A    between atoms: C_7  and  N_8 
REMARK    4  A    between atoms: C_11  and  N_12 
REMARK    5  A    between atoms: C_16  and  O_17 
REMARK    6  A    between atoms: C_16  and  C_18 
ROOT
HETATM    1  N   UNL     1      41.901 -16.305   2.651  1.00  0.00    -0.251 N 
HETATM    2  C   UNL     1      42.319 -14.995   2.552  1.00  0.00     0.262 C 
HETATM    3  O   UNL     1      43.444 -14.526   2.642  1.00  0.00    -0.270 OA
HETATM    4  C   UNL     1      41.090 -14.141   2.299  1.00  0.00     0.289 C 
HETATM    5  C   UNL     1      40.203 -15.116   1.561  1.00  0.00     0.146 C 
HETATM    6  C   UNL     1      40.624 -16.431   2.148  1.00  0.00     0.233 C 
HETATM    7  O   UNL     1      39.880 -17.397   2.114  1.00  0.00    -0.273 OA
ENDROOT
BRANCH   4   8
HETATM    8  N   UNL     1      41.261 -12.814   1.502  1.00  0.00    -0.058 N 
HETATM    9  H   UNL     1      41.900 -12.205   2.034  1.00  0.00     0.281 HD
HETATM   10  C   UNL     1      41.870 -13.092   0.137  1.00  0.00     0.239 C 
HETATM   11  C   UNL     1      41.988 -11.823  -0.687  1.00  0.00     0.071 C 
HETATM   12  C   UNL     1      40.631 -11.124  -0.878  1.00  0.00     0.088 C 
HETATM   13  C   UNL     1      40.137 -10.794   0.539  1.00  0.00     0.071 C 
HETATM   14  C   UNL     1      39.950 -12.041   1.388  1.00  0.00     0.239 C 
BRANCH  12  15
HETATM   15  O   UNL     1      40.910  -9.876  -1.516  1.00  0.00    -0.385 OA
HETATM   16  H   UNL     1      41.386  -9.289  -0.902  1.00  0.00     0.211 HD
ENDBRANCH  12  15
BRANCH  12  17
HETATM   17  C   UNL     1      39.615 -11.878  -1.745  1.00  0.00    -0.024 A 
HETATM   18  C   UNL     1      38.241 -11.568  -1.689  1.00  0.00     0.011 A 
HETATM   19  C   UNL     1      37.303 -12.251  -2.472  1.00  0.00     0.020 A 
HETATM   20  C   UNL     1      37.725 -13.241  -3.350  1.00  0.00     0.011 A 
HETATM   21 BR   UNL     1      36.462 -14.168  -4.404  1.00  0.00    -0.051 Br
HETATM   22  C   UNL     1      39.077 -13.538  -3.465  1.00  0.00     0.020 A 
HETATM   23  C   UNL     1      40.013 -12.852  -2.680  1.00  0.00     0.011 A 
ENDBRANCH  12  17
ENDBRANCH   4   8
BRANCH   1  24
HETATM   24  C   UNL     1      42.671 -17.367   3.227  1.00  0.00     0.045 A 
HETATM   25  C   UNL     1      43.265 -18.356   2.426  1.00  0.00     0.033 A 
HETATM   26  C   UNL     1      44.096 -19.341   2.977  1.00  0.00     0.039 A 
HETATM   27  C   UNL     1      44.369 -19.359   4.340  1.00  0.00     0.068 A 
HETATM   28  C   UNL     1      43.750 -18.425   5.161  1.00  0.00     0.039 A 
HETATM   29  C   UNL     1      42.912 -17.443   4.608  1.00  0.00     0.033 A 
BRANCH  27  30
HETATM   30  O   UNL     1      45.233 -20.332   4.751  1.00  0.00    -0.352 OA
BRANCH  30  31
HETATM   31  C   UNL     1      44.652 -21.425   5.464  1.00  0.00     0.171 C 
HETATM   32  C   UNL     1      44.720 -22.653   4.573  1.00  0.00     0.034 C 
ENDBRANCH  30  31
ENDBRANCH  27  30
ENDBRANCH   1  24
TORSDOF 6
ENDMDL
MODEL 8
REMARK VINA RESULT:      -8.0      2.702      7.572
REMARK  6 active torsions:
REMARK  status: ('A' for Active; 'I' for Inactive)
REMARK    1  A    between atoms: C_2  and  O_3 
REMARK    2  A    between atoms: O_3  and  C_4 
REMARK    3  A    between atoms: C_7  and  N_8 
REMARK    4  A    between atoms: C_11  and  N_12 
REMARK    5  A    between atoms: C_16  and  O_17 
REMARK    6  A    between atoms: C_16  and  C_18 
ROOT
HETATM    1  N   UNL     1      41.861 -16.240   4.681  1.00  0.00    -0.251 N 
HETATM    2  C   UNL     1      41.926 -15.053   3.981  1.00  0.00     0.262 C 
HETATM    3  O   UNL     1      42.388 -14.825   2.873  1.00  0.00    -0.270 OA
HETATM    4  C   UNL     1      41.298 -13.977   4.847  1.00  0.00     0.289 C 
HETATM    5  C   UNL     1      40.293 -14.785   5.636  1.00  0.00     0.146 C 
HETATM    6  C   UNL     1      40.964 -16.124   5.721  1.00  0.00     0.233 C 
HETATM    7  O   UNL     1      40.672 -16.914   6.603  1.00  0.00    -0.273 OA
ENDROOT
BRANCH   4   8
HETATM    8  N   UNL     1      40.623 -12.762   4.146  1.00  0.00    -0.058 N 
HETATM    9  H   UNL     1      40.375 -12.074   4.873  1.00  0.00     0.281 HD
HETATM   10  C   UNL     1      41.587 -12.114   3.166  1.00  0.00     0.239 C 
HETATM   11  C   UNL     1      40.934 -10.965   2.421  1.00  0.00     0.071 C 
HETATM   12  C   UNL     1      39.672 -11.406   1.661  1.00  0.00     0.088 C 
HETATM   13  C   UNL     1      38.718 -11.954   2.734  1.00  0.00     0.071 C 
HETATM   14  C   UNL     1      39.307 -13.144   3.474  1.00  0.00     0.239 C 
BRANCH  12  15
HETATM   15  O   UNL     1      39.073 -10.212   1.152  1.00  0.00    -0.385 OA
HETATM   16  H   UNL     1      38.307  -9.965   1.701  1.00  0.00     0.211 HD
ENDBRANCH  12  15
BRANCH  12  17
HETATM   17  C   UNL     1      39.908 -12.354   0.479  1.00  0.00    -0.024 A 
HETATM   18  C   UNL     1      41.212 -12.643   0.028  1.00  0.00     0.011 A 
HETATM   19  C   UNL     1      41.442 -13.503  -1.051  1.00  0.00     0.020 A 
HETATM   20  C   UNL     1      40.369 -14.117  -1.686  1.00  0.00     0.011 A 
HETATM   21 BR   UNL     1      40.675 -15.274  -3.145  1.00  0.00    -0.051 Br
HETATM   22  C   UNL     1      39.075 -13.892  -1.236  1.00  0.00     0.020 A 
HETATM   23  C   UNL     1      38.849 -13.030  -0.155  1.00  0.00     0.011 A 
ENDBRANCH  12  17
ENDBRANCH   4   8
BRANCH   1  24
HETATM   24  C   UNL     1      42.640 -17.405   4.387  1.00  0.00     0.045 A 
HETATM   25  C   UNL     1      42.443 -18.138   3.205  1.00  0.00     0.033 A 
HETATM   26  C   UNL     1      43.266 -19.221   2.870  1.00  0.00     0.039 A 
HETATM   27  C   UNL     1      44.318 -19.596   3.699  1.00  0.00     0.068 A 
HETATM   28  C   UNL     1      44.500 -18.923   4.900  1.00  0.00     0.039 A 
HETATM   29  C   UNL     1      43.670 -17.841   5.237  1.00  0.00     0.033 A 
BRANCH  27  30
HETATM   30  O   UNL     1      45.082 -20.631   3.242  1.00  0.00    -0.352 OA
BRANCH  30  31
HETATM   31  C   UNL     1      44.396 -21.864   3.015  1.00  0.00     0.171 C 
HETATM   32  C   UNL     1      44.339 -22.099   1.517  1.00  0.00     0.034 C 
ENDBRANCH  30  31
ENDBRANCH  27  30
ENDBRANCH   1  24
TORSDOF 6
ENDMDL
MODEL 9
REMARK VINA RESULT:      -7.9      5.313      8.801
REMARK  6 active torsions:
REMARK  status: ('A' for Active; 'I' for Inactive)
REMARK    1  A    between atoms: C_2  and  O_3 
REMARK    2  A    between atoms: O_3  and  C_4 
REMARK    3  A    between atoms: C_7  and  N_8 
REMARK    4  A    between atoms: C_11  and  N_12 
REMARK    5  A    between atoms: C_16  and  O_17 
REMARK    6  A    between atoms: C_16  and  C_18 
ROOT
HETATM    1  N   UNL     1      43.127 -16.216   5.641  1.00  0.00    -0.251 N 
HETATM    2  C   UNL     1      42.090 -15.654   4.925  1.00  0.00     0.262 C 
HETATM    3  O   UNL     1      41.084 -16.176   4.470  1.00  0.00    -0.270 OA
HETATM    4  C   UNL     1      42.397 -14.177   4.761  1.00  0.00     0.289 C 
HETATM    5  C   UNL     1      43.202 -13.904   6.010  1.00  0.00     0.146 C 
HETATM    6  C   UNL     1      43.869 -15.227   6.249  1.00  0.00     0.233 C 
HETATM    7  O   UNL     1      44.893 -15.299   6.907  1.00  0.00    -0.273 OA
ENDROOT
BRANCH   4   8
HETATM    8  N   UNL     1      41.205 -13.183   4.627  1.00  0.00    -0.058 N 
HETATM    9  H   UNL     1      40.757 -13.348   3.713  1.00  0.00     0.281 HD
HETATM   10  C   UNL     1      40.185 -13.430   5.725  1.00  0.00     0.239 C 
HETATM   11  C   UNL     1      39.043 -12.433   5.657  1.00  0.00     0.071 C 
HETATM   12  C   UNL     1      39.533 -10.978   5.748  1.00  0.00     0.088 C 
HETATM   13  C   UNL     1      40.477 -10.788   4.552  1.00  0.00     0.071 C 
HETATM   14  C   UNL     1      41.669 -11.730   4.604  1.00  0.00     0.239 C 
BRANCH  12  15
HETATM   15  O   UNL     1      38.391 -10.154   5.505  1.00  0.00    -0.385 OA
HETATM   16  H   UNL     1      38.676  -9.240   5.318  1.00  0.00     0.211 HD
ENDBRANCH  12  15
BRANCH  12  17
HETATM   17  C   UNL     1      40.130 -10.565   7.099  1.00  0.00    -0.024 A 
HETATM   18  C   UNL     1      41.516 -10.355   7.248  1.00  0.00     0.011 A 
HETATM   19  C   UNL     1      42.074  -9.981   8.475  1.00  0.00     0.020 A 
HETATM   20  C   UNL     1      41.252  -9.781   9.577  1.00  0.00     0.011 A 
HETATM   21 BR   UNL     1      42.001  -9.282  11.235  1.00  0.00    -0.051 Br
HETATM   22  C   UNL     1      39.876  -9.932   9.453  1.00  0.00     0.020 A 
HETATM   23  C   UNL     1      39.321 -10.307   8.222  1.00  0.00     0.011 A 
ENDBRANCH  12  17
ENDBRANCH   4   8
BRANCH   1  24
HETATM   24  C   UNL     1      43.407 -17.618   5.709  1.00  0.00     0.045 A 
HETATM   25  C   UNL     1      43.975 -18.304   4.622  1.00  0.00     0.033 A 
HETATM   26  C   UNL     1      44.338 -19.654   4.719  1.00  0.00     0.039 A 
HETATM   27  C   UNL     1      44.156 -20.355   5.905  1.00  0.00     0.068 A 
HETATM   28  C   UNL     1      43.546 -19.716   6.976  1.00  0.00     0.039 A 
HETATM   29  C   UNL     1      43.177 -18.364   6.876  1.00  0.00     0.033 A 
BRANCH  27  30
HETATM   30  O   UNL     1      44.596 -21.647   5.894  1.00  0.00    -0.352 OA
BRANCH  30  31
HETATM   31  C   UNL     1      45.408 -22.023   4.781  1.00  0.00     0.171 C 
HETATM   32  C   UNL     1      44.558 -22.862   3.843  1.00  0.00     0.034 C 
ENDBRANCH  30  31
ENDBRANCH  27  30
ENDBRANCH   1  24
TORSDOF 6
ENDMDL
MODEL 10
REMARK VINA RESULT:      -7.9      4.613      9.345
REMARK  6 active torsions:
REMARK  status: ('A' for Active; 'I' for Inactive)
REMARK    1  A    between atoms: C_2  and  O_3 
REMARK    2  A    between atoms: O_3  and  C_4 
REMARK    3  A    between atoms: C_7  and  N_8 
REMARK    4  A    between atoms: C_11  and  N_12 
REMARK    5  A    between atoms: C_16  and  O_17 
REMARK    6  A    between atoms: C_16  and  C_18 
ROOT
HETATM    1  N   UNL     1      41.963 -14.996   0.711  1.00  0.00    -0.251 N 
HETATM    2  C   UNL     1      42.166 -13.736   1.235  1.00  0.00     0.262 C 
HETATM    3  O   UNL     1      42.869 -13.384   2.170  1.00  0.00    -0.270 OA
HETATM    4  C   UNL     1      41.323 -12.765   0.429  1.00  0.00     0.289 C 
HETATM    5  C   UNL     1      41.292 -13.450  -0.917  1.00  0.00     0.146 C 
HETATM    6  C   UNL     1      41.379 -14.898  -0.534  1.00  0.00     0.233 C 
HETATM    7  O   UNL     1      40.982 -15.769  -1.290  1.00  0.00    -0.273 OA
ENDROOT
BRANCH   4   8
HETATM    8  N   UNL     1      41.809 -11.290   0.303  1.00  0.00    -0.058 N 
HETATM    9  H   UNL     1      42.125 -10.980   1.235  1.00  0.00     0.281 HD
HETATM   10  C   UNL     1      42.975 -11.199  -0.666  1.00  0.00     0.239 C 
HETATM   11  C   UNL     1      43.427  -9.763  -0.857  1.00  0.00     0.071 C 
HETATM   12  C   UNL     1      42.290  -8.855  -1.357  1.00  0.00     0.088 C 
HETATM   13  C   UNL     1      41.201  -8.930  -0.276  1.00  0.00     0.071 C 
HETATM   14  C   UNL     1      40.676 -10.344  -0.085  1.00  0.00     0.239 C 
BRANCH  12  15
HETATM   15  O   UNL     1      42.802  -7.521  -1.332  1.00  0.00    -0.385 OA
HETATM   16  H   UNL     1      42.926  -7.197  -2.243  1.00  0.00     0.211 HD
ENDBRANCH  12  15
BRANCH  12  17
HETATM   17  C   UNL     1      41.793  -9.141  -2.780  1.00  0.00    -0.024 A 
HETATM   18  C   UNL     1      40.546  -8.656  -3.225  1.00  0.00     0.011 A 
HETATM   19  C   UNL     1      40.079  -8.912  -4.519  1.00  0.00     0.020 A 
HETATM   20  C   UNL     1      40.865  -9.636  -5.407  1.00  0.00     0.011 A 
HETATM   21 BR   UNL     1      40.236  -9.988  -7.151  1.00  0.00    -0.051 Br
HETATM   22  C   UNL     1      42.119 -10.087  -5.015  1.00  0.00     0.020 A 
HETATM   23  C   UNL     1      42.584  -9.829  -3.719  1.00  0.00     0.011 A 
ENDBRANCH  12  17
ENDBRANCH   4   8
BRANCH   1  24
HETATM   24  C   UNL     1      42.280 -16.220   1.381  1.00  0.00     0.045 A 
HETATM   25  C   UNL     1      43.316 -17.054   0.929  1.00  0.00     0.033 A 
HETATM   26  C   UNL     1      43.691 -18.204   1.637  1.00  0.00     0.039 A 
HETATM   27  C   UNL     1      43.051 -18.548   2.823  1.00  0.00     0.068 A 
HETATM   28  C   UNL     1      41.988 -17.771   3.262  1.00  0.00     0.039 A 
HETATM   29  C   UNL     1      41.609 -16.621   2.548  1.00  0.00     0.033 A 
BRANCH  27  30
HETATM   30  O   UNL     1      43.539 -19.658   3.449  1.00  0.00    -0.352 OA
BRANCH  30  31
HETATM   31  C   UNL     1      44.682 -20.266   2.847  1.00  0.00     0.171 C 
HETATM   32  C   UNL     1      44.312 -21.690   2.472  1.00  0.00     0.034 C 
ENDBRANCH  30  31
ENDBRANCH  27  30
ENDBRANCH   1  24
TORSDOF 6
ENDMDL
