MODEL 1
REMARK VINA RESULT:      -8.4      0.000      0.000
REMARK  11 active torsions:
REMARK  status: ('A' for Active; 'I' for Inactive)
REMARK    1  A    between atoms: C_8  and  C_9 
REMARK    2  A    between atoms: C_9  and  C_10 
REMARK    3  A    between atoms: N_14  and  C_15 
REMARK    4  A    between atoms: C_15  and  C_16 
REMARK    5  A    between atoms: C_16  and  C_17 
REMARK    6  A    between atoms: C_20  and  O_21 
REMARK    7  A    between atoms: C_27  and  N_28 
REMARK    8  A    between atoms: N_28  and  C_29 
REMARK    9  A    between atoms: C_29  and  C_30 
REMARK   10  A    between atoms: C_30  and  O_31 
REMARK   11  A    between atoms: C_30  and  C_32 
ROOT
HETATM    1  C   UNL     1      43.797 -21.571   1.360  1.00  0.00     0.052 C 
HETATM    2  C   UNL     1      44.150 -21.401   2.804  1.00  0.00    -0.015 A 
HETATM    3  C   UNL     1      44.061 -20.016   3.387  1.00  0.00     0.144 A 
HETATM    4  N   UNL     1      43.729 -19.028   2.621  1.00  0.00    -0.217 NA
HETATM    5  N   UNL     1      44.339 -19.881   4.736  1.00  0.00    -0.272 N 
HETATM    6  C   UNL     1      44.198 -18.643   5.340  1.00  0.00     0.266 C 
HETATM    7  O   UNL     1      44.274 -18.459   6.558  1.00  0.00    -0.267 OA
HETATM    8  C   UNL     1      43.922 -17.488   4.429  1.00  0.00     0.074 C 
HETATM    9  C   UNL     1      43.680 -17.757   3.127  1.00  0.00     0.121 C 
HETATM   10  C   UNL     1      44.721 -20.971   5.507  1.00  0.00     0.102 A 
HETATM   11  C   UNL     1      44.839 -22.197   4.984  1.00  0.00     0.018 A 
HETATM   12  C   UNL     1      44.537 -22.415   3.596  1.00  0.00     0.012 A 
ENDROOT
BRANCH   8  13
HETATM   13  C   UNL     1      43.971 -16.144   4.989  1.00  0.00     0.045 C 
BRANCH  13  14
HETATM   14  C   UNL     1      42.954 -15.272   5.031  1.00  0.00     0.077 A 
HETATM   15  S   UNL     1      41.480 -15.424   5.891  1.00  0.00    -0.055 SA
HETATM   16  C   UNL     1      40.855 -13.909   5.261  1.00  0.00     0.148 A 
HETATM   17  S   UNL     1      39.314 -13.378   5.631  1.00  0.00    -0.052 SA
HETATM   18  N   UNL     1      41.808 -13.284   4.469  1.00  0.00    -0.298 N 
HETATM   19  C   UNL     1      42.986 -13.988   4.279  1.00  0.00     0.266 A 
HETATM   20  O   UNL     1      43.947 -13.653   3.600  1.00  0.00    -0.266 OA
BRANCH  18  21
HETATM   21  C   UNL     1      41.549 -11.960   3.875  1.00  0.00     0.138 C 
BRANCH  21  22
HETATM   22  C   UNL     1      40.461 -11.828   2.801  1.00  0.00     0.059 C 
BRANCH  22  23
HETATM   23  C   UNL     1      40.936 -11.549   1.387  1.00  0.00    -0.057 A 
HETATM   24  C   UNL     1      42.130 -12.041   0.848  1.00  0.00     0.010 A 
HETATM   25  C   UNL     1      42.471 -11.779  -0.483  1.00  0.00     0.037 A 
HETATM   26  C   UNL     1      41.632 -11.027  -1.304  1.00  0.00     0.068 A 
HETATM   27  C   UNL     1      40.449 -10.518  -0.775  1.00  0.00     0.037 A 
HETATM   28  C   UNL     1      40.105 -10.778   0.556  1.00  0.00     0.010 A 
BRANCH  26  29
HETATM   29  O   UNL     1      42.079 -10.863  -2.586  1.00  0.00    -0.356 OA
HETATM   30  C   UNL     1      42.338 -12.047  -3.329  1.00  0.00     0.210 C 
ENDBRANCH  26  29
ENDBRANCH  22  23
ENDBRANCH  21  22
ENDBRANCH  18  21
ENDBRANCH  13  14
ENDBRANCH   8  13
BRANCH   9  31
HETATM   31  N   UNL     1      43.424 -16.769   2.179  1.00  0.00    -0.274 NA
HETATM   32  H   UNL     1      44.218 -16.827   1.528  1.00  0.00     0.129 HD
BRANCH  31  33
HETATM   33  C   UNL     1      42.210 -16.789   1.343  1.00  0.00     0.130 C 
BRANCH  33  34
HETATM   34  C   UNL     1      41.043 -16.033   2.025  1.00  0.00     0.164 C 
BRANCH  34  35
HETATM   35  O   UNL     1      40.254 -16.950   2.798  1.00  0.00    -0.390 OA
HETATM   36  H   UNL     1      40.377 -16.712   3.733  1.00  0.00     0.210 HD
ENDBRANCH  34  35
BRANCH  34  37
HETATM   37  C   UNL     1      40.158 -15.251   1.074  1.00  0.00    -0.029 A 
HETATM   38  C   UNL     1      40.588 -14.994  -0.237  1.00  0.00     0.010 A 
HETATM   39  C   UNL     1      39.788 -14.264  -1.118  1.00  0.00     0.001 A 
HETATM   40  C   UNL     1      38.550 -13.780  -0.701  1.00  0.00     0.000 A 
HETATM   41  C   UNL     1      38.110 -14.026   0.597  1.00  0.00     0.001 A 
HETATM   42  C   UNL     1      38.908 -14.757   1.479  1.00  0.00     0.010 A 
ENDBRANCH  34  37
ENDBRANCH  33  34
ENDBRANCH  31  33
ENDBRANCH   9  31
TORSDOF 11
ENDMDL
MODEL 2
REMARK VINA RESULT:      -8.1      1.355      2.166
REMARK  11 active torsions:
REMARK  status: ('A' for Active; 'I' for Inactive)
REMARK    1  A    between atoms: C_8  and  C_9 
REMARK    2  A    between atoms: C_9  and  C_10 
REMARK    3  A    between atoms: N_14  and  C_15 
REMARK    4  A    between atoms: C_15  and  C_16 
REMARK    5  A    between atoms: C_16  and  C_17 
REMARK    6  A    between atoms: C_20  and  O_21 
REMARK    7  A    between atoms: C_27  and  N_28 
REMARK    8  A    between atoms: N_28  and  C_29 
REMARK    9  A    between atoms: C_29  and  C_30 
REMARK   10  A    between atoms: C_30  and  O_31 
REMARK   11  A    between atoms: C_30  and  C_32 
ROOT
HETATM    1  C   UNL     1      43.974 -21.843   1.350  1.00  0.00     0.052 C 
HETATM    2  C   UNL     1      44.239 -21.580   2.799  1.00  0.00    -0.015 A 
HETATM    3  C   UNL     1      44.131 -20.158   3.282  1.00  0.00     0.144 A 
HETATM    4  N   UNL     1      43.860 -19.220   2.432  1.00  0.00    -0.217 NA
HETATM    5  N   UNL     1      44.326 -19.935   4.633  1.00  0.00    -0.272 N 
HETATM    6  C   UNL     1      44.164 -18.658   5.143  1.00  0.00     0.266 C 
HETATM    7  O   UNL     1      44.167 -18.393   6.349  1.00  0.00    -0.267 OA
HETATM    8  C   UNL     1      43.960 -17.564   4.142  1.00  0.00     0.074 C 
HETATM    9  C   UNL     1      43.797 -17.918   2.848  1.00  0.00     0.121 C 
HETATM   10  C   UNL     1      44.645 -20.974   5.498  1.00  0.00     0.102 A 
HETATM   11  C   UNL     1      44.780 -22.233   5.066  1.00  0.00     0.018 A 
HETATM   12  C   UNL     1      44.562 -22.541   3.679  1.00  0.00     0.012 A 
ENDROOT
BRANCH   8  13
HETATM   13  C   UNL     1      43.992 -16.186   4.613  1.00  0.00     0.045 C 
BRANCH  13  14
HETATM   14  C   UNL     1      42.939 -15.363   4.707  1.00  0.00     0.077 A 
HETATM   15  S   UNL     1      41.677 -15.405   5.865  1.00  0.00    -0.055 SA
HETATM   16  C   UNL     1      40.826 -14.064   5.116  1.00  0.00     0.148 A 
HETATM   17  S   UNL     1      39.350 -13.533   5.694  1.00  0.00    -0.052 SA
HETATM   18  N   UNL     1      41.555 -13.565   4.046  1.00  0.00    -0.298 N 
HETATM   19  C   UNL     1      42.724 -14.246   3.746  1.00  0.00     0.266 A 
HETATM   20  O   UNL     1      43.505 -14.010   2.835  1.00  0.00    -0.266 OA
BRANCH  18  21
HETATM   21  C   UNL     1      41.084 -12.391   3.290  1.00  0.00     0.138 C 
BRANCH  21  22
HETATM   22  C   UNL     1      39.580 -12.228   3.034  1.00  0.00     0.059 C 
BRANCH  22  23
HETATM   23  C   UNL     1      39.092 -12.557   1.635  1.00  0.00    -0.057 A 
HETATM   24  C   UNL     1      38.461 -13.756   1.286  1.00  0.00     0.010 A 
HETATM   25  C   UNL     1      37.994 -13.962  -0.017  1.00  0.00     0.037 A 
HETATM   26  C   UNL     1      38.143 -12.980  -0.995  1.00  0.00     0.068 A 
HETATM   27  C   UNL     1      38.784 -11.790  -0.666  1.00  0.00     0.037 A 
HETATM   28  C   UNL     1      39.252 -11.581   0.637  1.00  0.00     0.010 A 
BRANCH  26  29
HETATM   29  O   UNL     1      37.625 -13.306  -2.219  1.00  0.00    -0.356 OA
HETATM   30  C   UNL     1      37.537 -12.259  -3.176  1.00  0.00     0.210 C 
ENDBRANCH  26  29
ENDBRANCH  22  23
ENDBRANCH  21  22
ENDBRANCH  18  21
ENDBRANCH  13  14
ENDBRANCH   8  13
BRANCH   9  31
HETATM   31  N   UNL     1      43.614 -16.994   1.822  1.00  0.00    -0.274 NA
HETATM   32  H   UNL     1      44.524 -16.955   1.346  1.00  0.00     0.129 HD
BRANCH  31  33
HETATM   33  C   UNL     1      42.609 -17.198   0.762  1.00  0.00     0.130 C 
BRANCH  33  34
HETATM   34  C   UNL     1      41.520 -16.097   0.798  1.00  0.00     0.164 C 
BRANCH  34  35
HETATM   35  O   UNL     1      40.230 -16.693   1.005  1.00  0.00    -0.390 OA
HETATM   36  H   UNL     1      39.944 -17.055   0.148  1.00  0.00     0.210 HD
ENDBRANCH  34  35
BRANCH  34  37
HETATM   37  C   UNL     1      41.493 -15.197  -0.422  1.00  0.00    -0.029 A 
HETATM   38  C   UNL     1      41.994 -13.889  -0.342  1.00  0.00     0.010 A 
HETATM   39  C   UNL     1      41.964 -13.046  -1.455  1.00  0.00     0.001 A 
HETATM   40  C   UNL     1      41.431 -13.498  -2.660  1.00  0.00     0.000 A 
HETATM   41  C   UNL     1      40.929 -14.793  -2.755  1.00  0.00     0.001 A 
HETATM   42  C   UNL     1      40.960 -15.638  -1.643  1.00  0.00     0.010 A 
ENDBRANCH  34  37
ENDBRANCH  33  34
ENDBRANCH  31  33
ENDBRANCH   9  31
TORSDOF 11
ENDMDL
MODEL 3
REMARK VINA RESULT:      -7.9      3.103      5.632
REMARK  11 active torsions:
REMARK  status: ('A' for Active; 'I' for Inactive)
REMARK    1  A    between atoms: C_8  and  C_9 
REMARK    2  A    between atoms: C_9  and  C_10 
REMARK    3  A    between atoms: N_14  and  C_15 
REMARK    4  A    between atoms: C_15  and  C_16 
REMARK    5  A    between atoms: C_16  and  C_17 
REMARK    6  A    between atoms: C_20  and  O_21 
REMARK    7  A    between atoms: C_27  and  N_28 
REMARK    8  A    between atoms: N_28  and  C_29 
REMARK    9  A    between atoms: C_29  and  C_30 
REMARK   10  A    between atoms: C_30  and  O_31 
REMARK   11  A    between atoms: C_30  and  C_32 
ROOT
HETATM    1  C   UNL     1      43.967 -19.539   7.148  1.00  0.00     0.052 C 
HETATM    2  C   UNL     1      44.116 -19.677   5.665  1.00  0.00    -0.015 A 
HETATM    3  C   UNL     1      43.905 -18.445   4.825  1.00  0.00     0.144 A 
HETATM    4  N   UNL     1      43.565 -17.337   5.400  1.00  0.00    -0.217 NA
HETATM    5  N   UNL     1      44.097 -18.574   3.461  1.00  0.00    -0.272 N 
HETATM    6  C   UNL     1      43.990 -17.457   2.650  1.00  0.00     0.266 C 
HETATM    7  O   UNL     1      44.291 -17.443   1.453  1.00  0.00    -0.267 OA
HETATM    8  C   UNL     1      43.491 -16.207   3.304  1.00  0.00     0.074 C 
HETATM    9  C   UNL     1      43.333 -16.219   4.647  1.00  0.00     0.121 C 
HETATM   10  C   UNL     1      44.431 -19.795   2.890  1.00  0.00     0.102 A 
HETATM   11  C   UNL     1      44.581 -20.900   3.629  1.00  0.00     0.018 A 
HETATM   12  C   UNL     1      44.426 -20.832   5.057  1.00  0.00     0.012 A 
ENDROOT
BRANCH   8  13
HETATM   13  C   UNL     1      43.167 -15.068   2.456  1.00  0.00     0.045 C 
BRANCH  13  14
HETATM   14  C   UNL     1      41.933 -14.640   2.152  1.00  0.00     0.077 A 
HETATM   15  S   UNL     1      40.475 -15.540   2.186  1.00  0.00    -0.055 SA
HETATM   16  C   UNL     1      39.527 -14.192   1.581  1.00  0.00     0.148 A 
HETATM   17  S   UNL     1      37.893 -14.346   1.263  1.00  0.00    -0.052 SA
HETATM   18  N   UNL     1      40.325 -13.066   1.436  1.00  0.00    -0.298 N 
HETATM   19  C   UNL     1      41.670 -13.243   1.712  1.00  0.00     0.266 A 
HETATM   20  O   UNL     1      42.560 -12.409   1.624  1.00  0.00    -0.266 OA
BRANCH  18  21
HETATM   21  C   UNL     1      39.748 -11.780   1.003  1.00  0.00     0.138 C 
BRANCH  21  22
HETATM   22  C   UNL     1      39.861 -11.374  -0.472  1.00  0.00     0.059 C 
BRANCH  22  23
HETATM   23  C   UNL     1      39.860 -12.503  -1.486  1.00  0.00    -0.057 A 
HETATM   24  C   UNL     1      38.702 -13.068  -2.031  1.00  0.00     0.010 A 
HETATM   25  C   UNL     1      38.789 -14.072  -3.001  1.00  0.00     0.037 A 
HETATM   26  C   UNL     1      40.027 -14.532  -3.449  1.00  0.00     0.068 A 
HETATM   27  C   UNL     1      41.186 -13.991  -2.902  1.00  0.00     0.037 A 
HETATM   28  C   UNL     1      41.103 -12.985  -1.932  1.00  0.00     0.010 A 
BRANCH  26  29
HETATM   29  O   UNL     1      39.965 -15.503  -4.411  1.00  0.00    -0.356 OA
HETATM   30  C   UNL     1      38.838 -16.370  -4.372  1.00  0.00     0.210 C 
ENDBRANCH  26  29
ENDBRANCH  22  23
ENDBRANCH  21  22
ENDBRANCH  18  21
ENDBRANCH  13  14
ENDBRANCH   8  13
BRANCH   9  31
HETATM   31  N   UNL     1      42.863 -15.125   5.370  1.00  0.00    -0.274 NA
HETATM   32  H   UNL     1      42.485 -15.532   6.235  1.00  0.00     0.129 HD
BRANCH  31  33
HETATM   33  C   UNL     1      43.755 -14.030   5.791  1.00  0.00     0.130 C 
BRANCH  33  34
HETATM   34  C   UNL     1      44.624 -14.446   7.005  1.00  0.00     0.164 C 
BRANCH  34  35
HETATM   35  O   UNL     1      43.882 -15.335   7.854  1.00  0.00    -0.390 OA
HETATM   36  H   UNL     1      44.350 -15.369   8.707  1.00  0.00     0.210 HD
ENDBRANCH  34  35
BRANCH  34  37
HETATM   37  C   UNL     1      45.175 -13.286   7.812  1.00  0.00    -0.029 A 
HETATM   38  C   UNL     1      44.446 -12.775   8.897  1.00  0.00     0.010 A 
HETATM   39  C   UNL     1      44.936 -11.700   9.641  1.00  0.00     0.001 A 
HETATM   40  C   UNL     1      46.158 -11.121   9.309  1.00  0.00     0.000 A 
HETATM   41  C   UNL     1      46.894 -11.616   8.236  1.00  0.00     0.001 A 
HETATM   42  C   UNL     1      46.405 -12.692   7.492  1.00  0.00     0.010 A 
ENDBRANCH  34  37
ENDBRANCH  33  34
ENDBRANCH  31  33
ENDBRANCH   9  31
TORSDOF 11
ENDMDL
MODEL 4
REMARK VINA RESULT:      -7.9      2.676      8.320
REMARK  11 active torsions:
REMARK  status: ('A' for Active; 'I' for Inactive)
REMARK    1  A    between atoms: C_8  and  C_9 
REMARK    2  A    between atoms: C_9  and  C_10 
REMARK    3  A    between atoms: N_14  and  C_15 
REMARK    4  A    between atoms: C_15  and  C_16 
REMARK    5  A    between atoms: C_16  and  C_17 
REMARK    6  A    between atoms: C_20  and  O_21 
REMARK    7  A    between atoms: C_27  and  N_28 
REMARK    8  A    between atoms: N_28  and  C_29 
REMARK    9  A    between atoms: C_29  and  C_30 
REMARK   10  A    between atoms: C_30  and  O_31 
REMARK   11  A    between atoms: C_30  and  C_32 
ROOT
HETATM    1  C   UNL     1      38.088 -15.586  -3.708  1.00  0.00     0.052 C 
HETATM    2  C   UNL     1      37.958 -14.125  -3.409  1.00  0.00    -0.015 A 
HETATM    3  C   UNL     1      38.987 -13.504  -2.502  1.00  0.00     0.144 A 
HETATM    4  N   UNL     1      39.908 -14.251  -1.984  1.00  0.00    -0.217 NA
HETATM    5  N   UNL     1      38.887 -12.142  -2.276  1.00  0.00    -0.272 N 
HETATM    6  C   UNL     1      39.850 -11.507  -1.510  1.00  0.00     0.266 C 
HETATM    7  O   UNL     1      39.929 -10.281  -1.382  1.00  0.00    -0.267 OA
HETATM    8  C   UNL     1      40.846 -12.391  -0.828  1.00  0.00     0.074 C 
HETATM    9  C   UNL     1      40.827 -13.708  -1.128  1.00  0.00     0.121 C 
HETATM   10  C   UNL     1      37.859 -11.392  -2.832  1.00  0.00     0.102 A 
HETATM   11  C   UNL     1      36.921 -11.947  -3.608  1.00  0.00     0.018 A 
HETATM   12  C   UNL     1      36.981 -13.351  -3.908  1.00  0.00     0.012 A 
ENDROOT
BRANCH   8  13
HETATM   13  C   UNL     1      41.745 -11.789   0.148  1.00  0.00     0.045 C 
BRANCH  13  14
HETATM   14  C   UNL     1      41.513 -11.670   1.462  1.00  0.00     0.077 A 
HETATM   15  S   UNL     1      40.563 -10.485   2.255  1.00  0.00    -0.055 SA
HETATM   16  C   UNL     1      40.947 -11.116   3.848  1.00  0.00     0.148 A 
HETATM   17  S   UNL     1      40.392 -10.375   5.239  1.00  0.00    -0.052 SA
HETATM   18  N   UNL     1      41.729 -12.258   3.740  1.00  0.00    -0.298 N 
HETATM   19  C   UNL     1      42.099 -12.614   2.454  1.00  0.00     0.266 A 
HETATM   20  O   UNL     1      42.806 -13.555   2.120  1.00  0.00    -0.266 OA
BRANCH  18  21
HETATM   21  C   UNL     1      42.131 -13.017   4.939  1.00  0.00     0.138 C 
BRANCH  21  22
HETATM   22  C   UNL     1      41.358 -14.290   5.305  1.00  0.00     0.059 C 
BRANCH  22  23
HETATM   23  C   UNL     1      42.147 -15.383   6.003  1.00  0.00    -0.057 A 
HETATM   24  C   UNL     1      41.568 -16.503   6.610  1.00  0.00     0.010 A 
HETATM   25  C   UNL     1      42.370 -17.493   7.188  1.00  0.00     0.037 A 
HETATM   26  C   UNL     1      43.761 -17.390   7.173  1.00  0.00     0.068 A 
HETATM   27  C   UNL     1      44.348 -16.272   6.587  1.00  0.00     0.037 A 
HETATM   28  C   UNL     1      43.548 -15.281   6.007  1.00  0.00     0.010 A 
BRANCH  26  29
HETATM   29  O   UNL     1      44.420 -18.435   7.757  1.00  0.00    -0.356 OA
HETATM   30  C   UNL     1      43.832 -19.722   7.616  1.00  0.00     0.210 C 
ENDBRANCH  26  29
ENDBRANCH  22  23
ENDBRANCH  21  22
ENDBRANCH  18  21
ENDBRANCH  13  14
ENDBRANCH   8  13
BRANCH   9  31
HETATM   31  N   UNL     1      41.691 -14.635  -0.549  1.00  0.00    -0.274 NA
HETATM   32  H   UNL     1      41.753 -14.348   0.436  1.00  0.00     0.129 HD
BRANCH  31  33
HETATM   33  C   UNL     1      41.388 -16.078  -0.534  1.00  0.00     0.130 C 
BRANCH  33  34
HETATM   34  C   UNL     1      40.952 -16.548   0.876  1.00  0.00     0.164 C 
BRANCH  34  35
HETATM   35  O   UNL     1      40.469 -15.430   1.636  1.00  0.00    -0.390 OA
HETATM   36  H   UNL     1      41.042 -14.674   1.423  1.00  0.00     0.210 HD
ENDBRANCH  34  35
BRANCH  34  37
HETATM   37  C   UNL     1      42.024 -17.288   1.653  1.00  0.00    -0.029 A 
HETATM   38  C   UNL     1      41.802 -17.645   2.991  1.00  0.00     0.010 A 
HETATM   39  C   UNL     1      42.785 -18.316   3.722  1.00  0.00     0.001 A 
HETATM   40  C   UNL     1      44.003 -18.634   3.126  1.00  0.00     0.000 A 
HETATM   41  C   UNL     1      44.239 -18.286   1.798  1.00  0.00     0.001 A 
HETATM   42  C   UNL     1      43.256 -17.617   1.066  1.00  0.00     0.010 A 
ENDBRANCH  34  37
ENDBRANCH  33  34
ENDBRANCH  31  33
ENDBRANCH   9  31
TORSDOF 11
ENDMDL
MODEL 5
REMARK VINA RESULT:      -7.9      3.215      9.167
REMARK  11 active torsions:
REMARK  status: ('A' for Active; 'I' for Inactive)
REMARK    1  A    between atoms: C_8  and  C_9 
REMARK    2  A    between atoms: C_9  and  C_10 
REMARK    3  A    between atoms: N_14  and  C_15 
REMARK    4  A    between atoms: C_15  and  C_16 
REMARK    5  A    between atoms: C_16  and  C_17 
REMARK    6  A    between atoms: C_20  and  O_21 
REMARK    7  A    between atoms: C_27  and  N_28 
REMARK    8  A    between atoms: N_28  and  C_29 
REMARK    9  A    between atoms: C_29  and  C_30 
REMARK   10  A    between atoms: C_30  and  O_31 
REMARK   11  A    between atoms: C_30  and  C_32 
ROOT
HETATM    1  C   UNL     1      37.614 -11.284  -4.623  1.00  0.00     0.052 C 
HETATM    2  C   UNL     1      37.007 -10.966  -3.292  1.00  0.00    -0.015 A 
HETATM    3  C   UNL     1      37.393 -11.835  -2.125  1.00  0.00     0.144 A 
HETATM    4  N   UNL     1      38.188 -12.837  -2.317  1.00  0.00    -0.217 NA
HETATM    5  N   UNL     1      36.867 -11.499  -0.890  1.00  0.00    -0.272 N 
HETATM    6  C   UNL     1      37.247 -12.218   0.231  1.00  0.00     0.266 C 
HETATM    7  O   UNL     1      36.953 -11.899   1.386  1.00  0.00    -0.267 OA
HETATM    8  C   UNL     1      38.077 -13.439  -0.014  1.00  0.00     0.074 C 
HETATM    9  C   UNL     1      38.517 -13.659  -1.273  1.00  0.00     0.121 C 
HETATM   10  C   UNL     1      35.992 -10.430  -0.744  1.00  0.00     0.102 A 
HETATM   11  C   UNL     1      35.617  -9.679  -1.786  1.00  0.00     0.018 A 
HETATM   12  C   UNL     1      36.149  -9.954  -3.093  1.00  0.00     0.012 A 
ENDROOT
BRANCH   8  13
HETATM   13  C   UNL     1      38.327 -14.337   1.105  1.00  0.00     0.045 C 
BRANCH  13  14
HETATM   14  C   UNL     1      39.397 -14.311   1.911  1.00  0.00     0.077 A 
HETATM   15  S   UNL     1      40.101 -12.946   2.672  1.00  0.00    -0.055 SA
HETATM   16  C   UNL     1      41.398 -13.898   3.375  1.00  0.00     0.148 A 
HETATM   17  S   UNL     1      42.618 -13.188   4.271  1.00  0.00    -0.052 SA
HETATM   18  N   UNL     1      41.227 -15.243   3.078  1.00  0.00    -0.298 N 
HETATM   19  C   UNL     1      40.155 -15.545   2.255  1.00  0.00     0.266 A 
HETATM   20  O   UNL     1      39.829 -16.647   1.837  1.00  0.00    -0.266 OA
BRANCH  18  21
HETATM   21  C   UNL     1      42.151 -16.260   3.612  1.00  0.00     0.138 C 
BRANCH  21  22
HETATM   22  C   UNL     1      43.242 -16.826   2.694  1.00  0.00     0.059 C 
BRANCH  22  23
HETATM   23  C   UNL     1      43.677 -18.256   2.962  1.00  0.00    -0.057 A 
HETATM   24  C   UNL     1      44.174 -18.708   4.189  1.00  0.00     0.010 A 
HETATM   25  C   UNL     1      44.506 -20.055   4.370  1.00  0.00     0.037 A 
HETATM   26  C   UNL     1      44.349 -20.978   3.336  1.00  0.00     0.068 A 
HETATM   27  C   UNL     1      43.872 -20.537   2.105  1.00  0.00     0.037 A 
HETATM   28  C   UNL     1      43.538 -19.190   1.921  1.00  0.00     0.010 A 
BRANCH  26  29
HETATM   29  O   UNL     1      44.695 -22.262   3.655  1.00  0.00    -0.356 OA
HETATM   30  C   UNL     1      45.073 -22.506   5.003  1.00  0.00     0.210 C 
ENDBRANCH  26  29
ENDBRANCH  22  23
ENDBRANCH  21  22
ENDBRANCH  18  21
ENDBRANCH  13  14
ENDBRANCH   8  13
BRANCH   9  31
HETATM   31  N   UNL     1      39.283 -14.765  -1.631  1.00  0.00    -0.274 NA
HETATM   32  H   UNL     1      38.997 -14.975  -2.596  1.00  0.00     0.129 HD
BRANCH  31  33
HETATM   33  C   UNL     1      40.757 -14.718  -1.646  1.00  0.00     0.130 C 
BRANCH  33  34
HETATM   34  C   UNL     1      41.290 -14.151  -2.986  1.00  0.00     0.164 C 
BRANCH  34  35
HETATM   35  O   UNL     1      42.248 -15.058  -3.552  1.00  0.00    -0.390 OA
HETATM   36  H   UNL     1      43.131 -14.717  -3.324  1.00  0.00     0.210 HD
ENDBRANCH  34  35
BRANCH  34  37
HETATM   37  C   UNL     1      41.878 -12.757  -2.890  1.00  0.00    -0.029 A 
HETATM   38  C   UNL     1      42.483 -12.329  -1.700  1.00  0.00     0.010 A 
HETATM   39  C   UNL     1      43.018 -11.043  -1.594  1.00  0.00     0.001 A 
HETATM   40  C   UNL     1      42.953 -10.169  -2.677  1.00  0.00     0.000 A 
HETATM   41  C   UNL     1      42.355 -10.579  -3.866  1.00  0.00     0.001 A 
HETATM   42  C   UNL     1      41.821 -11.864  -3.972  1.00  0.00     0.010 A 
ENDBRANCH  34  37
ENDBRANCH  33  34
ENDBRANCH  31  33
ENDBRANCH   9  31
TORSDOF 11
ENDMDL
MODEL 6
REMARK VINA RESULT:      -7.8      3.938      7.235
REMARK  11 active torsions:
REMARK  status: ('A' for Active; 'I' for Inactive)
REMARK    1  A    between atoms: C_8  and  C_9 
REMARK    2  A    between atoms: C_9  and  C_10 
REMARK    3  A    between atoms: N_14  and  C_15 
REMARK    4  A    between atoms: C_15  and  C_16 
REMARK    5  A    between atoms: C_16  and  C_17 
REMARK    6  A    between atoms: C_20  and  O_21 
REMARK    7  A    between atoms: C_27  and  N_28 
REMARK    8  A    between atoms: N_28  and  C_29 
REMARK    9  A    between atoms: C_29  and  C_30 
REMARK   10  A    between atoms: C_30  and  O_31 
REMARK   11  A    between atoms: C_30  and  C_32 
ROOT
HETATM    1  C   UNL     1      45.217 -18.822   5.449  1.00  0.00     0.052 C 
HETATM    2  C   UNL     1      44.283 -18.909   4.283  1.00  0.00    -0.015 A 
HETATM    3  C   UNL     1      43.224 -17.845   4.156  1.00  0.00     0.144 A 
HETATM    4  N   UNL     1      43.133 -16.931   5.068  1.00  0.00    -0.217 NA
HETATM    5  N   UNL     1      42.400 -17.906   3.046  1.00  0.00    -0.272 N 
HETATM    6  C   UNL     1      41.460 -16.912   2.840  1.00  0.00     0.266 C 
HETATM    7  O   UNL     1      40.791 -16.800   1.809  1.00  0.00    -0.267 OA
HETATM    8  C   UNL     1      41.286 -15.923   3.950  1.00  0.00     0.074 C 
HETATM    9  C   UNL     1      42.152 -15.981   4.986  1.00  0.00     0.121 C 
HETATM   10  C   UNL     1      42.522 -18.928   2.113  1.00  0.00     0.102 A 
HETATM   11  C   UNL     1      43.435 -19.897   2.243  1.00  0.00     0.018 A 
HETATM   12  C   UNL     1      44.344 -19.878   3.356  1.00  0.00     0.012 A 
ENDROOT
BRANCH   8  13
HETATM   13  C   UNL     1      40.172 -14.987   3.869  1.00  0.00     0.045 C 
BRANCH  13  14
HETATM   14  C   UNL     1      40.261 -13.683   3.574  1.00  0.00     0.077 A 
HETATM   15  S   UNL     1      40.670 -12.976   2.067  1.00  0.00    -0.055 SA
HETATM   16  C   UNL     1      40.595 -11.345   2.713  1.00  0.00     0.148 A 
HETATM   17  S   UNL     1      40.971 -10.015   1.773  1.00  0.00    -0.052 SA
HETATM   18  N   UNL     1      40.188 -11.368   4.040  1.00  0.00    -0.298 N 
HETATM   19  C   UNL     1      40.006 -12.626   4.591  1.00  0.00     0.266 A 
HETATM   20  O   UNL     1      39.684 -12.891   5.740  1.00  0.00    -0.266 OA
BRANCH  18  21
HETATM   21  C   UNL     1      39.983 -10.116   4.791  1.00  0.00     0.138 C 
BRANCH  21  22
HETATM   22  C   UNL     1      41.046  -9.677   5.806  1.00  0.00     0.059 C 
BRANCH  22  23
HETATM   23  C   UNL     1      40.782 -10.033   7.258  1.00  0.00    -0.057 A 
HETATM   24  C   UNL     1      41.780 -10.381   8.174  1.00  0.00     0.010 A 
HETATM   25  C   UNL     1      41.458 -10.646   9.511  1.00  0.00     0.037 A 
HETATM   26  C   UNL     1      40.141 -10.567   9.961  1.00  0.00     0.068 A 
HETATM   27  C   UNL     1      39.137 -10.238   9.055  1.00  0.00     0.037 A 
HETATM   28  C   UNL     1      39.455  -9.971   7.718  1.00  0.00     0.010 A 
BRANCH  26  29
HETATM   29  O   UNL     1      39.972 -10.833  11.291  1.00  0.00    -0.356 OA
HETATM   30  C   UNL     1      41.152 -10.926  12.080  1.00  0.00     0.210 C 
ENDBRANCH  26  29
ENDBRANCH  22  23
ENDBRANCH  21  22
ENDBRANCH  18  21
ENDBRANCH  13  14
ENDBRANCH   8  13
BRANCH   9  31
HETATM   31  N   UNL     1      42.086 -15.126   6.084  1.00  0.00    -0.274 NA
HETATM   32  H   UNL     1      42.224 -15.741   6.896  1.00  0.00     0.129 HD
BRANCH  31  33
HETATM   33  C   UNL     1      43.030 -14.007   6.257  1.00  0.00     0.130 C 
BRANCH  33  34
HETATM   34  C   UNL     1      44.294 -14.449   7.034  1.00  0.00     0.164 C 
BRANCH  34  35
HETATM   35  O   UNL     1      43.971 -15.536   7.915  1.00  0.00    -0.390 OA
HETATM   36  H   UNL     1      43.008 -15.667   7.862  1.00  0.00     0.210 HD
ENDBRANCH  34  35
BRANCH  34  37
HETATM   37  C   UNL     1      44.984 -13.338   7.801  1.00  0.00    -0.029 A 
HETATM   38  C   UNL     1      44.363 -12.769   8.924  1.00  0.00     0.010 A 
HETATM   39  C   UNL     1      44.981 -11.737   9.633  1.00  0.00     0.001 A 
HETATM   40  C   UNL     1      46.225 -11.258   9.227  1.00  0.00     0.000 A 
HETATM   41  C   UNL     1      46.854 -11.812   8.115  1.00  0.00     0.001 A 
HETATM   42  C   UNL     1      46.237 -12.845   7.407  1.00  0.00     0.010 A 
ENDBRANCH  34  37
ENDBRANCH  33  34
ENDBRANCH  31  33
ENDBRANCH   9  31
TORSDOF 11
ENDMDL
MODEL 7
REMARK VINA RESULT:      -7.8      5.022      8.673
REMARK  11 active torsions:
REMARK  status: ('A' for Active; 'I' for Inactive)
REMARK    1  A    between atoms: C_8  and  C_9 
REMARK    2  A    between atoms: C_9  and  C_10 
REMARK    3  A    between atoms: N_14  and  C_15 
REMARK    4  A    between atoms: C_15  and  C_16 
REMARK    5  A    between atoms: C_16  and  C_17 
REMARK    6  A    between atoms: C_20  and  O_21 
REMARK    7  A    between atoms: C_27  and  N_28 
REMARK    8  A    between atoms: N_28  and  C_29 
REMARK    9  A    between atoms: C_29  and  C_30 
REMARK   10  A    between atoms: C_30  and  O_31 
REMARK   11  A    between atoms: C_30  and  C_32 
ROOT
HETATM    1  C   UNL     1      41.003 -18.024   1.368  1.00  0.00     0.052 C 
HETATM    2  C   UNL     1      41.344 -16.567   1.333  1.00  0.00    -0.015 A 
HETATM    3  C   UNL     1      42.096 -15.997   2.506  1.00  0.00     0.144 A 
HETATM    4  N   UNL     1      42.381 -16.764   3.508  1.00  0.00    -0.217 NA
HETATM    5  N   UNL     1      42.451 -14.661   2.438  1.00  0.00    -0.272 N 
HETATM    6  C   UNL     1      43.209 -14.105   3.454  1.00  0.00     0.266 C 
HETATM    7  O   UNL     1      43.699 -12.973   3.407  1.00  0.00    -0.267 OA
HETATM    8  C   UNL     1      43.440 -14.965   4.657  1.00  0.00     0.074 C 
HETATM    9  C   UNL     1      43.031 -16.252   4.598  1.00  0.00     0.121 C 
HETATM   10  C   UNL     1      42.093 -13.874   1.351  1.00  0.00     0.102 A 
HETATM   11  C   UNL     1      41.391 -14.367   0.325  1.00  0.00     0.018 A 
HETATM   12  C   UNL     1      41.015 -15.754   0.316  1.00  0.00     0.012 A 
ENDROOT
BRANCH   8  13
HETATM   13  C   UNL     1      44.051 -14.357   5.831  1.00  0.00     0.045 C 
BRANCH  13  14
HETATM   14  C   UNL     1      43.526 -13.366   6.566  1.00  0.00     0.077 A 
HETATM   15  S   UNL     1      42.078 -12.498   6.271  1.00  0.00    -0.055 SA
HETATM   16  C   UNL     1      42.322 -11.448   7.657  1.00  0.00     0.148 A 
HETATM   17  S   UNL     1      41.267 -10.199   8.004  1.00  0.00    -0.052 SA
HETATM   18  N   UNL     1      43.459 -11.827   8.357  1.00  0.00    -0.298 N 
HETATM   19  C   UNL     1      44.188 -12.866   7.802  1.00  0.00     0.266 A 
HETATM   20  O   UNL     1      45.233 -13.344   8.221  1.00  0.00    -0.266 OA
BRANCH  18  21
HETATM   21  C   UNL     1      43.846 -11.141   9.603  1.00  0.00     0.138 C 
BRANCH  21  22
HETATM   22  C   UNL     1      43.663 -11.871  10.940  1.00  0.00     0.059 C 
BRANCH  22  23
HETATM   23  C   UNL     1      43.061 -11.064  12.076  1.00  0.00    -0.057 A 
HETATM   24  C   UNL     1      41.837 -11.359  12.685  1.00  0.00     0.010 A 
HETATM   25  C   UNL     1      41.376 -10.594  13.762  1.00  0.00     0.037 A 
HETATM   26  C   UNL     1      42.122  -9.524  14.254  1.00  0.00     0.068 A 
HETATM   27  C   UNL     1      43.334  -9.209  13.645  1.00  0.00     0.037 A 
HETATM   28  C   UNL     1      43.798  -9.973  12.568  1.00  0.00     0.010 A 
BRANCH  26  29
HETATM   29  O   UNL     1      41.562  -8.874  15.320  1.00  0.00    -0.356 OA
HETATM   30  C   UNL     1      40.439  -8.046  15.045  1.00  0.00     0.210 C 
ENDBRANCH  26  29
ENDBRANCH  22  23
ENDBRANCH  21  22
ENDBRANCH  18  21
ENDBRANCH  13  14
ENDBRANCH   8  13
BRANCH   9  31
HETATM   31  N   UNL     1      43.175 -17.148   5.655  1.00  0.00    -0.274 NA
HETATM   32  H   UNL     1      42.559 -16.779   6.390  1.00  0.00     0.129 HD
BRANCH  31  33
HETATM   33  C   UNL     1      42.835 -18.575   5.517  1.00  0.00     0.130 C 
BRANCH  33  34
HETATM   34  C   UNL     1      44.107 -19.456   5.456  1.00  0.00     0.164 C 
BRANCH  34  35
HETATM   35  O   UNL     1      45.277 -18.632   5.577  1.00  0.00    -0.390 OA
HETATM   36  H   UNL     1      46.024 -19.226   5.767  1.00  0.00     0.210 HD
ENDBRANCH  34  35
BRANCH  34  37
HETATM   37  C   UNL     1      44.208 -20.333   4.222  1.00  0.00    -0.029 A 
HETATM   38  C   UNL     1      43.864 -19.818   2.964  1.00  0.00     0.010 A 
HETATM   39  C   UNL     1      43.941 -20.618   1.822  1.00  0.00     0.001 A 
HETATM   40  C   UNL     1      44.360 -21.942   1.924  1.00  0.00     0.000 A 
HETATM   41  C   UNL     1      44.705 -22.468   3.166  1.00  0.00     0.001 A 
HETATM   42  C   UNL     1      44.630 -21.669   4.308  1.00  0.00     0.010 A 
ENDBRANCH  34  37
ENDBRANCH  33  34
ENDBRANCH  31  33
ENDBRANCH   9  31
TORSDOF 11
ENDMDL
MODEL 8
REMARK VINA RESULT:      -7.8      2.782      5.947
REMARK  11 active torsions:
REMARK  status: ('A' for Active; 'I' for Inactive)
REMARK    1  A    between atoms: C_8  and  C_9 
REMARK    2  A    between atoms: C_9  and  C_10 
REMARK    3  A    between atoms: N_14  and  C_15 
REMARK    4  A    between atoms: C_15  and  C_16 
REMARK    5  A    between atoms: C_16  and  C_17 
REMARK    6  A    between atoms: C_20  and  O_21 
REMARK    7  A    between atoms: C_27  and  N_28 
REMARK    8  A    between atoms: N_28  and  C_29 
REMARK    9  A    between atoms: C_29  and  C_30 
REMARK   10  A    between atoms: C_30  and  O_31 
REMARK   11  A    between atoms: C_30  and  C_32 
ROOT
HETATM    1  C   UNL     1      44.012 -17.712   6.519  1.00  0.00     0.052 C 
HETATM    2  C   UNL     1      43.803 -16.241   6.343  1.00  0.00    -0.015 A 
HETATM    3  C   UNL     1      42.779 -15.797   5.332  1.00  0.00     0.144 A 
HETATM    4  N   UNL     1      42.156 -16.688   4.630  1.00  0.00    -0.217 NA
HETATM    5  N   UNL     1      42.556 -14.436   5.217  1.00  0.00    -0.272 N 
HETATM    6  C   UNL     1      41.573 -13.978   4.357  1.00  0.00     0.266 C 
HETATM    7  O   UNL     1      41.201 -12.802   4.302  1.00  0.00    -0.267 OA
HETATM    8  C   UNL     1      40.935 -15.001   3.471  1.00  0.00     0.074 C 
HETATM    9  C   UNL     1      41.250 -16.298   3.681  1.00  0.00     0.121 C 
HETATM   10  C   UNL     1      43.276 -13.521   5.974  1.00  0.00     0.102 A 
HETATM   11  C   UNL     1      44.213 -13.909   6.846  1.00  0.00     0.018 A 
HETATM   12  C   UNL     1      44.475 -15.310   7.038  1.00  0.00     0.012 A 
ENDROOT
BRANCH   8  13
HETATM   13  C   UNL     1      40.049 -14.538   2.412  1.00  0.00     0.045 C 
BRANCH  13  14
HETATM   14  C   UNL     1      40.315 -13.557   1.538  1.00  0.00     0.077 A 
HETATM   15  S   UNL     1      39.538 -12.035   1.404  1.00  0.00    -0.055 SA
HETATM   16  C   UNL     1      40.496 -11.571   0.008  1.00  0.00     0.148 A 
HETATM   17  S   UNL     1      40.238 -10.123  -0.787  1.00  0.00    -0.052 SA
HETATM   18  N   UNL     1      41.436 -12.551  -0.282  1.00  0.00    -0.298 N 
HETATM   19  C   UNL     1      41.382 -13.687   0.508  1.00  0.00     0.266 A 
HETATM   20  O   UNL     1      42.082 -14.686   0.418  1.00  0.00    -0.266 OA
BRANCH  18  21
HETATM   21  C   UNL     1      42.409 -12.367  -1.374  1.00  0.00     0.138 C 
BRANCH  21  22
HETATM   22  C   UNL     1      42.395 -13.349  -2.553  1.00  0.00     0.059 C 
BRANCH  22  23
HETATM   23  C   UNL     1      41.038 -13.883  -2.974  1.00  0.00    -0.057 A 
HETATM   24  C   UNL     1      40.740 -15.241  -3.122  1.00  0.00     0.010 A 
HETATM   25  C   UNL     1      39.447 -15.654  -3.464  1.00  0.00     0.037 A 
HETATM   26  C   UNL     1      38.427 -14.724  -3.664  1.00  0.00     0.068 A 
HETATM   27  C   UNL     1      38.715 -13.368  -3.537  1.00  0.00     0.037 A 
HETATM   28  C   UNL     1      40.007 -12.953  -3.194  1.00  0.00     0.010 A 
BRANCH  26  29
HETATM   29  O   UNL     1      37.211 -15.266  -3.977  1.00  0.00    -0.356 OA
HETATM   30  C   UNL     1      36.283 -14.414  -4.636  1.00  0.00     0.210 C 
ENDBRANCH  26  29
ENDBRANCH  22  23
ENDBRANCH  21  22
ENDBRANCH  18  21
ENDBRANCH  13  14
ENDBRANCH   8  13
BRANCH   9  31
HETATM   31  N   UNL     1      40.736 -17.342   2.914  1.00  0.00    -0.274 NA
HETATM   32  H   UNL     1      39.796 -17.023   2.645  1.00  0.00     0.129 HD
BRANCH  31  33
HETATM   33  C   UNL     1      41.387 -17.787   1.669  1.00  0.00     0.130 C 
BRANCH  33  34
HETATM   34  C   UNL     1      42.927 -17.835   1.824  1.00  0.00     0.164 C 
BRANCH  34  35
HETATM   35  O   UNL     1      43.553 -17.394   0.609  1.00  0.00    -0.390 OA
HETATM   36  H   UNL     1      44.510 -17.540   0.714  1.00  0.00     0.210 HD
ENDBRANCH  34  35
BRANCH  34  37
HETATM   37  C   UNL     1      43.478 -19.186   2.238  1.00  0.00    -0.029 A 
HETATM   38  C   UNL     1      44.366 -19.281   3.320  1.00  0.00     0.010 A 
HETATM   39  C   UNL     1      44.890 -20.517   3.705  1.00  0.00     0.001 A 
HETATM   40  C   UNL     1      44.535 -21.672   3.012  1.00  0.00     0.000 A 
HETATM   41  C   UNL     1      43.654 -21.594   1.936  1.00  0.00     0.001 A 
HETATM   42  C   UNL     1      43.129 -20.359   1.551  1.00  0.00     0.010 A 
ENDBRANCH  34  37
ENDBRANCH  33  34
ENDBRANCH  31  33
ENDBRANCH   9  31
TORSDOF 11
ENDMDL
MODEL 9
REMARK VINA RESULT:      -7.8      3.331      6.324
REMARK  11 active torsions:
REMARK  status: ('A' for Active; 'I' for Inactive)
REMARK    1  A    between atoms: C_8  and  C_9 
REMARK    2  A    between atoms: C_9  and  C_10 
REMARK    3  A    between atoms: N_14  and  C_15 
REMARK    4  A    between atoms: C_15  and  C_16 
REMARK    5  A    between atoms: C_16  and  C_17 
REMARK    6  A    between atoms: C_20  and  O_21 
REMARK    7  A    between atoms: C_27  and  N_28 
REMARK    8  A    between atoms: N_28  and  C_29 
REMARK    9  A    between atoms: C_29  and  C_30 
REMARK   10  A    between atoms: C_30  and  O_31 
REMARK   11  A    between atoms: C_30  and  C_32 
ROOT
HETATM    1  C   UNL     1      43.854 -19.480   7.332  1.00  0.00     0.052 C 
HETATM    2  C   UNL     1      44.045 -19.630   5.856  1.00  0.00    -0.015 A 
HETATM    3  C   UNL     1      43.820 -18.414   4.996  1.00  0.00     0.144 A 
HETATM    4  N   UNL     1      43.434 -17.310   5.550  1.00  0.00    -0.217 NA
HETATM    5  N   UNL     1      44.051 -18.551   3.639  1.00  0.00    -0.272 N 
HETATM    6  C   UNL     1      43.933 -17.447   2.813  1.00  0.00     0.266 C 
HETATM    7  O   UNL     1      44.266 -17.437   1.624  1.00  0.00    -0.267 OA
HETATM    8  C   UNL     1      43.382 -16.205   3.440  1.00  0.00     0.074 C 
HETATM    9  C   UNL     1      43.189 -16.208   4.778  1.00  0.00     0.121 C 
HETATM   10  C   UNL     1      44.436 -19.768   3.091  1.00  0.00     0.102 A 
HETATM   11  C   UNL     1      44.599 -20.861   3.846  1.00  0.00     0.018 A 
HETATM   12  C   UNL     1      44.405 -20.782   5.269  1.00  0.00     0.012 A 
ENDROOT
BRANCH   8  13
HETATM   13  C   UNL     1      43.046 -15.085   2.570  1.00  0.00     0.045 C 
BRANCH  13  14
HETATM   14  C   UNL     1      41.810 -14.647   2.294  1.00  0.00     0.077 A 
HETATM   15  S   UNL     1      40.481 -15.559   1.713  1.00  0.00    -0.055 SA
HETATM   16  C   UNL     1      39.444 -14.146   1.610  1.00  0.00     0.148 A 
HETATM   17  S   UNL     1      37.887 -14.246   1.011  1.00  0.00    -0.052 SA
HETATM   18  N   UNL     1      40.106 -13.024   2.089  1.00  0.00    -0.298 N 
HETATM   19  C   UNL     1      41.425 -13.219   2.466  1.00  0.00     0.266 A 
HETATM   20  O   UNL     1      42.208 -12.378   2.883  1.00  0.00    -0.266 OA
BRANCH  18  21
HETATM   21  C   UNL     1      39.424 -11.719   2.170  1.00  0.00     0.138 C 
BRANCH  21  22
HETATM   22  C   UNL     1      38.391 -11.490   3.281  1.00  0.00     0.059 C 
BRANCH  22  23
HETATM   23  C   UNL     1      38.933 -11.357   4.692  1.00  0.00    -0.057 A 
HETATM   24  C   UNL     1      39.133 -12.435   5.561  1.00  0.00     0.010 A 
HETATM   25  C   UNL     1      39.686 -12.233   6.831  1.00  0.00     0.037 A 
HETATM   26  C   UNL     1      40.051 -10.958   7.260  1.00  0.00     0.068 A 
HETATM   27  C   UNL     1      39.841  -9.874   6.412  1.00  0.00     0.037 A 
HETATM   28  C   UNL     1      39.289 -10.073   5.141  1.00  0.00     0.010 A 
BRANCH  26  29
HETATM   29  O   UNL     1      40.594 -10.908   8.514  1.00  0.00    -0.356 OA
HETATM   30  C   UNL     1      41.678 -10.008   8.706  1.00  0.00     0.210 C 
ENDBRANCH  26  29
ENDBRANCH  22  23
ENDBRANCH  21  22
ENDBRANCH  18  21
ENDBRANCH  13  14
ENDBRANCH   8  13
BRANCH   9  31
HETATM   31  N   UNL     1      42.668 -15.120   5.476  1.00  0.00    -0.274 NA
HETATM   32  H   UNL     1      42.287 -15.528   6.339  1.00  0.00     0.129 HD
BRANCH  31  33
HETATM   33  C   UNL     1      43.515 -13.991   5.900  1.00  0.00     0.130 C 
BRANCH  33  34
HETATM   34  C   UNL     1      44.492 -14.409   7.026  1.00  0.00     0.164 C 
BRANCH  34  35
HETATM   35  O   UNL     1      43.846 -15.334   7.915  1.00  0.00    -0.390 OA
HETATM   36  H   UNL     1      42.888 -15.194   7.822  1.00  0.00     0.210 HD
ENDBRANCH  34  35
BRANCH  34  37
HETATM   37  C   UNL     1      45.083 -13.253   7.811  1.00  0.00    -0.029 A 
HETATM   38  C   UNL     1      46.346 -12.746   7.472  1.00  0.00     0.010 A 
HETATM   39  C   UNL     1      46.907 -11.690   8.194  1.00  0.00     0.001 A 
HETATM   40  C   UNL     1      46.213 -11.129   9.263  1.00  0.00     0.000 A 
HETATM   41  C   UNL     1      44.957 -11.621   9.612  1.00  0.00     0.001 A 
HETATM   42  C   UNL     1      44.396 -12.676   8.890  1.00  0.00     0.010 A 
ENDBRANCH  34  37
ENDBRANCH  33  34
ENDBRANCH  31  33
ENDBRANCH   9  31
TORSDOF 11
ENDMDL
MODEL 10
REMARK VINA RESULT:      -7.7      3.557      5.718
REMARK  11 active torsions:
REMARK  status: ('A' for Active; 'I' for Inactive)
REMARK    1  A    between atoms: C_8  and  C_9 
REMARK    2  A    between atoms: C_9  and  C_10 
REMARK    3  A    between atoms: N_14  and  C_15 
REMARK    4  A    between atoms: C_15  and  C_16 
REMARK    5  A    between atoms: C_16  and  C_17 
REMARK    6  A    between atoms: C_20  and  O_21 
REMARK    7  A    between atoms: C_27  and  N_28 
REMARK    8  A    between atoms: N_28  and  C_29 
REMARK    9  A    between atoms: C_29  and  C_30 
REMARK   10  A    between atoms: C_30  and  O_31 
REMARK   11  A    between atoms: C_30  and  C_32 
ROOT
HETATM    1  C   UNL     1      43.914 -21.895   1.374  1.00  0.00     0.052 C 
HETATM    2  C   UNL     1      44.233 -21.246   2.685  1.00  0.00    -0.015 A 
HETATM    3  C   UNL     1      43.996 -19.764   2.807  1.00  0.00     0.144 A 
HETATM    4  N   UNL     1      43.571 -19.105   1.777  1.00  0.00    -0.217 NA
HETATM    5  N   UNL     1      44.245 -19.186   4.039  1.00  0.00    -0.272 N 
HETATM    6  C   UNL     1      43.972 -17.842   4.228  1.00  0.00     0.266 C 
HETATM    7  O   UNL     1      44.017 -17.278   5.325  1.00  0.00    -0.267 OA
HETATM    8  C   UNL     1      43.587 -17.065   3.008  1.00  0.00     0.074 C 
HETATM    9  C   UNL     1      43.387 -17.752   1.862  1.00  0.00     0.121 C 
HETATM   10  C   UNL     1      44.730 -19.935   5.103  1.00  0.00     0.102 A 
HETATM   11  C   UNL     1      44.979 -21.244   4.988  1.00  0.00     0.018 A 
HETATM   12  C   UNL     1      44.714 -21.916   3.744  1.00  0.00     0.012 A 
ENDROOT
BRANCH   8  13
HETATM   13  C   UNL     1      43.493 -15.615   3.118  1.00  0.00     0.045 C 
BRANCH  13  14
HETATM   14  C   UNL     1      42.712 -14.941   3.974  1.00  0.00     0.077 A 
HETATM   15  S   UNL     1      41.035 -15.155   4.252  1.00  0.00    -0.055 SA
HETATM   16  C   UNL     1      40.967 -13.829   5.401  1.00  0.00     0.148 A 
HETATM   17  S   UNL     1      39.527 -13.354   6.103  1.00  0.00    -0.052 SA
HETATM   18  N   UNL     1      42.234 -13.300   5.604  1.00  0.00    -0.298 N 
HETATM   19  C   UNL     1      43.246 -13.849   4.834  1.00  0.00     0.266 A 
HETATM   20  O   UNL     1      44.424 -13.524   4.818  1.00  0.00    -0.266 OA
BRANCH  18  21
HETATM   21  C   UNL     1      42.454 -12.215   6.578  1.00  0.00     0.138 C 
BRANCH  21  22
HETATM   22  C   UNL     1      43.521 -12.398   7.664  1.00  0.00     0.059 C 
BRANCH  22  23
HETATM   23  C   UNL     1      43.433 -11.469   8.862  1.00  0.00    -0.057 A 
HETATM   24  C   UNL     1      42.323 -10.670   9.156  1.00  0.00     0.010 A 
HETATM   25  C   UNL     1      42.302  -9.879  10.310  1.00  0.00     0.037 A 
HETATM   26  C   UNL     1      43.381  -9.868  11.193  1.00  0.00     0.068 A 
HETATM   27  C   UNL     1      44.499 -10.646  10.903  1.00  0.00     0.037 A 
HETATM   28  C   UNL     1      44.523 -11.439   9.750  1.00  0.00     0.010 A 
BRANCH  26  29
HETATM   29  O   UNL     1      43.219  -9.064  12.288  1.00  0.00    -0.356 OA
HETATM   30  C   UNL     1      42.462  -7.876  12.102  1.00  0.00     0.210 C 
ENDBRANCH  26  29
ENDBRANCH  22  23
ENDBRANCH  21  22
ENDBRANCH  18  21
ENDBRANCH  13  14
ENDBRANCH   8  13
BRANCH   9  31
HETATM   31  N   UNL     1      43.041 -17.142   0.658  1.00  0.00    -0.274 NA
HETATM   32  H   UNL     1      43.491 -17.721  -0.062  1.00  0.00     0.129 HD
BRANCH  31  33
HETATM   33  C   UNL     1      41.636 -16.992   0.239  1.00  0.00     0.130 C 
BRANCH  33  34
HETATM   34  C   UNL     1      41.182 -15.512   0.307  1.00  0.00     0.164 C 
BRANCH  34  35
HETATM   35  O   UNL     1      39.839 -15.437   0.808  1.00  0.00    -0.390 OA
HETATM   36  H   UNL     1      39.446 -14.623   0.446  1.00  0.00     0.210 HD
ENDBRANCH  34  35
BRANCH  34  37
HETATM   37  C   UNL     1      41.296 -14.757  -1.003  1.00  0.00    -0.029 A 
HETATM   38  C   UNL     1      40.893 -15.363  -2.202  1.00  0.00     0.010 A 
HETATM   39  C   UNL     1      41.004 -14.683  -3.417  1.00  0.00     0.001 A 
HETATM   40  C   UNL     1      41.522 -13.391  -3.449  1.00  0.00     0.000 A 
HETATM   41  C   UNL     1      41.927 -12.775  -2.267  1.00  0.00     0.001 A 
HETATM   42  C   UNL     1      41.815 -13.453  -1.052  1.00  0.00     0.010 A 
ENDBRANCH  34  37
ENDBRANCH  33  34
ENDBRANCH  31  33
ENDBRANCH   9  31
TORSDOF 11
ENDMDL
