MODEL 1
REMARK VINA RESULT:      -9.6      0.000      0.000
REMARK  8 active torsions:
REMARK  status: ('A' for Active; 'I' for Inactive)
REMARK    1  A    between atoms: C_2  and  O_3 
REMARK    2  A    between atoms: O_3  and  C_4 
REMARK    3  A    between atoms: C_5  and  C_6 
REMARK    4  A    between atoms: C_6  and  N_7 
REMARK    5  A    between atoms: C_23  and  C_24 
REMARK    6  A    between atoms: N_25  and  N_26 
REMARK       I    between atoms: N_26  and  C_27 
REMARK    7  A    between atoms: C_27  and  C_28 
REMARK    8  A    between atoms: C_31  and  N_32 
REMARK       I    between atoms: N_32  and  C_33 
ROOT
HETATM    1  C   UNL     1      44.335 -18.621   4.041  1.00  0.00     0.076 A 
HETATM    2  C   UNL     1      43.791 -17.342   3.827  1.00  0.00     0.002 A 
HETATM    3  C   UNL     1      43.624 -16.472   4.914  1.00  0.00     0.024 A 
HETATM    4  C   UNL     1      44.003 -16.861   6.201  1.00  0.00    -0.016 A 
HETATM    5  C   UNL     1      44.521 -18.136   6.417  1.00  0.00     0.016 A 
HETATM    6  C   UNL     1      44.686 -19.015   5.337  1.00  0.00     0.038 A 
ENDROOT
BRANCH   4   7
HETATM    7  C   UNL     1      43.895 -15.903   7.323  1.00  0.00     0.150 C 
HETATM    8  N   UNL     1      44.062 -14.640   7.102  1.00  0.00    -0.184 NA
BRANCH   8   9
HETATM    9  N   UNL     1      43.958 -13.748   8.132  1.00  0.00    -0.243 N 
HETATM   10  C   UNL     1      44.930 -12.856   8.565  1.00  0.00     0.271 C 
HETATM   11  O   UNL     1      46.045 -12.707   8.076  1.00  0.00    -0.266 OA
HETATM   12  H   UNL     1      43.203 -13.976   8.773  1.00  0.00     0.192 HD
BRANCH  10  13
HETATM   13  C   UNL     1      44.554 -12.064   9.772  1.00  0.00     0.033 A 
HETATM   14  C   UNL     1      44.474 -10.666   9.747  1.00  0.00     0.019 A 
HETATM   15  C   UNL     1      44.098  -9.959  10.895  1.00  0.00     0.030 A 
HETATM   16  C   UNL     1      43.810 -10.633  12.084  1.00  0.00     0.034 A 
HETATM   17  C   UNL     1      43.918 -12.029  12.113  1.00  0.00     0.030 A 
HETATM   18  C   UNL     1      44.291 -12.741  10.967  1.00  0.00     0.019 A 
BRANCH  16  19
HETATM   19  N   UNL     1      43.420  -9.989  13.276  1.00  0.00    -0.328 N 
HETATM   20  C   UNL     1      42.214 -10.115  13.944  1.00  0.00     0.218 C 
HETATM   21  C   UNL     1      42.158  -9.264  15.188  1.00  0.00     0.117 C 
HETATM   22  O   UNL     1      41.275 -10.840  13.636  1.00  0.00    -0.274 OA
HETATM   23  H   UNL     1      44.111  -9.384  13.702  1.00  0.00     0.169 HD
ENDBRANCH  16  19
ENDBRANCH  10  13
ENDBRANCH   8   9
ENDBRANCH   4   7
BRANCH   2  24
HETATM   24  C   UNL     1      43.403 -16.873   2.451  1.00  0.00     0.276 C 
BRANCH  24  25
HETATM   25  N   UNL     1      42.089 -17.445   1.951  1.00  0.00    -0.066 N 
HETATM   26  H   UNL     1      42.361 -18.434   1.830  1.00  0.00     0.280 HD
HETATM   27  C   UNL     1      40.993 -17.452   2.995  1.00  0.00     0.246 C 
HETATM   28  C   UNL     1      40.084 -16.207   2.936  1.00  0.00     0.062 C 
HETATM   29  C   UNL     1      39.504 -16.068   1.533  1.00  0.00     0.020 C 
HETATM   30  C   UNL     1      40.816 -14.941   3.338  1.00  0.00     0.020 A 
HETATM   31  C   UNL     1      40.665 -15.819   0.582  1.00  0.00     0.031 C 
HETATM   32  C   UNL     1      41.327 -14.485   0.930  1.00  0.00     0.138 C 
HETATM   33  C   UNL     1      41.637 -17.004   0.580  1.00  0.00     0.241 C 
HETATM   34  N   UNL     1      41.460 -14.185   2.355  1.00  0.00    -0.317 N 
HETATM   35  C   UNL     1      42.173 -13.014   2.659  1.00  0.00     0.247 A 
HETATM   36  O   UNL     1      42.761 -12.335   1.821  1.00  0.00    -0.268 OA
HETATM   37  C   UNL     1      42.220 -12.621   4.087  1.00  0.00     0.074 A 
HETATM   38  C   UNL     1      41.588 -13.360   5.004  1.00  0.00     0.007 A 
HETATM   39  C   UNL     1      40.864 -14.545   4.623  1.00  0.00     0.026 A 
ENDBRANCH  24  25
ENDBRANCH   2  24
BRANCH   1  40
HETATM   40  O   UNL     1      44.517 -19.372   2.907  1.00  0.00    -0.351 OA
BRANCH  40  41
HETATM   41  C   UNL     1      44.687 -20.783   3.092  1.00  0.00     0.171 C 
HETATM   42  C   UNL     1      44.032 -21.485   1.916  1.00  0.00     0.034 C 
ENDBRANCH  40  41
ENDBRANCH   1  40
TORSDOF 8
ENDMDL
MODEL 2
REMARK VINA RESULT:      -9.1      2.916      5.279
REMARK  8 active torsions:
REMARK  status: ('A' for Active; 'I' for Inactive)
REMARK    1  A    between atoms: C_2  and  O_3 
REMARK    2  A    between atoms: O_3  and  C_4 
REMARK    3  A    between atoms: C_5  and  C_6 
REMARK    4  A    between atoms: C_6  and  N_7 
REMARK    5  A    between atoms: C_23  and  C_24 
REMARK    6  A    between atoms: N_25  and  N_26 
REMARK       I    between atoms: N_26  and  C_27 
REMARK    7  A    between atoms: C_27  and  C_28 
REMARK    8  A    between atoms: C_31  and  N_32 
REMARK       I    between atoms: N_32  and  C_33 
ROOT
HETATM    1  C   UNL     1      39.088 -13.847   2.042  1.00  0.00     0.076 A 
HETATM    2  C   UNL     1      39.750 -14.649   2.988  1.00  0.00     0.002 A 
HETATM    3  C   UNL     1      40.074 -14.114   4.242  1.00  0.00     0.024 A 
HETATM    4  C   UNL     1      39.735 -12.797   4.561  1.00  0.00    -0.016 A 
HETATM    5  C   UNL     1      39.099 -11.994   3.617  1.00  0.00     0.016 A 
HETATM    6  C   UNL     1      38.777 -12.519   2.358  1.00  0.00     0.038 A 
ENDROOT
BRANCH   4   7
HETATM    7  C   UNL     1      40.013 -12.272   5.917  1.00  0.00     0.150 C 
HETATM    8  N   UNL     1      39.129 -12.417   6.851  1.00  0.00    -0.184 NA
BRANCH   8   9
HETATM    9  N   UNL     1      39.380 -11.939   8.106  1.00  0.00    -0.243 N 
HETATM   10  C   UNL     1      39.154 -10.650   8.569  1.00  0.00     0.271 C 
HETATM   11  O   UNL     1      38.668  -9.725   7.927  1.00  0.00    -0.266 OA
HETATM   12  H   UNL     1      40.030 -12.524   8.625  1.00  0.00     0.192 HD
BRANCH  10  13
HETATM   13  C   UNL     1      39.608 -10.404   9.969  1.00  0.00     0.033 A 
HETATM   14  C   UNL     1      38.887  -9.588  10.850  1.00  0.00     0.019 A 
HETATM   15  C   UNL     1      39.334  -9.397  12.163  1.00  0.00     0.030 A 
HETATM   16  C   UNL     1      40.509 -10.005  12.610  1.00  0.00     0.034 A 
HETATM   17  C   UNL     1      41.242 -10.797  11.718  1.00  0.00     0.030 A 
HETATM   18  C   UNL     1      40.798 -10.994  10.405  1.00  0.00     0.019 A 
BRANCH  16  19
HETATM   19  N   UNL     1      41.017  -9.863  13.918  1.00  0.00    -0.328 N 
HETATM   20  C   UNL     1      41.945  -8.937  14.363  1.00  0.00     0.218 C 
HETATM   21  C   UNL     1      42.250  -9.095  15.832  1.00  0.00     0.117 C 
HETATM   22  O   UNL     1      42.468  -8.046  13.705  1.00  0.00    -0.274 OA
HETATM   23  H   UNL     1      40.643 -10.498  14.612  1.00  0.00     0.169 HD
ENDBRANCH  16  19
ENDBRANCH  10  13
ENDBRANCH   8   9
ENDBRANCH   4   7
BRANCH   2  24
HETATM   24  C   UNL     1      40.100 -16.083   2.694  1.00  0.00     0.276 C 
BRANCH  24  25
HETATM   25  N   UNL     1      41.078 -16.257   1.546  1.00  0.00    -0.066 N 
HETATM   26  H   UNL     1      40.467 -16.004   0.753  1.00  0.00     0.280 HD
HETATM   27  C   UNL     1      42.195 -15.236   1.539  1.00  0.00     0.246 C 
HETATM   28  C   UNL     1      43.472 -15.722   2.256  1.00  0.00     0.062 C 
HETATM   29  C   UNL     1      43.930 -17.039   1.640  1.00  0.00     0.020 C 
HETATM   30  C   UNL     1      43.270 -15.874   3.752  1.00  0.00     0.020 A 
HETATM   31  C   UNL     1      42.846 -18.071   1.912  1.00  0.00     0.031 C 
HETATM   32  C   UNL     1      42.727 -18.295   3.420  1.00  0.00     0.138 C 
HETATM   33  C   UNL     1      41.525 -17.668   1.247  1.00  0.00     0.241 C 
HETATM   34  N   UNL     1      42.842 -17.104   4.259  1.00  0.00    -0.317 N 
HETATM   35  C   UNL     1      42.615 -17.310   5.630  1.00  0.00     0.247 A 
HETATM   36  O   UNL     1      42.226 -18.372   6.106  1.00  0.00    -0.268 OA
HETATM   37  C   UNL     1      42.843 -16.146   6.519  1.00  0.00     0.074 A 
HETATM   38  C   UNL     1      43.260 -14.984   6.005  1.00  0.00     0.007 A 
HETATM   39  C   UNL     1      43.484 -14.844   4.589  1.00  0.00     0.026 A 
ENDBRANCH  24  25
ENDBRANCH   2  24
BRANCH   1  40
HETATM   40  O   UNL     1      38.759 -14.481   0.870  1.00  0.00    -0.351 OA
BRANCH  40  41
HETATM   41  C   UNL     1      38.730 -13.671  -0.312  1.00  0.00     0.171 C 
HETATM   42  C   UNL     1      39.922 -14.059  -1.167  1.00  0.00     0.034 C 
ENDBRANCH  40  41
ENDBRANCH   1  40
TORSDOF 8
ENDMDL
MODEL 3
REMARK VINA RESULT:      -8.7      3.254      9.999
REMARK  8 active torsions:
REMARK  status: ('A' for Active; 'I' for Inactive)
REMARK    1  A    between atoms: C_2  and  O_3 
REMARK    2  A    between atoms: O_3  and  C_4 
REMARK    3  A    between atoms: C_5  and  C_6 
REMARK    4  A    between atoms: C_6  and  N_7 
REMARK    5  A    between atoms: C_23  and  C_24 
REMARK    6  A    between atoms: N_25  and  N_26 
REMARK       I    between atoms: N_26  and  C_27 
REMARK    7  A    between atoms: C_27  and  C_28 
REMARK    8  A    between atoms: C_31  and  N_32 
REMARK       I    between atoms: N_32  and  C_33 
ROOT
HETATM    1  C   UNL     1      44.146 -10.500  10.611  1.00  0.00     0.076 A 
HETATM    2  C   UNL     1      43.299 -10.505   9.489  1.00  0.00     0.002 A 
HETATM    3  C   UNL     1      43.435 -11.516   8.526  1.00  0.00     0.024 A 
HETATM    4  C   UNL     1      44.396 -12.518   8.679  1.00  0.00    -0.016 A 
HETATM    5  C   UNL     1      45.250 -12.500   9.779  1.00  0.00     0.016 A 
HETATM    6  C   UNL     1      45.125 -11.491  10.744  1.00  0.00     0.038 A 
ENDROOT
BRANCH   4   7
HETATM    7  C   UNL     1      44.473 -13.621   7.696  1.00  0.00     0.150 C 
HETATM    8  N   UNL     1      43.562 -13.728   6.784  1.00  0.00    -0.184 NA
BRANCH   8   9
HETATM    9  N   UNL     1      43.629 -14.741   5.869  1.00  0.00    -0.243 N 
HETATM   10  C   UNL     1      43.247 -14.687   4.535  1.00  0.00     0.271 C 
HETATM   11  O   UNL     1      42.801 -13.707   3.948  1.00  0.00    -0.266 OA
HETATM   12  H   UNL     1      43.714 -15.656   6.302  1.00  0.00     0.192 HD
BRANCH  10  13
HETATM   13  C   UNL     1      43.361 -15.982   3.803  1.00  0.00     0.033 A 
HETATM   14  C   UNL     1      43.720 -16.041   2.450  1.00  0.00     0.019 A 
HETATM   15  C   UNL     1      43.836 -17.277   1.803  1.00  0.00     0.030 A 
HETATM   16  C   UNL     1      43.585 -18.467   2.490  1.00  0.00     0.034 A 
HETATM   17  C   UNL     1      43.200 -18.403   3.834  1.00  0.00     0.030 A 
HETATM   18  C   UNL     1      43.085 -17.170   4.487  1.00  0.00     0.019 A 
BRANCH  16  19
HETATM   19  N   UNL     1      43.688 -19.746   1.906  1.00  0.00    -0.328 N 
HETATM   20  C   UNL     1      44.323 -20.860   2.428  1.00  0.00     0.218 C 
HETATM   21  C   UNL     1      44.228 -22.054   1.512  1.00  0.00     0.117 C 
HETATM   22  O   UNL     1      44.885 -20.944   3.514  1.00  0.00    -0.274 OA
HETATM   23  H   UNL     1      43.224 -19.867   1.014  1.00  0.00     0.169 HD
ENDBRANCH  16  19
ENDBRANCH  10  13
ENDBRANCH   8   9
ENDBRANCH   4   7
BRANCH   2  24
HETATM   24  C   UNL     1      42.229  -9.463   9.306  1.00  0.00     0.276 C 
BRANCH  24  25
HETATM   25  N   UNL     1      41.064  -9.600  10.271  1.00  0.00    -0.066 N 
HETATM   26  H   UNL     1      41.560  -9.469  11.167  1.00  0.00     0.280 HD
HETATM   27  C   UNL     1      40.071  -8.460  10.189  1.00  0.00     0.246 C 
HETATM   28  C   UNL     1      38.885  -8.750   9.245  1.00  0.00     0.062 C 
HETATM   29  C   UNL     1      38.201 -10.044   9.672  1.00  0.00     0.020 C 
HETATM   30  C   UNL     1      39.312  -8.825   7.792  1.00  0.00     0.020 A 
HETATM   31  C   UNL     1      39.204 -11.172   9.486  1.00  0.00     0.031 C 
HETATM   32  C   UNL     1      39.544 -11.309   8.002  1.00  0.00     0.138 C 
HETATM   33  C   UNL     1      40.433 -10.966  10.379  1.00  0.00     0.241 C 
HETATM   34  N   UNL     1      39.689 -10.060   7.256  1.00  0.00    -0.317 N 
HETATM   35  C   UNL     1      40.114 -10.200   5.925  1.00  0.00     0.247 A 
HETATM   36  O   UNL     1      40.466 -11.266   5.429  1.00  0.00    -0.268 OA
HETATM   37  C   UNL     1      40.154  -8.962   5.111  1.00  0.00     0.074 A 
HETATM   38  C   UNL     1      39.779  -7.797   5.649  1.00  0.00     0.007 A 
HETATM   39  C   UNL     1      39.343  -7.725   7.019  1.00  0.00     0.026 A 
ENDBRANCH  24  25
ENDBRANCH   2  24
BRANCH   1  40
HETATM   40  O   UNL     1      43.892  -9.508  11.526  1.00  0.00    -0.351 OA
BRANCH  40  41
HETATM   41  C   UNL     1      43.567  -9.931  12.857  1.00  0.00     0.171 C 
HETATM   42  C   UNL     1      42.827  -8.793  13.535  1.00  0.00     0.034 C 
ENDBRANCH  40  41
ENDBRANCH   1  40
TORSDOF 8
ENDMDL
MODEL 4
REMARK VINA RESULT:      -8.4      2.131      2.787
REMARK  8 active torsions:
REMARK  status: ('A' for Active; 'I' for Inactive)
REMARK    1  A    between atoms: C_2  and  O_3 
REMARK    2  A    between atoms: O_3  and  C_4 
REMARK    3  A    between atoms: C_5  and  C_6 
REMARK    4  A    between atoms: C_6  and  N_7 
REMARK    5  A    between atoms: C_23  and  C_24 
REMARK    6  A    between atoms: N_25  and  N_26 
REMARK       I    between atoms: N_26  and  C_27 
REMARK    7  A    between atoms: C_27  and  C_28 
REMARK    8  A    between atoms: C_31  and  N_32 
REMARK       I    between atoms: N_32  and  C_33 
ROOT
HETATM    1  C   UNL     1      42.931 -16.063   2.485  1.00  0.00     0.076 A 
HETATM    2  C   UNL     1      42.345 -14.795   2.328  1.00  0.00     0.002 A 
HETATM    3  C   UNL     1      42.181 -13.966   3.446  1.00  0.00     0.024 A 
HETATM    4  C   UNL     1      42.606 -14.385   4.709  1.00  0.00    -0.016 A 
HETATM    5  C   UNL     1      43.166 -15.650   4.870  1.00  0.00     0.016 A 
HETATM    6  C   UNL     1      43.328 -16.488   3.759  1.00  0.00     0.038 A 
ENDROOT
BRANCH   4   7
HETATM    7  C   UNL     1      42.499 -13.467   5.864  1.00  0.00     0.150 C 
HETATM    8  N   UNL     1      43.505 -13.329   6.665  1.00  0.00    -0.184 NA
BRANCH   8   9
HETATM    9  N   UNL     1      43.416 -12.479   7.732  1.00  0.00    -0.243 N 
HETATM   10  C   UNL     1      44.347 -12.317   8.750  1.00  0.00     0.271 C 
HETATM   11  O   UNL     1      45.421 -12.901   8.848  1.00  0.00    -0.266 OA
HETATM   12  H   UNL     1      42.466 -12.162   7.902  1.00  0.00     0.192 HD
BRANCH  10  13
HETATM   13  C   UNL     1      43.932 -11.371   9.827  1.00  0.00     0.033 A 
HETATM   14  C   UNL     1      44.694 -11.187  10.987  1.00  0.00     0.019 A 
HETATM   15  C   UNL     1      44.282 -10.275  11.966  1.00  0.00     0.030 A 
HETATM   16  C   UNL     1      43.102  -9.545  11.808  1.00  0.00     0.034 A 
HETATM   17  C   UNL     1      42.328  -9.753  10.659  1.00  0.00     0.030 A 
HETATM   18  C   UNL     1      42.737 -10.661   9.676  1.00  0.00     0.019 A 
BRANCH  16  19
HETATM   19  N   UNL     1      42.628  -8.607  12.747  1.00  0.00    -0.328 N 
HETATM   20  C   UNL     1      42.145  -8.861  14.019  1.00  0.00     0.218 C 
HETATM   21  C   UNL     1      41.723  -7.601  14.733  1.00  0.00     0.117 C 
HETATM   22  O   UNL     1      42.075  -9.951  14.574  1.00  0.00    -0.274 OA
HETATM   23  H   UNL     1      42.668  -7.635  12.464  1.00  0.00     0.169 HD
ENDBRANCH  16  19
ENDBRANCH  10  13
ENDBRANCH   8   9
ENDBRANCH   4   7
BRANCH   2  24
HETATM   24  C   UNL     1      41.908 -14.294   0.977  1.00  0.00     0.276 C 
BRANCH  24  25
HETATM   25  N   UNL     1      40.683 -15.001   0.423  1.00  0.00    -0.066 N 
HETATM   26  H   UNL     1      41.070 -15.950   0.293  1.00  0.00     0.280 HD
HETATM   27  C   UNL     1      39.563 -15.155   1.430  1.00  0.00     0.246 C 
HETATM   28  C   UNL     1      38.521 -14.020   1.363  1.00  0.00     0.062 C 
HETATM   29  C   UNL     1      37.972 -13.917  -0.056  1.00  0.00     0.020 C 
HETATM   30  C   UNL     1      39.091 -12.688   1.813  1.00  0.00     0.020 A 
HETATM   31  C   UNL     1      39.126 -13.517  -0.962  1.00  0.00     0.031 C 
HETATM   32  C   UNL     1      39.621 -12.124  -0.568  1.00  0.00     0.138 C 
HETATM   33  C   UNL     1      40.227 -14.583  -0.953  1.00  0.00     0.241 C 
HETATM   34  N   UNL     1      39.674 -11.842   0.866  1.00  0.00    -0.317 N 
HETATM   35  C   UNL     1      40.239 -10.605   1.215  1.00  0.00     0.247 A 
HETATM   36  O   UNL     1      40.772  -9.846   0.410  1.00  0.00    -0.268 OA
HETATM   37  C   UNL     1      40.197 -10.241   2.651  1.00  0.00     0.074 A 
HETATM   38  C   UNL     1      39.624 -11.067   3.532  1.00  0.00     0.007 A 
HETATM   39  C   UNL     1      39.053 -12.318   3.106  1.00  0.00     0.026 A 
ENDBRANCH  24  25
ENDBRANCH   2  24
BRANCH   1  40
HETATM   40  O   UNL     1      43.105 -16.772   1.323  1.00  0.00    -0.351 OA
BRANCH  40  41
HETATM   41  C   UNL     1      44.015 -17.878   1.375  1.00  0.00     0.171 C 
HETATM   42  C   UNL     1      43.216 -19.116   1.739  1.00  0.00     0.034 C 
ENDBRANCH  40  41
ENDBRANCH   1  40
TORSDOF 8
ENDMDL
MODEL 5
REMARK VINA RESULT:      -8.2      3.545     10.321
REMARK  8 active torsions:
REMARK  status: ('A' for Active; 'I' for Inactive)
REMARK    1  A    between atoms: C_2  and  O_3 
REMARK    2  A    between atoms: O_3  and  C_4 
REMARK    3  A    between atoms: C_5  and  C_6 
REMARK    4  A    between atoms: C_6  and  N_7 
REMARK    5  A    between atoms: C_23  and  C_24 
REMARK    6  A    between atoms: N_25  and  N_26 
REMARK       I    between atoms: N_26  and  C_27 
REMARK    7  A    between atoms: C_27  and  C_28 
REMARK    8  A    between atoms: C_31  and  N_32 
REMARK       I    between atoms: N_32  and  C_33 
ROOT
HETATM    1  C   UNL     1      43.511 -13.624   6.628  1.00  0.00     0.076 A 
HETATM    2  C   UNL     1      43.606 -14.565   5.588  1.00  0.00     0.002 A 
HETATM    3  C   UNL     1      42.771 -14.443   4.468  1.00  0.00     0.024 A 
HETATM    4  C   UNL     1      41.858 -13.391   4.375  1.00  0.00    -0.016 A 
HETATM    5  C   UNL     1      41.747 -12.471   5.415  1.00  0.00     0.016 A 
HETATM    6  C   UNL     1      42.573 -12.589   6.542  1.00  0.00     0.038 A 
ENDROOT
BRANCH   4   7
HETATM    7  C   UNL     1      41.040 -13.231   3.152  1.00  0.00     0.150 C 
HETATM    8  N   UNL     1      41.290 -13.964   2.117  1.00  0.00    -0.184 NA
BRANCH   8   9
HETATM    9  N   UNL     1      40.537 -13.826   0.985  1.00  0.00    -0.243 N 
HETATM   10  C   UNL     1      40.640 -14.570  -0.183  1.00  0.00     0.271 C 
HETATM   11  O   UNL     1      41.418 -15.497  -0.384  1.00  0.00    -0.266 OA
HETATM   12  H   UNL     1      40.066 -12.927   0.935  1.00  0.00     0.192 HD
BRANCH  10  13
HETATM   13  C   UNL     1      39.733 -14.130  -1.283  1.00  0.00     0.033 A 
HETATM   14  C   UNL     1      39.822 -14.662  -2.575  1.00  0.00     0.019 A 
HETATM   15  C   UNL     1      38.940 -14.238  -3.576  1.00  0.00     0.030 A 
HETATM   16  C   UNL     1      37.968 -13.273  -3.306  1.00  0.00     0.034 A 
HETATM   17  C   UNL     1      37.900 -12.723  -2.020  1.00  0.00     0.030 A 
HETATM   18  C   UNL     1      38.778 -13.145  -1.015  1.00  0.00     0.019 A 
BRANCH  16  19
HETATM   19  N   UNL     1      37.043 -12.802  -4.261  1.00  0.00    -0.328 N 
HETATM   20  C   UNL     1      36.060 -13.530  -4.909  1.00  0.00     0.218 C 
HETATM   21  C   UNL     1      35.262 -12.684  -5.870  1.00  0.00     0.117 C 
HETATM   22  O   UNL     1      35.792 -14.714  -4.744  1.00  0.00    -0.274 OA
HETATM   23  H   UNL     1      37.091 -11.814  -4.478  1.00  0.00     0.169 HD
ENDBRANCH  16  19
ENDBRANCH  10  13
ENDBRANCH   8   9
ENDBRANCH   4   7
BRANCH   2  24
HETATM   24  C   UNL     1      44.603 -15.692   5.635  1.00  0.00     0.276 C 
BRANCH  24  25
HETATM   25  N   UNL     1      44.404 -16.643   6.802  1.00  0.00    -0.066 N 
HETATM   26  H   UNL     1      44.745 -16.049   7.575  1.00  0.00     0.280 HD
HETATM   27  C   UNL     1      42.950 -16.922   7.117  1.00  0.00     0.246 C 
HETATM   28  C   UNL     1      42.407 -18.191   6.428  1.00  0.00     0.062 C 
HETATM   29  C   UNL     1      43.286 -19.383   6.793  1.00  0.00     0.020 C 
HETATM   30  C   UNL     1      42.320 -18.035   4.921  1.00  0.00     0.020 A 
HETATM   31  C   UNL     1      44.670 -19.120   6.220  1.00  0.00     0.031 C 
HETATM   32  C   UNL     1      44.586 -19.074   4.694  1.00  0.00     0.138 C 
HETATM   33  C   UNL     1      45.291 -17.863   6.838  1.00  0.00     0.241 C 
HETATM   34  N   UNL     1      43.414 -18.402   4.134  1.00  0.00    -0.317 N 
HETATM   35  C   UNL     1      43.410 -18.265   2.737  1.00  0.00     0.247 A 
HETATM   36  O   UNL     1      44.359 -18.564   2.018  1.00  0.00    -0.268 OA
HETATM   37  C   UNL     1      42.182 -17.697   2.132  1.00  0.00     0.074 A 
HETATM   38  C   UNL     1      41.148 -17.363   2.910  1.00  0.00     0.007 A 
HETATM   39  C   UNL     1      41.214 -17.540   4.338  1.00  0.00     0.026 A 
ENDBRANCH  24  25
ENDBRANCH   2  24
BRANCH   1  40
HETATM   40  O   UNL     1      44.414 -13.794   7.649  1.00  0.00    -0.351 OA
BRANCH  40  41
HETATM   41  C   UNL     1      44.711 -12.636   8.441  1.00  0.00     0.171 C 
HETATM   42  C   UNL     1      46.188 -12.327   8.270  1.00  0.00     0.034 C 
ENDBRANCH  40  41
ENDBRANCH   1  40
TORSDOF 8
ENDMDL
MODEL 6
REMARK VINA RESULT:      -8.0      4.352      9.622
REMARK  8 active torsions:
REMARK  status: ('A' for Active; 'I' for Inactive)
REMARK    1  A    between atoms: C_2  and  O_3 
REMARK    2  A    between atoms: O_3  and  C_4 
REMARK    3  A    between atoms: C_5  and  C_6 
REMARK    4  A    between atoms: C_6  and  N_7 
REMARK    5  A    between atoms: C_23  and  C_24 
REMARK    6  A    between atoms: N_25  and  N_26 
REMARK       I    between atoms: N_26  and  C_27 
REMARK    7  A    between atoms: C_27  and  C_28 
REMARK    8  A    between atoms: C_31  and  N_32 
REMARK       I    between atoms: N_32  and  C_33 
ROOT
HETATM    1  C   UNL     1      44.760 -20.317   3.566  1.00  0.00     0.076 A 
HETATM    2  C   UNL     1      44.567 -18.946   3.812  1.00  0.00     0.002 A 
HETATM    3  C   UNL     1      43.917 -18.157   2.852  1.00  0.00     0.024 A 
HETATM    4  C   UNL     1      43.452 -18.723   1.663  1.00  0.00    -0.016 A 
HETATM    5  C   UNL     1      43.663 -20.077   1.409  1.00  0.00     0.016 A 
HETATM    6  C   UNL     1      44.318 -20.872   2.360  1.00  0.00     0.038 A 
ENDROOT
BRANCH   4   7
HETATM    7  C   UNL     1      42.699 -17.894   0.697  1.00  0.00     0.150 C 
HETATM    8  N   UNL     1      41.578 -17.357   1.054  1.00  0.00    -0.184 NA
BRANCH   8   9
HETATM    9  N   UNL     1      40.878 -16.586   0.169  1.00  0.00    -0.243 N 
HETATM   10  C   UNL     1      41.141 -15.268  -0.180  1.00  0.00     0.271 C 
HETATM   11  O   UNL     1      42.066 -14.580   0.239  1.00  0.00    -0.266 OA
HETATM   12  H   UNL     1      39.948 -16.951  -0.018  1.00  0.00     0.192 HD
BRANCH  10  13
HETATM   13  C   UNL     1      40.149 -14.662  -1.114  1.00  0.00     0.033 A 
HETATM   14  C   UNL     1      39.048 -13.929  -0.654  1.00  0.00     0.019 A 
HETATM   15  C   UNL     1      38.149 -13.359  -1.563  1.00  0.00     0.030 A 
HETATM   16  C   UNL     1      38.328 -13.521  -2.939  1.00  0.00     0.034 A 
HETATM   17  C   UNL     1      39.414 -14.278  -3.394  1.00  0.00     0.030 A 
HETATM   18  C   UNL     1      40.318 -14.848  -2.490  1.00  0.00     0.019 A 
BRANCH  16  19
HETATM   19  N   UNL     1      37.468 -12.971  -3.912  1.00  0.00    -0.328 N 
HETATM   20  C   UNL     1      36.456 -13.617  -4.600  1.00  0.00     0.218 C 
HETATM   21  C   UNL     1      35.751 -12.703  -5.570  1.00  0.00     0.117 C 
HETATM   22  O   UNL     1      36.100 -14.782  -4.462  1.00  0.00    -0.274 OA
HETATM   23  H   UNL     1      37.594 -11.986  -4.112  1.00  0.00     0.169 HD
ENDBRANCH  16  19
ENDBRANCH  10  13
ENDBRANCH   8   9
ENDBRANCH   4   7
BRANCH   2  24
HETATM   24  C   UNL     1      45.021 -18.306   5.096  1.00  0.00     0.276 C 
BRANCH  24  25
HETATM   25  N   UNL     1      44.216 -18.725   6.313  1.00  0.00    -0.066 N 
HETATM   26  H   UNL     1      44.653 -19.641   6.508  1.00  0.00     0.280 HD
HETATM   27  C   UNL     1      44.484 -17.880   7.540  1.00  0.00     0.246 C 
HETATM   28  C   UNL     1      43.491 -16.711   7.706  1.00  0.00     0.062 C 
HETATM   29  C   UNL     1      42.065 -17.253   7.714  1.00  0.00     0.020 C 
HETATM   30  C   UNL     1      43.656 -15.659   6.626  1.00  0.00     0.020 A 
HETATM   31  C   UNL     1      41.805 -17.869   6.348  1.00  0.00     0.031 C 
HETATM   32  C   UNL     1      41.866 -16.777   5.279  1.00  0.00     0.138 C 
HETATM   33  C   UNL     1      42.758 -19.040   6.083  1.00  0.00     0.241 C 
HETATM   34  N   UNL     1      42.912 -15.769   5.448  1.00  0.00    -0.317 N 
HETATM   35  C   UNL     1      43.029 -14.843   4.399  1.00  0.00     0.247 A 
HETATM   36  O   UNL     1      42.401 -14.919   3.347  1.00  0.00    -0.268 OA
HETATM   37  C   UNL     1      43.998 -13.739   4.598  1.00  0.00     0.074 A 
HETATM   38  C   UNL     1      44.689 -13.655   5.739  1.00  0.00     0.007 A 
HETATM   39  C   UNL     1      44.512 -14.633   6.781  1.00  0.00     0.026 A 
ENDBRANCH  24  25
ENDBRANCH   2  24
BRANCH   1  40
HETATM   40  O   UNL     1      45.348 -21.014   4.592  1.00  0.00    -0.351 OA
BRANCH  40  41
HETATM   41  C   UNL     1      44.809 -22.311   4.878  1.00  0.00     0.171 C 
HETATM   42  C   UNL     1      44.252 -22.276   6.290  1.00  0.00     0.034 C 
ENDBRANCH  40  41
ENDBRANCH   1  40
TORSDOF 8
ENDMDL
MODEL 7
REMARK VINA RESULT:      -7.9      3.414      4.350
REMARK  8 active torsions:
REMARK  status: ('A' for Active; 'I' for Inactive)
REMARK    1  A    between atoms: C_2  and  O_3 
REMARK    2  A    between atoms: O_3  and  C_4 
REMARK    3  A    between atoms: C_5  and  C_6 
REMARK    4  A    between atoms: C_6  and  N_7 
REMARK    5  A    between atoms: C_23  and  C_24 
REMARK    6  A    between atoms: N_25  and  N_26 
REMARK       I    between atoms: N_26  and  C_27 
REMARK    7  A    between atoms: C_27  and  C_28 
REMARK    8  A    between atoms: C_31  and  N_32 
REMARK       I    between atoms: N_32  and  C_33 
ROOT
HETATM    1  C   UNL     1      41.388 -16.741   2.613  1.00  0.00     0.076 A 
HETATM    2  C   UNL     1      41.366 -15.354   2.378  1.00  0.00     0.002 A 
HETATM    3  C   UNL     1      41.172 -14.475   3.453  1.00  0.00     0.024 A 
HETATM    4  C   UNL     1      41.013 -14.964   4.751  1.00  0.00    -0.016 A 
HETATM    5  C   UNL     1      41.012 -16.337   4.982  1.00  0.00     0.016 A 
HETATM    6  C   UNL     1      41.198 -17.225   3.913  1.00  0.00     0.038 A 
ENDROOT
BRANCH   4   7
HETATM    7  C   UNL     1      40.889 -14.020   5.884  1.00  0.00     0.150 C 
HETATM    8  N   UNL     1      39.715 -13.648   6.280  1.00  0.00    -0.184 NA
BRANCH   8   9
HETATM    9  N   UNL     1      39.593 -12.780   7.328  1.00  0.00    -0.243 N 
HETATM   10  C   UNL     1      39.438 -11.402   7.258  1.00  0.00     0.271 C 
HETATM   11  O   UNL     1      39.366 -10.733   6.232  1.00  0.00    -0.266 OA
HETATM   12  H   UNL     1      39.916 -13.178   8.206  1.00  0.00     0.192 HD
BRANCH  10  13
HETATM   13  C   UNL     1      39.415 -10.710   8.580  1.00  0.00     0.033 A 
HETATM   14  C   UNL     1      38.723  -9.509   8.776  1.00  0.00     0.019 A 
HETATM   15  C   UNL     1      38.707  -8.900  10.036  1.00  0.00     0.030 A 
HETATM   16  C   UNL     1      39.389  -9.473  11.112  1.00  0.00     0.034 A 
HETATM   17  C   UNL     1      40.102 -10.660  10.905  1.00  0.00     0.030 A 
HETATM   18  C   UNL     1      40.119 -11.274   9.648  1.00  0.00     0.019 A 
BRANCH  16  19
HETATM   19  N   UNL     1      39.413  -8.921  12.410  1.00  0.00    -0.328 N 
HETATM   20  C   UNL     1      40.268  -7.946  12.892  1.00  0.00     0.218 C 
HETATM   21  C   UNL     1      39.995  -7.611  14.337  1.00  0.00     0.117 C 
HETATM   22  O   UNL     1      41.141  -7.357  12.265  1.00  0.00    -0.274 OA
HETATM   23  H   UNL     1      38.709  -9.264  13.052  1.00  0.00     0.169 HD
ENDBRANCH  16  19
ENDBRANCH  10  13
ENDBRANCH   8   9
ENDBRANCH   4   7
BRANCH   2  24
HETATM   24  C   UNL     1      41.570 -14.788   0.999  1.00  0.00     0.276 C 
BRANCH  24  25
HETATM   25  N   UNL     1      40.507 -15.203  -0.002  1.00  0.00    -0.066 N 
HETATM   26  H   UNL     1      40.274 -16.140   0.365  1.00  0.00     0.280 HD
HETATM   27  C   UNL     1      39.228 -14.400   0.100  1.00  0.00     0.246 C 
HETATM   28  C   UNL     1      39.184 -13.195  -0.863  1.00  0.00     0.062 C 
HETATM   29  C   UNL     1      39.415 -13.679  -2.291  1.00  0.00     0.020 C 
HETATM   30  C   UNL     1      40.193 -12.125  -0.493  1.00  0.00     0.020 A 
HETATM   31  C   UNL     1      40.823 -14.251  -2.356  1.00  0.00     0.031 C 
HETATM   32  C   UNL     1      41.836 -13.137  -2.088  1.00  0.00     0.138 C 
HETATM   33  C   UNL     1      40.971 -15.453  -1.416  1.00  0.00     0.241 C 
HETATM   34  N   UNL     1      41.475 -12.177  -1.046  1.00  0.00    -0.317 N 
HETATM   35  C   UNL     1      42.465 -11.231  -0.732  1.00  0.00     0.247 A 
HETATM   36  O   UNL     1      43.604 -11.256  -1.189  1.00  0.00    -0.268 OA
HETATM   37  C   UNL     1      42.083 -10.172   0.233  1.00  0.00     0.074 A 
HETATM   38  C   UNL     1      40.847 -10.144   0.739  1.00  0.00     0.007 A 
HETATM   39  C   UNL     1      39.876 -11.139   0.366  1.00  0.00     0.026 A 
ENDBRANCH  24  25
ENDBRANCH   2  24
BRANCH   1  40
HETATM   40  O   UNL     1      41.647 -17.514   1.509  1.00  0.00    -0.351 OA
BRANCH  40  41
HETATM   41  C   UNL     1      42.775 -18.393   1.591  1.00  0.00     0.171 C 
HETATM   42  C   UNL     1      44.024 -17.565   1.347  1.00  0.00     0.034 C 
ENDBRANCH  40  41
ENDBRANCH   1  40
TORSDOF 8
ENDMDL
MODEL 8
REMARK VINA RESULT:      -7.9      4.665     11.426
REMARK  8 active torsions:
REMARK  status: ('A' for Active; 'I' for Inactive)
REMARK    1  A    between atoms: C_2  and  O_3 
REMARK    2  A    between atoms: O_3  and  C_4 
REMARK    3  A    between atoms: C_5  and  C_6 
REMARK    4  A    between atoms: C_6  and  N_7 
REMARK    5  A    between atoms: C_23  and  C_24 
REMARK    6  A    between atoms: N_25  and  N_26 
REMARK       I    between atoms: N_26  and  C_27 
REMARK    7  A    between atoms: C_27  and  C_28 
REMARK    8  A    between atoms: C_31  and  N_32 
REMARK       I    between atoms: N_32  and  C_33 
ROOT
HETATM    1  C   UNL     1      41.146 -12.204   5.389  1.00  0.00     0.076 A 
HETATM    2  C   UNL     1      41.476 -13.178   4.430  1.00  0.00     0.002 A 
HETATM    3  C   UNL     1      40.754 -13.236   3.229  1.00  0.00     0.024 A 
HETATM    4  C   UNL     1      39.722 -12.330   2.976  1.00  0.00    -0.016 A 
HETATM    5  C   UNL     1      39.380 -11.380   3.935  1.00  0.00     0.016 A 
HETATM    6  C   UNL     1      40.091 -11.318   5.141  1.00  0.00     0.038 A 
ENDROOT
BRANCH   4   7
HETATM    7  C   UNL     1      39.024 -12.355   1.672  1.00  0.00     0.150 C 
HETATM    8  N   UNL     1      38.861 -13.480   1.056  1.00  0.00    -0.184 NA
BRANCH   8   9
HETATM    9  N   UNL     1      38.213 -13.512  -0.147  1.00  0.00    -0.243 N 
HETATM   10  C   UNL     1      38.755 -13.854  -1.379  1.00  0.00     0.271 C 
HETATM   11  O   UNL     1      39.910 -14.208  -1.588  1.00  0.00    -0.266 OA
HETATM   12  H   UNL     1      37.348 -12.978  -0.140  1.00  0.00     0.192 HD
BRANCH  10  13
HETATM   13  C   UNL     1      37.818 -13.714  -2.532  1.00  0.00     0.033 A 
HETATM   14  C   UNL     1      37.182 -12.502  -2.828  1.00  0.00     0.019 A 
HETATM   15  C   UNL     1      36.325 -12.405  -3.930  1.00  0.00     0.030 A 
HETATM   16  C   UNL     1      36.080 -13.514  -4.742  1.00  0.00     0.034 A 
HETATM   17  C   UNL     1      36.696 -14.732  -4.426  1.00  0.00     0.030 A 
HETATM   18  C   UNL     1      37.556 -14.834  -3.327  1.00  0.00     0.019 A 
BRANCH  16  19
HETATM   19  N   UNL     1      35.235 -13.490  -5.871  1.00  0.00    -0.328 N 
HETATM   20  C   UNL     1      35.309 -12.637  -6.958  1.00  0.00     0.218 C 
HETATM   21  C   UNL     1      34.226 -12.909  -7.972  1.00  0.00     0.117 C 
HETATM   22  O   UNL     1      36.148 -11.766  -7.154  1.00  0.00    -0.274 OA
HETATM   23  H   UNL     1      34.506 -14.193  -5.895  1.00  0.00     0.169 HD
ENDBRANCH  16  19
ENDBRANCH  10  13
ENDBRANCH   8   9
ENDBRANCH   4   7
BRANCH   2  24
HETATM   24  C   UNL     1      42.605 -14.148   4.651  1.00  0.00     0.276 C 
BRANCH  24  25
HETATM   25  N   UNL     1      42.345 -15.156   5.756  1.00  0.00    -0.066 N 
HETATM   26  H   UNL     1      42.225 -14.514   6.557  1.00  0.00     0.280 HD
HETATM   27  C   UNL     1      41.024 -15.882   5.619  1.00  0.00     0.246 C 
HETATM   28  C   UNL     1      41.142 -17.231   4.879  1.00  0.00     0.062 C 
HETATM   29  C   UNL     1      42.178 -18.104   5.579  1.00  0.00     0.020 C 
HETATM   30  C   UNL     1      41.494 -17.055   3.414  1.00  0.00     0.020 A 
HETATM   31  C   UNL     1      43.523 -17.406   5.451  1.00  0.00     0.031 C 
HETATM   32  C   UNL     1      43.918 -17.333   3.976  1.00  0.00     0.138 C 
HETATM   33  C   UNL     1      43.503 -16.041   6.149  1.00  0.00     0.241 C 
HETATM   34  N   UNL     1      42.839 -17.036   3.034  1.00  0.00    -0.317 N 
HETATM   35  C   UNL     1      43.237 -16.857   1.700  1.00  0.00     0.247 A 
HETATM   36  O   UNL     1      44.409 -16.822   1.335  1.00  0.00    -0.268 OA
HETATM   37  C   UNL     1      42.153 -16.675   0.706  1.00  0.00     0.074 A 
HETATM   38  C   UNL     1      40.876 -16.706   1.098  1.00  0.00     0.007 A 
HETATM   39  C   UNL     1      40.535 -16.905   2.483  1.00  0.00     0.026 A 
ENDBRANCH  24  25
ENDBRANCH   2  24
BRANCH   1  40
HETATM   40  O   UNL     1      41.951 -12.188   6.501  1.00  0.00    -0.351 OA
BRANCH  40  41
HETATM   41  C   UNL     1      41.789 -11.078   7.394  1.00  0.00     0.171 C 
HETATM   42  C   UNL     1      42.908 -11.143   8.418  1.00  0.00     0.034 C 
ENDBRANCH  40  41
ENDBRANCH   1  40
TORSDOF 8
ENDMDL
MODEL 9
REMARK VINA RESULT:      -7.6      4.483      8.356
REMARK  8 active torsions:
REMARK  status: ('A' for Active; 'I' for Inactive)
REMARK    1  A    between atoms: C_2  and  O_3 
REMARK    2  A    between atoms: O_3  and  C_4 
REMARK    3  A    between atoms: C_5  and  C_6 
REMARK    4  A    between atoms: C_6  and  N_7 
REMARK    5  A    between atoms: C_23  and  C_24 
REMARK    6  A    between atoms: N_25  and  N_26 
REMARK       I    between atoms: N_26  and  C_27 
REMARK    7  A    between atoms: C_27  and  C_28 
REMARK    8  A    between atoms: C_31  and  N_32 
REMARK       I    between atoms: N_32  and  C_33 
ROOT
HETATM    1  C   UNL     1      42.633 -18.319   1.936  1.00  0.00     0.076 A 
HETATM    2  C   UNL     1      42.784 -17.246   2.832  1.00  0.00     0.002 A 
HETATM    3  C   UNL     1      41.806 -16.243   2.879  1.00  0.00     0.024 A 
HETATM    4  C   UNL     1      40.681 -16.308   2.053  1.00  0.00    -0.016 A 
HETATM    5  C   UNL     1      40.542 -17.358   1.149  1.00  0.00     0.016 A 
HETATM    6  C   UNL     1      41.518 -18.363   1.091  1.00  0.00     0.038 A 
ENDROOT
BRANCH   4   7
HETATM    7  C   UNL     1      39.620 -15.284   2.171  1.00  0.00     0.150 C 
HETATM    8  N   UNL     1      39.379 -14.496   1.174  1.00  0.00    -0.184 NA
BRANCH   8   9
HETATM    9  N   UNL     1      38.398 -13.551   1.273  1.00  0.00    -0.243 N 
HETATM   10  C   UNL     1      38.372 -12.306   0.658  1.00  0.00     0.271 C 
HETATM   11  O   UNL     1      39.226 -11.855  -0.098  1.00  0.00    -0.266 OA
HETATM   12  H   UNL     1      37.794 -13.696   2.077  1.00  0.00     0.192 HD
BRANCH  10  13
HETATM   13  C   UNL     1      37.202 -11.455   1.024  1.00  0.00     0.033 A 
HETATM   14  C   UNL     1      37.290 -10.452   1.997  1.00  0.00     0.019 A 
HETATM   15  C   UNL     1      36.174  -9.661   2.298  1.00  0.00     0.030 A 
HETATM   16  C   UNL     1      34.958  -9.867   1.645  1.00  0.00     0.034 A 
HETATM   17  C   UNL     1      34.867 -10.890   0.692  1.00  0.00     0.030 A 
HETATM   18  C   UNL     1      35.979 -11.682   0.385  1.00  0.00     0.019 A 
BRANCH  16  19
HETATM   19  N   UNL     1      33.796  -9.107   1.891  1.00  0.00    -0.328 N 
HETATM   20  C   UNL     1      32.699  -9.471   2.654  1.00  0.00     0.218 C 
HETATM   21  C   UNL     1      31.642  -8.396   2.684  1.00  0.00     0.117 C 
HETATM   22  O   UNL     1      32.556 -10.512   3.284  1.00  0.00    -0.274 OA
HETATM   23  H   UNL     1      33.774  -8.182   1.481  1.00  0.00     0.169 HD
ENDBRANCH  16  19
ENDBRANCH  10  13
ENDBRANCH   8   9
ENDBRANCH   4   7
BRANCH   2  24
HETATM   24  C   UNL     1      43.963 -17.160   3.763  1.00  0.00     0.276 C 
BRANCH  24  25
HETATM   25  N   UNL     1      43.979 -18.231   4.839  1.00  0.00    -0.066 N 
HETATM   26  H   UNL     1      44.390 -19.014   4.304  1.00  0.00     0.280 HD
HETATM   27  C   UNL     1      44.957 -17.952   5.961  1.00  0.00     0.246 C 
HETATM   28  C   UNL     1      44.317 -17.229   7.164  1.00  0.00     0.062 C 
HETATM   29  C   UNL     1      43.124 -18.037   7.665  1.00  0.00     0.020 C 
HETATM   30  C   UNL     1      43.897 -15.811   6.827  1.00  0.00     0.020 A 
HETATM   31  C   UNL     1      42.087 -18.055   6.552  1.00  0.00     0.031 C 
HETATM   32  C   UNL     1      41.592 -16.632   6.297  1.00  0.00     0.138 C 
HETATM   33  C   UNL     1      42.638 -18.747   5.300  1.00  0.00     0.241 C 
HETATM   34  N   UNL     1      42.606 -15.579   6.346  1.00  0.00    -0.317 N 
HETATM   35  C   UNL     1      42.157 -14.296   5.995  1.00  0.00     0.247 A 
HETATM   36  O   UNL     1      41.035 -14.060   5.556  1.00  0.00    -0.268 OA
HETATM   37  C   UNL     1      43.132 -13.190   6.151  1.00  0.00     0.074 A 
HETATM   38  C   UNL     1      44.357 -13.441   6.622  1.00  0.00     0.007 A 
HETATM   39  C   UNL     1      44.750 -14.782   6.974  1.00  0.00     0.026 A 
ENDBRANCH  24  25
ENDBRANCH   2  24
BRANCH   1  40
HETATM   40  O   UNL     1      43.610 -19.281   2.011  1.00  0.00    -0.351 OA
BRANCH  40  41
HETATM   41  C   UNL     1      43.167 -20.644   2.050  1.00  0.00     0.171 C 
HETATM   42  C   UNL     1      44.365 -21.527   1.750  1.00  0.00     0.034 C 
ENDBRANCH  40  41
ENDBRANCH   1  40
TORSDOF 8
ENDMDL
MODEL 10
REMARK VINA RESULT:      -7.6      6.050      9.860
REMARK  8 active torsions:
REMARK  status: ('A' for Active; 'I' for Inactive)
REMARK    1  A    between atoms: C_2  and  O_3 
REMARK    2  A    between atoms: O_3  and  C_4 
REMARK    3  A    between atoms: C_5  and  C_6 
REMARK    4  A    between atoms: C_6  and  N_7 
REMARK    5  A    between atoms: C_23  and  C_24 
REMARK    6  A    between atoms: N_25  and  N_26 
REMARK       I    between atoms: N_26  and  C_27 
REMARK    7  A    between atoms: C_27  and  C_28 
REMARK    8  A    between atoms: C_31  and  N_32 
REMARK       I    between atoms: N_32  and  C_33 
ROOT
HETATM    1  C   UNL     1      38.032 -10.317   1.697  1.00  0.00     0.076 A 
HETATM    2  C   UNL     1      38.874 -10.893   0.729  1.00  0.00     0.002 A 
HETATM    3  C   UNL     1      39.764 -11.909   1.105  1.00  0.00     0.024 A 
HETATM    4  C   UNL     1      39.813 -12.357   2.426  1.00  0.00    -0.016 A 
HETATM    5  C   UNL     1      38.996 -11.771   3.390  1.00  0.00     0.016 A 
HETATM    6  C   UNL     1      38.107 -10.751   3.025  1.00  0.00     0.038 A 
ENDROOT
BRANCH   4   7
HETATM    7  C   UNL     1      40.701 -13.483   2.790  1.00  0.00     0.150 C 
HETATM    8  N   UNL     1      40.422 -14.676   2.374  1.00  0.00    -0.184 NA
BRANCH   8   9
HETATM    9  N   UNL     1      41.240 -15.721   2.702  1.00  0.00    -0.243 N 
HETATM   10  C   UNL     1      42.035 -16.462   1.837  1.00  0.00     0.271 C 
HETATM   11  O   UNL     1      42.150 -16.284   0.629  1.00  0.00    -0.266 OA
HETATM   12  H   UNL     1      41.013 -16.128   3.605  1.00  0.00     0.192 HD
BRANCH  10  13
HETATM   13  C   UNL     1      42.757 -17.599   2.477  1.00  0.00     0.033 A 
HETATM   14  C   UNL     1      43.541 -18.492   1.736  1.00  0.00     0.019 A 
HETATM   15  C   UNL     1      44.220 -19.535   2.375  1.00  0.00     0.030 A 
HETATM   16  C   UNL     1      44.118 -19.711   3.757  1.00  0.00     0.034 A 
HETATM   17  C   UNL     1      43.311 -18.833   4.491  1.00  0.00     0.030 A 
HETATM   18  C   UNL     1      42.632 -17.786   3.858  1.00  0.00     0.019 A 
BRANCH  16  19
HETATM   19  N   UNL     1      44.776 -20.734   4.470  1.00  0.00    -0.328 N 
HETATM   20  C   UNL     1      44.816 -22.082   4.160  1.00  0.00     0.218 C 
HETATM   21  C   UNL     1      45.618 -22.875   5.161  1.00  0.00     0.117 C 
HETATM   22  O   UNL     1      44.312 -22.628   3.185  1.00  0.00    -0.274 OA
HETATM   23  H   UNL     1      45.297 -20.442   5.288  1.00  0.00     0.169 HD
ENDBRANCH  16  19
ENDBRANCH  10  13
ENDBRANCH   8   9
ENDBRANCH   4   7
BRANCH   2  24
HETATM   24  C   UNL     1      38.825 -10.461  -0.712  1.00  0.00     0.276 C 
BRANCH  24  25
HETATM   25  N   UNL     1      37.654 -11.037  -1.490  1.00  0.00    -0.066 N 
HETATM   26  H   UNL     1      36.887 -10.461  -1.107  1.00  0.00     0.280 HD
HETATM   27  C   UNL     1      37.696 -10.725  -2.970  1.00  0.00     0.246 C 
HETATM   28  C   UNL     1      38.363 -11.834  -3.810  1.00  0.00     0.062 C 
HETATM   29  C   UNL     1      37.659 -13.162  -3.549  1.00  0.00     0.020 C 
HETATM   30  C   UNL     1      39.849 -11.954  -3.529  1.00  0.00     0.020 A 
HETATM   31  C   UNL     1      37.882 -13.515  -2.086  1.00  0.00     0.031 C 
HETATM   32  C   UNL     1      39.374 -13.740  -1.841  1.00  0.00     0.138 C 
HETATM   33  C   UNL     1      37.261 -12.458  -1.165  1.00  0.00     0.241 C 
HETATM   34  N   UNL     1      40.285 -12.825  -2.527  1.00  0.00    -0.317 N 
HETATM   35  C   UNL     1      41.642 -12.970  -2.201  1.00  0.00     0.247 A 
HETATM   36  O   UNL     1      42.057 -13.715  -1.317  1.00  0.00    -0.268 OA
HETATM   37  C   UNL     1      42.599 -12.139  -2.969  1.00  0.00     0.074 A 
HETATM   38  C   UNL     1      42.153 -11.321  -3.928  1.00  0.00     0.007 A 
HETATM   39  C   UNL     1      40.746 -11.228  -4.220  1.00  0.00     0.026 A 
ENDBRANCH  24  25
ENDBRANCH   2  24
BRANCH   1  40
HETATM   40  O   UNL     1      37.153  -9.377   1.218  1.00  0.00    -0.351 OA
BRANCH  40  41
HETATM   41  C   UNL     1      35.827  -9.402   1.761  1.00  0.00     0.171 C 
HETATM   42  C   UNL     1      35.037 -10.450   0.999  1.00  0.00     0.034 C 
ENDBRANCH  40  41
ENDBRANCH   1  40
TORSDOF 8
ENDMDL
