MODEL 1
REMARK VINA RESULT:      -7.2      0.000      0.000
REMARK  5 active torsions:
REMARK  status: ('A' for Active; 'I' for Inactive)
REMARK    1  A    between atoms: C_12  and  N_13 
REMARK    2  A    between atoms: N_13  and  C_14 
REMARK    3  A    between atoms: C_14  and  C_15 
REMARK    4  A    between atoms: C_15  and  N_16 
REMARK       I    between atoms: N_16  and  C_17 
REMARK    5  A    between atoms: C_17  and  C_18 
ROOT
HETATM    1  C   UNL     1      43.158 -16.882   1.753  1.00  0.00     0.025 A 
HETATM    2  C   UNL     1      41.890 -16.407   1.442  1.00  0.00     0.036 A 
HETATM    3 CL   UNL     1      41.429 -16.202  -0.199  1.00  0.00    -0.084 Cl
HETATM    4  C   UNL     1      40.981 -16.107   2.453  1.00  0.00     0.054 A 
HETATM    5  C   UNL     1      41.349 -16.282   3.795  1.00  0.00     0.046 A 
HETATM    6  C   UNL     1      42.640 -16.751   4.149  1.00  0.00     0.017 A 
HETATM    7  C   UNL     1      43.527 -17.053   3.091  1.00  0.00     0.018 A 
HETATM    8  N   UNL     1      40.457 -16.018   4.767  1.00  0.00    -0.365 N 
HETATM    9  H   UNL     1      39.529 -15.690   4.503  1.00  0.00     0.165 HD
HETATM   10  C   UNL     1      40.723 -16.189   6.066  1.00  0.00     0.090 A 
HETATM   11  C   UNL     1      41.965 -16.646   6.470  1.00  0.00     0.047 A 
HETATM   12  C   UNL     1      42.960 -16.920   5.526  1.00  0.00     0.042 A 
ENDROOT
BRANCH  12  13
HETATM   13  N   UNL     1      44.194 -17.456   5.891  1.00  0.00    -0.388 N 
HETATM   14  H   UNL     1      44.968 -16.794   5.874  1.00  0.00     0.159 HD
BRANCH  13  15
HETATM   15  C   UNL     1      44.342 -18.510   6.901  1.00  0.00     0.139 C 
BRANCH  15  16
HETATM   16  C   UNL     1      44.329 -19.896   6.231  1.00  0.00     0.142 C 
BRANCH  16  17
HETATM   17  N   UNL     1      44.612 -19.875   4.807  1.00  0.00    -0.359 N 
HETATM   18  C   UNL     1      44.720 -21.044   4.091  1.00  0.00     0.221 C 
HETATM   19  O   UNL     1      44.764 -22.158   4.596  1.00  0.00    -0.273 OA
HETATM   20  H   UNL     1      44.403 -19.030   4.291  1.00  0.00     0.162 HD
BRANCH  18  21
HETATM   21  C   UNL     1      44.738 -20.857   2.616  1.00  0.00     0.078 A 
HETATM   22  C   UNL     1      44.142 -21.898   1.697  1.00  0.00     0.015 A 
HETATM   23  C   UNL     1      43.438 -20.587   1.892  1.00  0.00     0.015 A 
ENDBRANCH  18  21
ENDBRANCH  16  17
ENDBRANCH  15  16
ENDBRANCH  13  15
ENDBRANCH  12  13
TORSDOF 5
ENDMDL
MODEL 2
REMARK VINA RESULT:      -7.2      4.311      6.658
REMARK  5 active torsions:
REMARK  status: ('A' for Active; 'I' for Inactive)
REMARK    1  A    between atoms: C_12  and  N_13 
REMARK    2  A    between atoms: N_13  and  C_14 
REMARK    3  A    between atoms: C_14  and  C_15 
REMARK    4  A    between atoms: C_15  and  N_16 
REMARK       I    between atoms: N_16  and  C_17 
REMARK    5  A    between atoms: C_17  and  C_18 
ROOT
HETATM    1  C   UNL     1      44.723 -20.383   3.746  1.00  0.00     0.025 A 
HETATM    2  C   UNL     1      44.019 -20.559   2.562  1.00  0.00     0.036 A 
HETATM    3 CL   UNL     1      44.263 -21.974   1.620  1.00  0.00    -0.084 Cl
HETATM    4  C   UNL     1      43.104 -19.600   2.136  1.00  0.00     0.054 A 
HETATM    5  C   UNL     1      42.893 -18.448   2.905  1.00  0.00     0.046 A 
HETATM    6  C   UNL     1      43.605 -18.228   4.112  1.00  0.00     0.017 A 
HETATM    7  C   UNL     1      44.517 -19.232   4.513  1.00  0.00     0.018 A 
HETATM    8  N   UNL     1      41.986 -17.539   2.504  1.00  0.00    -0.365 N 
HETATM    9  H   UNL     1      41.473 -17.708   1.640  1.00  0.00     0.165 HD
HETATM   10  C   UNL     1      41.708 -16.430   3.199  1.00  0.00     0.090 A 
HETATM   11  C   UNL     1      42.370 -16.166   4.385  1.00  0.00     0.047 A 
HETATM   12  C   UNL     1      43.347 -17.046   4.862  1.00  0.00     0.042 A 
ENDROOT
BRANCH  12  13
HETATM   13  N   UNL     1      43.976 -16.851   6.091  1.00  0.00    -0.388 N 
HETATM   14  H   UNL     1      44.975 -17.054   6.094  1.00  0.00     0.159 HD
BRANCH  13  15
HETATM   15  C   UNL     1      43.586 -15.797   7.032  1.00  0.00     0.139 C 
BRANCH  15  16
HETATM   16  C   UNL     1      44.625 -14.661   7.022  1.00  0.00     0.142 C 
BRANCH  16  17
HETATM   17  N   UNL     1      44.464 -13.694   8.092  1.00  0.00    -0.359 N 
HETATM   18  C   UNL     1      45.395 -12.701   8.294  1.00  0.00     0.221 C 
HETATM   19  O   UNL     1      46.481 -12.655   7.733  1.00  0.00    -0.273 OA
HETATM   20  H   UNL     1      43.534 -13.543   8.464  1.00  0.00     0.162 HD
BRANCH  18  21
HETATM   21  C   UNL     1      44.960 -11.638   9.238  1.00  0.00     0.078 A 
HETATM   22  C   UNL     1      44.031 -11.956  10.386  1.00  0.00     0.015 A 
HETATM   23  C   UNL     1      45.476 -11.658  10.658  1.00  0.00     0.015 A 
ENDBRANCH  18  21
ENDBRANCH  16  17
ENDBRANCH  15  16
ENDBRANCH  13  15
ENDBRANCH  12  13
TORSDOF 5
ENDMDL
MODEL 3
REMARK VINA RESULT:      -7.2      3.727      6.326
REMARK  5 active torsions:
REMARK  status: ('A' for Active; 'I' for Inactive)
REMARK    1  A    between atoms: C_12  and  N_13 
REMARK    2  A    between atoms: N_13  and  C_14 
REMARK    3  A    between atoms: C_14  and  C_15 
REMARK    4  A    between atoms: C_15  and  N_16 
REMARK       I    between atoms: N_16  and  C_17 
REMARK    5  A    between atoms: C_17  and  C_18 
ROOT
HETATM    1  C   UNL     1      43.461 -19.499   1.905  1.00  0.00     0.025 A 
HETATM    2  C   UNL     1      44.089 -20.623   2.428  1.00  0.00     0.036 A 
HETATM    3 CL   UNL     1      44.295 -22.022   1.454  1.00  0.00    -0.084 Cl
HETATM    4  C   UNL     1      44.566 -20.621   3.736  1.00  0.00     0.054 A 
HETATM    5  C   UNL     1      44.409 -19.478   4.532  1.00  0.00     0.046 A 
HETATM    6  C   UNL     1      43.761 -18.318   4.036  1.00  0.00     0.017 A 
HETATM    7  C   UNL     1      43.301 -18.360   2.700  1.00  0.00     0.018 A 
HETATM    8  N   UNL     1      44.898 -19.470   5.786  1.00  0.00    -0.365 N 
HETATM    9  H   UNL     1      45.370 -20.305   6.132  1.00  0.00     0.165 HD
HETATM   10  C   UNL     1      44.814 -18.409   6.595  1.00  0.00     0.090 A 
HETATM   11  C   UNL     1      44.194 -17.249   6.163  1.00  0.00     0.047 A 
HETATM   12  C   UNL     1      43.635 -17.180   4.883  1.00  0.00     0.042 A 
ENDROOT
BRANCH  12  13
HETATM   13  N   UNL     1      43.074 -16.004   4.387  1.00  0.00    -0.388 N 
HETATM   14  H   UNL     1      43.042 -15.944   3.371  1.00  0.00     0.159 HD
BRANCH  13  15
HETATM   15  C   UNL     1      41.977 -15.297   5.055  1.00  0.00     0.139 C 
BRANCH  15  16
HETATM   16  C   UNL     1      42.425 -13.882   5.464  1.00  0.00     0.142 C 
BRANCH  16  17
HETATM   17  N   UNL     1      43.037 -13.805   6.778  1.00  0.00    -0.359 N 
HETATM   18  C   UNL     1      44.390 -13.602   6.917  1.00  0.00     0.221 C 
HETATM   19  O   UNL     1      45.190 -13.645   5.991  1.00  0.00    -0.273 OA
HETATM   20  H   UNL     1      42.447 -13.570   7.567  1.00  0.00     0.162 HD
BRANCH  18  21
HETATM   21  C   UNL     1      44.820 -13.276   8.302  1.00  0.00     0.078 A 
HETATM   22  C   UNL     1      45.983 -12.344   8.552  1.00  0.00     0.015 A 
HETATM   23  C   UNL     1      44.584 -11.881   8.838  1.00  0.00     0.015 A 
ENDBRANCH  18  21
ENDBRANCH  16  17
ENDBRANCH  15  16
ENDBRANCH  13  15
ENDBRANCH  12  13
TORSDOF 5
ENDMDL
MODEL 4
REMARK VINA RESULT:      -7.1      3.167      5.394
REMARK  5 active torsions:
REMARK  status: ('A' for Active; 'I' for Inactive)
REMARK    1  A    between atoms: C_12  and  N_13 
REMARK    2  A    between atoms: N_13  and  C_14 
REMARK    3  A    between atoms: C_14  and  C_15 
REMARK    4  A    between atoms: C_15  and  N_16 
REMARK       I    between atoms: N_16  and  C_17 
REMARK    5  A    between atoms: C_17  and  C_18 
ROOT
HETATM    1  C   UNL     1      43.198 -18.969   3.901  1.00  0.00     0.025 A 
HETATM    2  C   UNL     1      43.869 -19.218   2.710  1.00  0.00     0.036 A 
HETATM    3 CL   UNL     1      44.967 -20.534   2.602  1.00  0.00    -0.084 Cl
HETATM    4  C   UNL     1      43.649 -18.414   1.596  1.00  0.00     0.054 A 
HETATM    5  C   UNL     1      42.747 -17.344   1.675  1.00  0.00     0.046 A 
HETATM    6  C   UNL     1      42.055 -17.052   2.878  1.00  0.00     0.017 A 
HETATM    7  C   UNL     1      42.300 -17.900   3.983  1.00  0.00     0.018 A 
HETATM    8  N   UNL     1      42.516 -16.588   0.586  1.00  0.00    -0.365 N 
HETATM    9  H   UNL     1      43.011 -16.810  -0.277  1.00  0.00     0.165 HD
HETATM   10  C   UNL     1      41.649 -15.570   0.575  1.00  0.00     0.090 A 
HETATM   11  C   UNL     1      40.944 -15.242   1.720  1.00  0.00     0.047 A 
HETATM   12  C   UNL     1      41.143 -15.960   2.904  1.00  0.00     0.042 A 
ENDROOT
BRANCH  12  13
HETATM   13  N   UNL     1      40.393 -15.708   4.053  1.00  0.00    -0.388 N 
HETATM   14  H   UNL     1      40.567 -16.351   4.823  1.00  0.00     0.159 HD
BRANCH  13  15
HETATM   15  C   UNL     1      40.021 -14.357   4.485  1.00  0.00     0.139 C 
BRANCH  15  16
HETATM   16  C   UNL     1      41.154 -13.734   5.323  1.00  0.00     0.142 C 
BRANCH  16  17
HETATM   17  N   UNL     1      41.900 -14.689   6.121  1.00  0.00    -0.359 N 
HETATM   18  C   UNL     1      43.271 -14.767   6.030  1.00  0.00     0.221 C 
HETATM   19  O   UNL     1      43.936 -14.193   5.177  1.00  0.00    -0.273 OA
HETATM   20  H   UNL     1      41.469 -15.050   6.962  1.00  0.00     0.162 HD
BRANCH  18  21
HETATM   21  C   UNL     1      43.908 -15.587   7.093  1.00  0.00     0.078 A 
HETATM   22  C   UNL     1      43.255 -16.858   7.586  1.00  0.00     0.015 A 
HETATM   23  C   UNL     1      44.488 -16.937   6.734  1.00  0.00     0.015 A 
ENDBRANCH  18  21
ENDBRANCH  16  17
ENDBRANCH  15  16
ENDBRANCH  13  15
ENDBRANCH  12  13
TORSDOF 5
ENDMDL
MODEL 5
REMARK VINA RESULT:      -7.0      3.047      5.551
REMARK  5 active torsions:
REMARK  status: ('A' for Active; 'I' for Inactive)
REMARK    1  A    between atoms: C_12  and  N_13 
REMARK    2  A    between atoms: N_13  and  C_14 
REMARK    3  A    between atoms: C_14  and  C_15 
REMARK    4  A    between atoms: C_15  and  N_16 
REMARK       I    between atoms: N_16  and  C_17 
REMARK    5  A    between atoms: C_17  and  C_18 
ROOT
HETATM    1  C   UNL     1      43.160 -19.354   2.073  1.00  0.00     0.025 A 
HETATM    2  C   UNL     1      43.918 -20.435   2.503  1.00  0.00     0.036 A 
HETATM    3 CL   UNL     1      44.101 -21.812   1.493  1.00  0.00    -0.084 Cl
HETATM    4  C   UNL     1      44.543 -20.408   3.747  1.00  0.00     0.054 A 
HETATM    5  C   UNL     1      44.406 -19.283   4.571  1.00  0.00     0.046 A 
HETATM    6  C   UNL     1      43.628 -18.166   4.170  1.00  0.00     0.017 A 
HETATM    7  C   UNL     1      43.019 -18.232   2.895  1.00  0.00     0.018 A 
HETATM    8  N   UNL     1      45.037 -19.249   5.759  1.00  0.00    -0.365 N 
HETATM    9  H   UNL     1      45.601 -20.052   6.036  1.00  0.00     0.165 HD
HETATM   10  C   UNL     1      44.978 -18.200   6.587  1.00  0.00     0.090 A 
HETATM   11  C   UNL     1      44.237 -17.083   6.246  1.00  0.00     0.047 A 
HETATM   12  C   UNL     1      43.528 -17.044   5.040  1.00  0.00     0.042 A 
ENDROOT
BRANCH  12  13
HETATM   13  N   UNL     1      42.836 -15.906   4.629  1.00  0.00    -0.388 N 
HETATM   14  H   UNL     1      42.298 -16.022   3.771  1.00  0.00     0.159 HD
BRANCH  13  15
HETATM   15  C   UNL     1      42.250 -14.943   5.567  1.00  0.00     0.139 C 
BRANCH  15  16
HETATM   16  C   UNL     1      40.713 -15.045   5.546  1.00  0.00     0.142 C 
BRANCH  16  17
HETATM   17  N   UNL     1      40.164 -15.529   4.292  1.00  0.00    -0.359 N 
HETATM   18  C   UNL     1      39.829 -14.655   3.284  1.00  0.00     0.221 C 
HETATM   19  O   UNL     1      39.796 -13.438   3.412  1.00  0.00    -0.273 OA
HETATM   20  H   UNL     1      40.336 -16.493   4.035  1.00  0.00     0.162 HD
BRANCH  18  21
HETATM   21  C   UNL     1      39.543 -15.308   1.979  1.00  0.00     0.078 A 
HETATM   22  C   UNL     1      39.870 -14.613   0.678  1.00  0.00     0.015 A 
HETATM   23  C   UNL     1      40.697 -15.784   1.125  1.00  0.00     0.015 A 
ENDBRANCH  18  21
ENDBRANCH  16  17
ENDBRANCH  15  16
ENDBRANCH  13  15
ENDBRANCH  12  13
TORSDOF 5
ENDMDL
MODEL 6
REMARK VINA RESULT:      -6.8      4.646      6.954
REMARK  5 active torsions:
REMARK  status: ('A' for Active; 'I' for Inactive)
REMARK    1  A    between atoms: C_12  and  N_13 
REMARK    2  A    between atoms: N_13  and  C_14 
REMARK    3  A    between atoms: C_14  and  C_15 
REMARK    4  A    between atoms: C_15  and  N_16 
REMARK       I    between atoms: N_16  and  C_17 
REMARK    5  A    between atoms: C_17  and  C_18 
ROOT
HETATM    1  C   UNL     1      44.345 -20.430   2.784  1.00  0.00     0.025 A 
HETATM    2  C   UNL     1      44.576 -20.429   4.154  1.00  0.00     0.036 A 
HETATM    3 CL   UNL     1      45.177 -21.842   4.923  1.00  0.00    -0.084 Cl
HETATM    4  C   UNL     1      44.334 -19.286   4.909  1.00  0.00     0.054 A 
HETATM    5  C   UNL     1      43.852 -18.127   4.284  1.00  0.00     0.046 A 
HETATM    6  C   UNL     1      43.592 -18.096   2.890  1.00  0.00     0.017 A 
HETATM    7  C   UNL     1      43.861 -19.276   2.160  1.00  0.00     0.018 A 
HETATM    8  N   UNL     1      43.648 -17.015   5.014  1.00  0.00    -0.365 N 
HETATM    9  H   UNL     1      43.845 -17.043   6.014  1.00  0.00     0.165 HD
HETATM   10  C   UNL     1      43.219 -15.864   4.486  1.00  0.00     0.090 A 
HETATM   11  C   UNL     1      42.952 -15.775   3.131  1.00  0.00     0.047 A 
HETATM   12  C   UNL     1      43.112 -16.891   2.303  1.00  0.00     0.042 A 
ENDROOT
BRANCH  12  13
HETATM   13  N   UNL     1      42.929 -16.816   0.923  1.00  0.00    -0.388 N 
HETATM   14  H   UNL     1      43.662 -17.260   0.372  1.00  0.00     0.159 HD
BRANCH  13  15
HETATM   15  C   UNL     1      41.607 -16.857   0.288  1.00  0.00     0.139 C 
BRANCH  15  16
HETATM   16  C   UNL     1      41.327 -15.530  -0.443  1.00  0.00     0.142 C 
BRANCH  16  17
HETATM   17  N   UNL     1      40.552 -15.673  -1.662  1.00  0.00    -0.359 N 
HETATM   18  C   UNL     1      40.023 -14.572  -2.296  1.00  0.00     0.221 C 
HETATM   19  O   UNL     1      40.004 -13.446  -1.815  1.00  0.00    -0.273 OA
HETATM   20  H   UNL     1      40.680 -16.511  -2.215  1.00  0.00     0.162 HD
BRANCH  18  21
HETATM   21  C   UNL     1      39.497 -14.845  -3.659  1.00  0.00     0.078 A 
HETATM   22  C   UNL     1      39.085 -16.242  -4.064  1.00  0.00     0.015 A 
HETATM   23  C   UNL     1      38.036 -15.194  -3.829  1.00  0.00     0.015 A 
ENDBRANCH  18  21
ENDBRANCH  16  17
ENDBRANCH  15  16
ENDBRANCH  13  15
ENDBRANCH  12  13
TORSDOF 5
ENDMDL
MODEL 7
REMARK VINA RESULT:      -6.6      4.170      6.758
REMARK  5 active torsions:
REMARK  status: ('A' for Active; 'I' for Inactive)
REMARK    1  A    between atoms: C_12  and  N_13 
REMARK    2  A    between atoms: N_13  and  C_14 
REMARK    3  A    between atoms: C_14  and  C_15 
REMARK    4  A    between atoms: C_15  and  N_16 
REMARK       I    between atoms: N_16  and  C_17 
REMARK    5  A    between atoms: C_17  and  C_18 
ROOT
HETATM    1  C   UNL     1      42.541 -17.223   5.976  1.00  0.00     0.025 A 
HETATM    2  C   UNL     1      43.402 -17.940   6.798  1.00  0.00     0.036 A 
HETATM    3 CL   UNL     1      43.527 -17.544   8.464  1.00  0.00    -0.084 Cl
HETATM    4  C   UNL     1      44.159 -18.988   6.283  1.00  0.00     0.054 A 
HETATM    5  C   UNL     1      44.054 -19.322   4.925  1.00  0.00     0.046 A 
HETATM    6  C   UNL     1      43.195 -18.603   4.055  1.00  0.00     0.017 A 
HETATM    7  C   UNL     1      42.438 -17.552   4.621  1.00  0.00     0.018 A 
HETATM    8  N   UNL     1      44.765 -20.356   4.439  1.00  0.00    -0.365 N 
HETATM    9  H   UNL     1      45.372 -20.873   5.073  1.00  0.00     0.165 HD
HETATM   10  C   UNL     1      44.695 -20.753   3.164  1.00  0.00     0.090 A 
HETATM   11  C   UNL     1      43.873 -20.090   2.270  1.00  0.00     0.047 A 
HETATM   12  C   UNL     1      43.118 -18.988   2.686  1.00  0.00     0.042 A 
ENDROOT
BRANCH  12  13
HETATM   13  N   UNL     1      42.221 -18.346   1.834  1.00  0.00    -0.388 N 
HETATM   14  H   UNL     1      41.274 -18.259   2.201  1.00  0.00     0.159 HD
BRANCH  13  15
HETATM   15  C   UNL     1      42.610 -17.251   0.939  1.00  0.00     0.139 C 
BRANCH  15  16
HETATM   16  C   UNL     1      41.397 -16.349   0.642  1.00  0.00     0.142 C 
BRANCH  16  17
HETATM   17  N   UNL     1      41.014 -16.304  -0.757  1.00  0.00    -0.359 N 
HETATM   18  C   UNL     1      41.126 -15.141  -1.483  1.00  0.00     0.221 C 
HETATM   19  O   UNL     1      41.375 -14.047  -0.994  1.00  0.00    -0.273 OA
HETATM   20  H   UNL     1      40.986 -17.175  -1.273  1.00  0.00     0.162 HD
BRANCH  18  21
HETATM   21  C   UNL     1      40.958 -15.318  -2.950  1.00  0.00     0.078 A 
HETATM   22  C   UNL     1      39.760 -16.050  -3.509  1.00  0.00     0.015 A 
HETATM   23  C   UNL     1      39.861 -14.560  -3.662  1.00  0.00     0.015 A 
ENDBRANCH  18  21
ENDBRANCH  16  17
ENDBRANCH  15  16
ENDBRANCH  13  15
ENDBRANCH  12  13
TORSDOF 5
ENDMDL
MODEL 8
REMARK VINA RESULT:      -6.6      3.371      5.101
REMARK  5 active torsions:
REMARK  status: ('A' for Active; 'I' for Inactive)
REMARK    1  A    between atoms: C_12  and  N_13 
REMARK    2  A    between atoms: N_13  and  C_14 
REMARK    3  A    between atoms: C_14  and  C_15 
REMARK    4  A    between atoms: C_15  and  N_16 
REMARK       I    between atoms: N_16  and  C_17 
REMARK    5  A    between atoms: C_17  and  C_18 
ROOT
HETATM    1  C   UNL     1      42.187 -18.259   5.280  1.00  0.00     0.025 A 
HETATM    2  C   UNL     1      43.122 -17.892   6.240  1.00  0.00     0.036 A 
HETATM    3 CL   UNL     1      44.117 -19.086   6.969  1.00  0.00    -0.084 Cl
HETATM    4  C   UNL     1      43.268 -16.558   6.608  1.00  0.00     0.054 A 
HETATM    5  C   UNL     1      42.465 -15.577   6.009  1.00  0.00     0.046 A 
HETATM    6  C   UNL     1      41.491 -15.917   5.036  1.00  0.00     0.017 A 
HETATM    7  C   UNL     1      41.383 -17.282   4.683  1.00  0.00     0.018 A 
HETATM    8  N   UNL     1      42.631 -14.285   6.348  1.00  0.00    -0.365 N 
HETATM    9  H   UNL     1      43.339 -14.049   7.042  1.00  0.00     0.165 HD
HETATM   10  C   UNL     1      41.925 -13.291   5.799  1.00  0.00     0.090 A 
HETATM   11  C   UNL     1      40.963 -13.564   4.842  1.00  0.00     0.047 A 
HETATM   12  C   UNL     1      40.707 -14.882   4.451  1.00  0.00     0.042 A 
ENDROOT
BRANCH  12  13
HETATM   13  N   UNL     1      39.803 -15.187   3.434  1.00  0.00    -0.388 N 
HETATM   14  H   UNL     1      38.939 -15.624   3.751  1.00  0.00     0.159 HD
BRANCH  13  15
HETATM   15  C   UNL     1      39.640 -14.361   2.233  1.00  0.00     0.139 C 
BRANCH  15  16
HETATM   16  C   UNL     1      40.121 -15.130   0.988  1.00  0.00     0.142 C 
BRANCH  16  17
HETATM   17  N   UNL     1      41.455 -15.688   1.109  1.00  0.00    -0.359 N 
HETATM   18  C   UNL     1      41.663 -17.045   1.021  1.00  0.00     0.221 C 
HETATM   19  O   UNL     1      40.767 -17.879   1.015  1.00  0.00    -0.273 OA
HETATM   20  H   UNL     1      42.245 -15.083   0.925  1.00  0.00     0.162 HD
BRANCH  18  21
HETATM   21  C   UNL     1      43.091 -17.437   0.890  1.00  0.00     0.078 A 
HETATM   22  C   UNL     1      44.107 -17.020   1.928  1.00  0.00     0.015 A 
HETATM   23  C   UNL     1      43.668 -18.453   1.850  1.00  0.00     0.015 A 
ENDBRANCH  18  21
ENDBRANCH  16  17
ENDBRANCH  15  16
ENDBRANCH  13  15
ENDBRANCH  12  13
TORSDOF 5
ENDMDL
MODEL 9
REMARK VINA RESULT:      -6.5      3.835      6.919
REMARK  5 active torsions:
REMARK  status: ('A' for Active; 'I' for Inactive)
REMARK    1  A    between atoms: C_12  and  N_13 
REMARK    2  A    between atoms: N_13  and  C_14 
REMARK    3  A    between atoms: C_14  and  C_15 
REMARK    4  A    between atoms: C_15  and  N_16 
REMARK       I    between atoms: N_16  and  C_17 
REMARK    5  A    between atoms: C_17  and  C_18 
ROOT
HETATM    1  C   UNL     1      43.581 -17.326   6.161  1.00  0.00     0.025 A 
HETATM    2  C   UNL     1      44.118 -18.474   6.729  1.00  0.00     0.036 A 
HETATM    3 CL   UNL     1      44.392 -18.547   8.423  1.00  0.00    -0.084 Cl
HETATM    4  C   UNL     1      44.428 -19.575   5.935  1.00  0.00     0.054 A 
HETATM    5  C   UNL     1      44.199 -19.525   4.553  1.00  0.00     0.046 A 
HETATM    6  C   UNL     1      43.664 -18.364   3.938  1.00  0.00     0.017 A 
HETATM    7  C   UNL     1      43.354 -17.273   4.782  1.00  0.00     0.018 A 
HETATM    8  N   UNL     1      44.472 -20.602   3.796  1.00  0.00    -0.365 N 
HETATM    9  H   UNL     1      44.848 -21.435   4.247  1.00  0.00     0.165 HD
HETATM   10  C   UNL     1      44.252 -20.642   2.477  1.00  0.00     0.090 A 
HETATM   11  C   UNL     1      43.729 -19.539   1.824  1.00  0.00     0.047 A 
HETATM   12  C   UNL     1      43.441 -18.368   2.532  1.00  0.00     0.042 A 
ENDROOT
BRANCH  12  13
HETATM   13  N   UNL     1      42.840 -17.268   1.921  1.00  0.00    -0.388 N 
HETATM   14  H   UNL     1      43.466 -16.708   1.344  1.00  0.00     0.159 HD
BRANCH  13  15
HETATM   15  C   UNL     1      41.451 -17.272   1.452  1.00  0.00     0.139 C 
BRANCH  15  16
HETATM   16  C   UNL     1      40.542 -16.559   2.471  1.00  0.00     0.142 C 
BRANCH  16  17
HETATM   17  N   UNL     1      39.288 -16.080   1.921  1.00  0.00    -0.359 N 
HETATM   18  C   UNL     1      38.990 -14.737   1.905  1.00  0.00     0.221 C 
HETATM   19  O   UNL     1      39.643 -13.882   2.489  1.00  0.00    -0.273 OA
HETATM   20  H   UNL     1      38.796 -16.674   1.265  1.00  0.00     0.162 HD
BRANCH  18  21
HETATM   21  C   UNL     1      37.810 -14.383   1.073  1.00  0.00     0.078 A 
HETATM   22  C   UNL     1      37.478 -12.938   0.777  1.00  0.00     0.015 A 
HETATM   23  C   UNL     1      38.029 -13.814  -0.311  1.00  0.00     0.015 A 
ENDBRANCH  18  21
ENDBRANCH  16  17
ENDBRANCH  15  16
ENDBRANCH  13  15
ENDBRANCH  12  13
TORSDOF 5
ENDMDL
MODEL 10
REMARK VINA RESULT:      -6.3      3.374      5.694
REMARK  5 active torsions:
REMARK  status: ('A' for Active; 'I' for Inactive)
REMARK    1  A    between atoms: C_12  and  N_13 
REMARK    2  A    between atoms: N_13  and  C_14 
REMARK    3  A    between atoms: C_14  and  C_15 
REMARK    4  A    between atoms: C_15  and  N_16 
REMARK       I    between atoms: N_16  and  C_17 
REMARK    5  A    between atoms: C_17  and  C_18 
ROOT
HETATM    1  C   UNL     1      43.137 -18.940   2.524  1.00  0.00     0.025 A 
HETATM    2  C   UNL     1      44.007 -19.673   3.322  1.00  0.00     0.036 A 
HETATM    3 CL   UNL     1      45.116 -20.769   2.601  1.00  0.00    -0.084 Cl
HETATM    4  C   UNL     1      43.997 -19.518   4.705  1.00  0.00     0.054 A 
HETATM    5  C   UNL     1      43.101 -18.618   5.298  1.00  0.00     0.046 A 
HETATM    6  C   UNL     1      42.189 -17.863   4.516  1.00  0.00     0.017 A 
HETATM    7  C   UNL     1      42.241 -18.044   3.115  1.00  0.00     0.018 A 
HETATM    8  N   UNL     1      43.115 -18.450   6.633  1.00  0.00    -0.365 N 
HETATM    9  H   UNL     1      43.779 -18.989   7.187  1.00  0.00     0.165 HD
HETATM   10  C   UNL     1      42.313 -17.589   7.268  1.00  0.00     0.090 A 
HETATM   11  C   UNL     1      41.405 -16.825   6.556  1.00  0.00     0.047 A 
HETATM   12  C   UNL     1      41.306 -16.956   5.167  1.00  0.00     0.042 A 
ENDROOT
BRANCH  12  13
HETATM   13  N   UNL     1      40.460 -16.147   4.409  1.00  0.00    -0.388 N 
HETATM   14  H   UNL     1      39.604 -16.603   4.096  1.00  0.00     0.159 HD
BRANCH  13  15
HETATM   15  C   UNL     1      40.310 -14.707   4.641  1.00  0.00     0.139 C 
BRANCH  15  16
HETATM   16  C   UNL     1      41.331 -13.922   3.796  1.00  0.00     0.142 C 
BRANCH  16  17
HETATM   17  N   UNL     1      42.701 -14.029   4.262  1.00  0.00    -0.359 N 
HETATM   18  C   UNL     1      43.074 -13.516   5.483  1.00  0.00     0.221 C 
HETATM   19  O   UNL     1      42.362 -12.799   6.174  1.00  0.00    -0.273 OA
HETATM   20  H   UNL     1      43.288 -14.750   3.862  1.00  0.00     0.162 HD
BRANCH  18  21
HETATM   21  C   UNL     1      44.425 -13.940   5.937  1.00  0.00     0.078 A 
HETATM   22  C   UNL     1      44.892 -13.656   7.346  1.00  0.00     0.015 A 
HETATM   23  C   UNL     1      44.546 -15.060   6.945  1.00  0.00     0.015 A 
ENDBRANCH  18  21
ENDBRANCH  16  17
ENDBRANCH  15  16
ENDBRANCH  13  15
ENDBRANCH  12  13
TORSDOF 5
ENDMDL
