MODEL 1
REMARK VINA RESULT:      -8.2      0.000      0.000
REMARK  7 active torsions:
REMARK  status: ('A' for Active; 'I' for Inactive)
REMARK    1  A    between atoms: C_2  and  N_3 
REMARK       I    between atoms: N_3  and  C_4 
REMARK    2  A    between atoms: C_4  and  C_5 
REMARK    3  A    between atoms: N_8  and  C_10 
REMARK    4  A    between atoms: C_10  and  N_11 
REMARK    5  A    between atoms: C_13  and  C_14 
REMARK    6  A    between atoms: C_14  and  N_15 
REMARK    7  A    between atoms: N_22  and  C_23 
ROOT
HETATM    1  N   UNL     1      40.934 -16.281   2.334  1.00  0.00    -0.216 N 
HETATM    2  N   UNL     1      41.929 -17.221   2.154  1.00  0.00    -0.153 NA
HETATM    3  C   UNL     1      42.757 -17.021   3.146  1.00  0.00     0.160 A 
HETATM    4  N   UNL     1      42.389 -16.032   3.999  1.00  0.00    -0.272 N 
HETATM    5  C   UNL     1      41.208 -15.509   3.480  1.00  0.00     0.204 A 
HETATM    6  S   UNL     1      40.190 -14.328   4.068  1.00  0.00    -0.038 SA
ENDROOT
BRANCH   1   7
HETATM    7  C   UNL     1      39.900 -16.062   1.334  1.00  0.00     0.388 C 
BRANCH   7   8
HETATM    8  N   UNL     1      40.224 -14.900   0.437  1.00  0.00    -0.053 N 
HETATM    9  C   UNL     1      41.070 -15.379  -0.719  1.00  0.00     0.237 C 
HETATM   10  C   UNL     1      41.438 -14.219  -1.634  1.00  0.00     0.042 C 
HETATM   11  C   UNL     1      40.197 -13.492  -2.150  1.00  0.00     0.081 C 
HETATM   12  C   UNL     1      39.336 -13.035  -0.969  1.00  0.00     0.042 C 
HETATM   13  C   UNL     1      38.988 -14.151   0.010  1.00  0.00     0.237 C 
HETATM   14  H   UNL     1      40.801 -14.261   1.003  1.00  0.00     0.281 HD
BRANCH  11  15
HETATM   15  C   UNL     1      39.420 -14.412  -3.086  1.00  0.00     0.221 C 
HETATM   16  N   UNL     1      38.060 -14.245  -3.054  1.00  0.00    -0.361 N 
HETATM   17  H   UNL     1      37.632 -13.747  -2.282  1.00  0.00     0.162 HD
HETATM   18  O   UNL     1      39.999 -15.148  -3.880  1.00  0.00    -0.273 OA
BRANCH  16  19
HETATM   19  C   UNL     1      37.175 -15.047  -3.882  1.00  0.00     0.118 C 
HETATM   20  C   UNL     1      36.175 -14.189  -4.635  1.00  0.00     0.026 C 
ENDBRANCH  16  19
ENDBRANCH  11  15
ENDBRANCH   7   8
ENDBRANCH   1   7
BRANCH   3  21
HETATM   21  C   UNL     1      44.061 -17.807   3.265  1.00  0.00     0.315 C 
BRANCH  21  22
HETATM   22  N   UNL     1      43.848 -19.324   3.203  1.00  0.00    -0.064 N 
HETATM   23  H   UNL     1      42.918 -19.493   3.616  1.00  0.00     0.280 HD
HETATM   24  C   UNL     1      43.807 -19.855   1.786  1.00  0.00     0.235 C 
HETATM   25  C   UNL     1      43.427 -21.329   1.818  1.00  0.00     0.028 C 
HETATM   26  C   UNL     1      44.388 -22.139   2.681  1.00  0.00     0.003 C 
HETATM   27  C   UNL     1      44.511 -21.545   4.080  1.00  0.00     0.028 C 
HETATM   28  C   UNL     1      44.867 -20.067   4.041  1.00  0.00     0.235 C 
ENDBRANCH  21  22
ENDBRANCH   3  21
BRANCH   4  29
HETATM   29  C   UNL     1      43.060 -15.641   5.181  1.00  0.00     0.043 A 
HETATM   30  C   UNL     1      43.016 -16.439   6.331  1.00  0.00     0.030 A 
HETATM   31  C   UNL     1      43.666 -16.037   7.500  1.00  0.00     0.002 A 
HETATM   32  C   UNL     1      44.370 -14.837   7.532  1.00  0.00     0.000 A 
HETATM   33  C   UNL     1      44.431 -14.039   6.396  1.00  0.00     0.002 A 
HETATM   34  C   UNL     1      43.780 -14.437   5.224  1.00  0.00     0.030 A 
ENDBRANCH   4  29
TORSDOF 7
ENDMDL
MODEL 2
REMARK VINA RESULT:      -8.0      1.201      1.661
REMARK  7 active torsions:
REMARK  status: ('A' for Active; 'I' for Inactive)
REMARK    1  A    between atoms: C_2  and  N_3 
REMARK       I    between atoms: N_3  and  C_4 
REMARK    2  A    between atoms: C_4  and  C_5 
REMARK    3  A    between atoms: N_8  and  C_10 
REMARK    4  A    between atoms: C_10  and  N_11 
REMARK    5  A    between atoms: C_13  and  C_14 
REMARK    6  A    between atoms: C_14  and  N_15 
REMARK    7  A    between atoms: N_22  and  C_23 
ROOT
HETATM    1  N   UNL     1      41.270 -15.882   1.784  1.00  0.00    -0.216 N 
HETATM    2  N   UNL     1      42.311 -16.729   1.457  1.00  0.00    -0.153 NA
HETATM    3  C   UNL     1      42.916 -16.963   2.593  1.00  0.00     0.160 A 
HETATM    4  N   UNL     1      42.353 -16.358   3.669  1.00  0.00    -0.272 N 
HETATM    5  C   UNL     1      41.284 -15.620   3.168  1.00  0.00     0.204 A 
HETATM    6  S   UNL     1      40.131 -14.706   3.950  1.00  0.00    -0.038 SA
ENDROOT
BRANCH   1   7
HETATM    7  C   UNL     1      40.453 -15.248   0.761  1.00  0.00     0.388 C 
BRANCH   7   8
HETATM    8  N   UNL     1      41.247 -14.931  -0.476  1.00  0.00    -0.053 N 
HETATM    9  C   UNL     1      40.563 -15.535  -1.679  1.00  0.00     0.237 C 
HETATM   10  C   UNL     1      41.357 -15.255  -2.948  1.00  0.00     0.042 C 
HETATM   11  C   UNL     1      41.575 -13.757  -3.157  1.00  0.00     0.081 C 
HETATM   12  C   UNL     1      42.245 -13.153  -1.920  1.00  0.00     0.042 C 
HETATM   13  C   UNL     1      41.518 -13.455  -0.614  1.00  0.00     0.237 C 
HETATM   14  H   UNL     1      42.152 -15.409  -0.358  1.00  0.00     0.281 HD
BRANCH  11  15
HETATM   15  C   UNL     1      40.238 -13.085  -3.454  1.00  0.00     0.221 C 
HETATM   16  N   UNL     1      39.181 -13.948  -3.587  1.00  0.00    -0.361 N 
HETATM   17  H   UNL     1      39.354 -14.935  -3.737  1.00  0.00     0.162 HD
HETATM   18  O   UNL     1      40.125 -11.862  -3.450  1.00  0.00    -0.273 OA
BRANCH  16  19
HETATM   19  C   UNL     1      37.841 -13.470  -3.876  1.00  0.00     0.118 C 
HETATM   20  C   UNL     1      36.878 -14.613  -4.139  1.00  0.00     0.026 C 
ENDBRANCH  16  19
ENDBRANCH  11  15
ENDBRANCH   7   8
ENDBRANCH   1   7
BRANCH   3  21
HETATM   21  C   UNL     1      44.193 -17.797   2.657  1.00  0.00     0.315 C 
BRANCH  21  22
HETATM   22  N   UNL     1      43.920 -19.286   2.896  1.00  0.00    -0.064 N 
HETATM   23  H   UNL     1      42.976 -19.335   3.309  1.00  0.00     0.280 HD
HETATM   24  C   UNL     1      43.884 -20.092   1.615  1.00  0.00     0.235 C 
HETATM   25  C   UNL     1      43.443 -21.514   1.933  1.00  0.00     0.028 C 
HETATM   26  C   UNL     1      44.354 -22.167   2.966  1.00  0.00     0.003 C 
HETATM   27  C   UNL     1      44.474 -21.307   4.220  1.00  0.00     0.028 C 
HETATM   28  C   UNL     1      44.892 -19.881   3.894  1.00  0.00     0.235 C 
ENDBRANCH  21  22
ENDBRANCH   3  21
BRANCH   4  29
HETATM   29  C   UNL     1      42.759 -16.482   5.018  1.00  0.00     0.043 A 
HETATM   30  C   UNL     1      43.563 -15.506   5.620  1.00  0.00     0.030 A 
HETATM   31  C   UNL     1      43.974 -15.645   6.948  1.00  0.00     0.002 A 
HETATM   32  C   UNL     1      43.585 -16.756   7.689  1.00  0.00     0.000 A 
HETATM   33  C   UNL     1      42.779 -17.729   7.108  1.00  0.00     0.002 A 
HETATM   34  C   UNL     1      42.367 -17.595   5.779  1.00  0.00     0.030 A 
ENDBRANCH   4  29
TORSDOF 7
ENDMDL
MODEL 3
REMARK VINA RESULT:      -7.8      1.663      1.998
REMARK  7 active torsions:
REMARK  status: ('A' for Active; 'I' for Inactive)
REMARK    1  A    between atoms: C_2  and  N_3 
REMARK       I    between atoms: N_3  and  C_4 
REMARK    2  A    between atoms: C_4  and  C_5 
REMARK    3  A    between atoms: N_8  and  C_10 
REMARK    4  A    between atoms: C_10  and  N_11 
REMARK    5  A    between atoms: C_13  and  C_14 
REMARK    6  A    between atoms: C_14  and  N_15 
REMARK    7  A    between atoms: N_22  and  C_23 
ROOT
HETATM    1  N   UNL     1      41.351 -15.907   1.665  1.00  0.00    -0.216 N 
HETATM    2  N   UNL     1      42.393 -16.766   1.375  1.00  0.00    -0.153 NA
HETATM    3  C   UNL     1      42.966 -16.992   2.530  1.00  0.00     0.160 A 
HETATM    4  N   UNL     1      42.380 -16.371   3.583  1.00  0.00    -0.272 N 
HETATM    5  C   UNL     1      41.330 -15.630   3.046  1.00  0.00     0.204 A 
HETATM    6  S   UNL     1      40.165 -14.699   3.787  1.00  0.00    -0.038 SA
ENDROOT
BRANCH   1   7
HETATM    7  C   UNL     1      40.565 -15.279   0.614  1.00  0.00     0.388 C 
BRANCH   7   8
HETATM    8  N   UNL     1      41.408 -14.925  -0.580  1.00  0.00    -0.053 N 
HETATM    9  C   UNL     1      40.793 -15.525  -1.823  1.00  0.00     0.237 C 
HETATM   10  C   UNL     1      41.638 -15.207  -3.049  1.00  0.00     0.042 C 
HETATM   11  C   UNL     1      41.830 -13.701  -3.226  1.00  0.00     0.081 C 
HETATM   12  C   UNL     1      42.428 -13.102  -1.951  1.00  0.00     0.042 C 
HETATM   13  C   UNL     1      41.650 -13.441  -0.684  1.00  0.00     0.237 C 
HETATM   14  H   UNL     1      42.318 -15.384  -0.428  1.00  0.00     0.281 HD
BRANCH  11  15
HETATM   15  C   UNL     1      40.493 -13.055  -3.574  1.00  0.00     0.221 C 
HETATM   16  N   UNL     1      40.569 -11.730  -3.918  1.00  0.00    -0.361 N 
HETATM   17  H   UNL     1      41.402 -11.199  -3.689  1.00  0.00     0.162 HD
HETATM   18  O   UNL     1      39.464 -13.721  -3.650  1.00  0.00    -0.273 OA
BRANCH  16  19
HETATM   19  C   UNL     1      39.386 -10.966  -4.272  1.00  0.00     0.118 C 
HETATM   20  C   UNL     1      39.739  -9.678  -4.993  1.00  0.00     0.026 C 
ENDBRANCH  16  19
ENDBRANCH  11  15
ENDBRANCH   7   8
ENDBRANCH   1   7
BRANCH   3  21
HETATM   21  C   UNL     1      44.235 -17.835   2.636  1.00  0.00     0.315 C 
BRANCH  21  22
HETATM   22  N   UNL     1      43.944 -19.318   2.888  1.00  0.00    -0.064 N 
HETATM   23  H   UNL     1      43.001 -19.351   3.305  1.00  0.00     0.280 HD
HETATM   24  C   UNL     1      43.894 -20.134   1.614  1.00  0.00     0.235 C 
HETATM   25  C   UNL     1      43.436 -21.548   1.945  1.00  0.00     0.028 C 
HETATM   26  C   UNL     1      44.342 -22.203   2.982  1.00  0.00     0.003 C 
HETATM   27  C   UNL     1      44.477 -21.335   4.228  1.00  0.00     0.028 C 
HETATM   28  C   UNL     1      44.911 -19.917   3.888  1.00  0.00     0.235 C 
ENDBRANCH  21  22
ENDBRANCH   3  21
BRANCH   4  29
HETATM   29  C   UNL     1      42.749 -16.482   4.944  1.00  0.00     0.043 A 
HETATM   30  C   UNL     1      42.310 -17.559   5.724  1.00  0.00     0.030 A 
HETATM   31  C   UNL     1      42.665 -17.652   7.071  1.00  0.00     0.002 A 
HETATM   32  C   UNL     1      43.465 -16.674   7.654  1.00  0.00     0.000 A 
HETATM   33  C   UNL     1      43.917 -15.603   6.890  1.00  0.00     0.002 A 
HETATM   34  C   UNL     1      43.562 -15.506   5.541  1.00  0.00     0.030 A 
ENDBRANCH   4  29
TORSDOF 7
ENDMDL
MODEL 4
REMARK VINA RESULT:      -7.6      3.518      5.051
REMARK  7 active torsions:
REMARK  status: ('A' for Active; 'I' for Inactive)
REMARK    1  A    between atoms: C_2  and  N_3 
REMARK       I    between atoms: N_3  and  C_4 
REMARK    2  A    between atoms: C_4  and  C_5 
REMARK    3  A    between atoms: N_8  and  C_10 
REMARK    4  A    between atoms: C_10  and  N_11 
REMARK    5  A    between atoms: C_13  and  C_14 
REMARK    6  A    between atoms: C_14  and  N_15 
REMARK    7  A    between atoms: N_22  and  C_23 
ROOT
HETATM    1  N   UNL     1      41.583 -15.200   5.243  1.00  0.00    -0.216 N 
HETATM    2  N   UNL     1      42.194 -16.342   5.722  1.00  0.00    -0.153 NA
HETATM    3  C   UNL     1      43.250 -15.908   6.362  1.00  0.00     0.160 A 
HETATM    4  N   UNL     1      43.390 -14.559   6.372  1.00  0.00    -0.272 N 
HETATM    5  C   UNL     1      42.324 -14.065   5.625  1.00  0.00     0.204 A 
HETATM    6  S   UNL     1      41.856 -12.499   5.302  1.00  0.00    -0.038 SA
ENDROOT
BRANCH   1   7
HETATM    7  C   UNL     1      40.456 -15.266   4.325  1.00  0.00     0.388 C 
BRANCH   7   8
HETATM    8  N   UNL     1      40.894 -15.578   2.921  1.00  0.00    -0.053 N 
HETATM    9  C   UNL     1      42.369 -15.284   2.779  1.00  0.00     0.237 C 
HETATM   10  C   UNL     1      42.840 -15.566   1.359  1.00  0.00     0.042 C 
HETATM   11  C   UNL     1      42.543 -17.006   0.941  1.00  0.00     0.081 C 
HETATM   12  C   UNL     1      41.050 -17.297   1.114  1.00  0.00     0.042 C 
HETATM   13  C   UNL     1      40.515 -16.976   2.505  1.00  0.00     0.237 C 
HETATM   14  H   UNL     1      40.384 -14.919   2.314  1.00  0.00     0.281 HD
BRANCH  11  15
HETATM   15  C   UNL     1      43.400 -17.962   1.764  1.00  0.00     0.221 C 
HETATM   16  N   UNL     1      43.222 -19.288   1.468  1.00  0.00    -0.361 N 
HETATM   17  H   UNL     1      42.403 -19.582   0.947  1.00  0.00     0.162 HD
HETATM   18  O   UNL     1      44.258 -17.544   2.537  1.00  0.00    -0.273 OA
BRANCH  16  19
HETATM   19  C   UNL     1      43.958 -20.329   2.165  1.00  0.00     0.118 C 
HETATM   20  C   UNL     1      43.588 -21.713   1.666  1.00  0.00     0.026 C 
ENDBRANCH  16  19
ENDBRANCH  11  15
ENDBRANCH   7   8
ENDBRANCH   1   7
BRANCH   3  21
HETATM   21  C   UNL     1      44.261 -16.875   6.974  1.00  0.00     0.315 C 
BRANCH  21  22
HETATM   22  N   UNL     1      43.977 -18.338   6.616  1.00  0.00    -0.064 N 
HETATM   23  H   UNL     1      43.052 -18.340   6.159  1.00  0.00     0.280 HD
HETATM   24  C   UNL     1      44.966 -18.903   5.620  1.00  0.00     0.235 C 
HETATM   25  C   UNL     1      44.510 -20.294   5.199  1.00  0.00     0.028 C 
HETATM   26  C   UNL     1      44.351 -21.220   6.400  1.00  0.00     0.003 C 
HETATM   27  C   UNL     1      43.435 -20.607   7.454  1.00  0.00     0.028 C 
HETATM   28  C   UNL     1      43.882 -19.209   7.852  1.00  0.00     0.235 C 
ENDBRANCH  21  22
ENDBRANCH   3  21
BRANCH   4  29
HETATM   29  C   UNL     1      44.398 -13.819   7.032  1.00  0.00     0.043 A 
HETATM   30  C   UNL     1      44.149 -13.205   8.267  1.00  0.00     0.030 A 
HETATM   31  C   UNL     1      45.144 -12.461   8.904  1.00  0.00     0.002 A 
HETATM   32  C   UNL     1      46.399 -12.324   8.318  1.00  0.00     0.000 A 
HETATM   33  C   UNL     1      46.664 -12.935   7.097  1.00  0.00     0.002 A 
HETATM   34  C   UNL     1      45.670 -13.679   6.456  1.00  0.00     0.030 A 
ENDBRANCH   4  29
TORSDOF 7
ENDMDL
MODEL 5
REMARK VINA RESULT:      -7.6      2.039      3.156
REMARK  7 active torsions:
REMARK  status: ('A' for Active; 'I' for Inactive)
REMARK    1  A    between atoms: C_2  and  N_3 
REMARK       I    between atoms: N_3  and  C_4 
REMARK    2  A    between atoms: C_4  and  C_5 
REMARK    3  A    between atoms: N_8  and  C_10 
REMARK    4  A    between atoms: C_10  and  N_11 
REMARK    5  A    between atoms: C_13  and  C_14 
REMARK    6  A    between atoms: C_14  and  N_15 
REMARK    7  A    between atoms: N_22  and  C_23 
ROOT
HETATM    1  N   UNL     1      40.488 -12.896   3.545  1.00  0.00    -0.216 N 
HETATM    2  N   UNL     1      41.366 -13.502   2.666  1.00  0.00    -0.153 NA
HETATM    3  C   UNL     1      42.070 -14.314   3.411  1.00  0.00     0.160 A 
HETATM    4  N   UNL     1      41.724 -14.324   4.723  1.00  0.00    -0.272 N 
HETATM    5  C   UNL     1      40.703 -13.385   4.848  1.00  0.00     0.204 A 
HETATM    6  S   UNL     1      39.780 -12.951   6.165  1.00  0.00    -0.038 SA
ENDROOT
BRANCH   1   7
HETATM    7  C   UNL     1      39.638 -11.790   3.132  1.00  0.00     0.388 C 
BRANCH   7   8
HETATM    8  N   UNL     1      38.619 -12.215   2.112  1.00  0.00    -0.053 N 
HETATM    9  C   UNL     1      38.772 -11.371   0.868  1.00  0.00     0.237 C 
HETATM   10  C   UNL     1      37.735 -11.761  -0.177  1.00  0.00     0.042 C 
HETATM   11  C   UNL     1      37.820 -13.245  -0.530  1.00  0.00     0.081 C 
HETATM   12  C   UNL     1      37.690 -14.088   0.742  1.00  0.00     0.042 C 
HETATM   13  C   UNL     1      38.669 -13.698   1.844  1.00  0.00     0.237 C 
HETATM   14  H   UNL     1      37.700 -12.000   2.525  1.00  0.00     0.281 HD
BRANCH  11  15
HETATM   15  C   UNL     1      39.133 -13.522  -1.254  1.00  0.00     0.221 C 
HETATM   16  N   UNL     1      39.652 -14.773  -1.040  1.00  0.00    -0.361 N 
HETATM   17  H   UNL     1      39.316 -15.331  -0.263  1.00  0.00     0.162 HD
HETATM   18  O   UNL     1      39.604 -12.716  -2.051  1.00  0.00    -0.273 OA
BRANCH  16  19
HETATM   19  C   UNL     1      40.900 -15.195  -1.651  1.00  0.00     0.118 C 
HETATM   20  C   UNL     1      40.677 -15.830  -3.011  1.00  0.00     0.026 C 
ENDBRANCH  16  19
ENDBRANCH  11  15
ENDBRANCH   7   8
ENDBRANCH   1   7
BRANCH   3  21
HETATM   21  C   UNL     1      43.230 -15.120   2.831  1.00  0.00     0.315 C 
BRANCH  21  22
HETATM   22  N   UNL     1      42.927 -16.620   2.743  1.00  0.00    -0.064 N 
HETATM   23  H   UNL     1      41.994 -16.742   3.165  1.00  0.00     0.280 HD
HETATM   24  C   UNL     1      42.836 -17.120   1.317  1.00  0.00     0.235 C 
HETATM   25  C   UNL     1      42.369 -18.569   1.325  1.00  0.00     0.028 C 
HETATM   26  C   UNL     1      43.291 -19.451   2.158  1.00  0.00     0.003 C 
HETATM   27  C   UNL     1      43.467 -18.894   3.567  1.00  0.00     0.028 C 
HETATM   28  C   UNL     1      43.910 -17.439   3.552  1.00  0.00     0.235 C 
ENDBRANCH  21  22
ENDBRANCH   3  21
BRANCH   4  29
HETATM   29  C   UNL     1      42.273 -15.141   5.737  1.00  0.00     0.043 A 
HETATM   30  C   UNL     1      43.497 -14.821   6.337  1.00  0.00     0.030 A 
HETATM   31  C   UNL     1      44.041 -15.644   7.326  1.00  0.00     0.002 A 
HETATM   32  C   UNL     1      43.367 -16.793   7.729  1.00  0.00     0.000 A 
HETATM   33  C   UNL     1      42.146 -17.119   7.150  1.00  0.00     0.002 A 
HETATM   34  C   UNL     1      41.600 -16.299   6.158  1.00  0.00     0.030 A 
ENDBRANCH   4  29
TORSDOF 7
ENDMDL
MODEL 6
REMARK VINA RESULT:      -7.5      4.625      8.517
REMARK  7 active torsions:
REMARK  status: ('A' for Active; 'I' for Inactive)
REMARK    1  A    between atoms: C_2  and  N_3 
REMARK       I    between atoms: N_3  and  C_4 
REMARK    2  A    between atoms: C_4  and  C_5 
REMARK    3  A    between atoms: N_8  and  C_10 
REMARK    4  A    between atoms: C_10  and  N_11 
REMARK    5  A    between atoms: C_13  and  C_14 
REMARK    6  A    between atoms: C_14  and  N_15 
REMARK    7  A    between atoms: N_22  and  C_23 
ROOT
HETATM    1  N   UNL     1      40.804 -13.333   4.939  1.00  0.00    -0.216 N 
HETATM    2  N   UNL     1      41.997 -14.029   4.942  1.00  0.00    -0.153 NA
HETATM    3  C   UNL     1      42.336 -14.107   3.680  1.00  0.00     0.160 A 
HETATM    4  N   UNL     1      41.477 -13.499   2.825  1.00  0.00    -0.272 N 
HETATM    5  C   UNL     1      40.447 -13.001   3.618  1.00  0.00     0.204 A 
HETATM    6  S   UNL     1      39.112 -12.087   3.220  1.00  0.00    -0.038 SA
ENDROOT
BRANCH   1   7
HETATM    7  C   UNL     1      40.007 -13.181   6.147  1.00  0.00     0.388 C 
BRANCH   7   8
HETATM    8  N   UNL     1      40.090 -11.787   6.703  1.00  0.00    -0.053 N 
HETATM    9  C   UNL     1      39.336 -11.723   8.011  1.00  0.00     0.237 C 
HETATM   10  C   UNL     1      39.378 -10.314   8.588  1.00  0.00     0.042 C 
HETATM   11  C   UNL     1      40.814  -9.826   8.779  1.00  0.00     0.081 C 
HETATM   12  C   UNL     1      41.574  -9.921   7.453  1.00  0.00     0.042 C 
HETATM   13  C   UNL     1      41.512 -11.299   6.803  1.00  0.00     0.237 C 
HETATM   14  H   UNL     1      39.596 -11.186   6.028  1.00  0.00     0.281 HD
BRANCH  11  15
HETATM   15  C   UNL     1      41.490 -10.647   9.872  1.00  0.00     0.221 C 
HETATM   16  N   UNL     1      42.858 -10.691   9.791  1.00  0.00    -0.361 N 
HETATM   17  H   UNL     1      43.320 -10.424   8.929  1.00  0.00     0.162 HD
HETATM   18  O   UNL     1      40.846 -11.120  10.804  1.00  0.00    -0.273 OA
BRANCH  16  19
HETATM   19  C   UNL     1      43.653 -11.435  10.752  1.00  0.00     0.118 C 
HETATM   20  C   UNL     1      45.134 -11.131  10.615  1.00  0.00     0.026 C 
ENDBRANCH  16  19
ENDBRANCH  11  15
ENDBRANCH   7   8
ENDBRANCH   1   7
BRANCH   3  21
HETATM   21  C   UNL     1      43.569 -14.890   3.236  1.00  0.00     0.315 C 
BRANCH  21  22
HETATM   22  N   UNL     1      43.254 -16.350   2.889  1.00  0.00    -0.064 N 
HETATM   23  H   UNL     1      42.249 -16.371   2.659  1.00  0.00     0.280 HD
HETATM   24  C   UNL     1      44.000 -16.838   1.666  1.00  0.00     0.235 C 
HETATM   25  C   UNL     1      43.500 -18.230   1.301  1.00  0.00     0.028 C 
HETATM   26  C   UNL     1      43.654 -19.204   2.463  1.00  0.00     0.003 C 
HETATM   27  C   UNL     1      42.991 -18.668   3.727  1.00  0.00     0.028 C 
HETATM   28  C   UNL     1      43.476 -17.268   4.073  1.00  0.00     0.235 C 
ENDBRANCH  21  22
ENDBRANCH   3  21
BRANCH   4  29
HETATM   29  C   UNL     1      41.623 -13.377   1.424  1.00  0.00     0.043 A 
HETATM   30  C   UNL     1      42.145 -12.210   0.852  1.00  0.00     0.030 A 
HETATM   31  C   UNL     1      42.269 -12.091  -0.534  1.00  0.00     0.002 A 
HETATM   32  C   UNL     1      41.877 -13.137  -1.364  1.00  0.00     0.000 A 
HETATM   33  C   UNL     1      41.366 -14.306  -0.811  1.00  0.00     0.002 A 
HETATM   34  C   UNL     1      41.238 -14.428   0.576  1.00  0.00     0.030 A 
ENDBRANCH   4  29
TORSDOF 7
ENDMDL
MODEL 7
REMARK VINA RESULT:      -7.5      2.778      8.355
REMARK  7 active torsions:
REMARK  status: ('A' for Active; 'I' for Inactive)
REMARK    1  A    between atoms: C_2  and  N_3 
REMARK       I    between atoms: N_3  and  C_4 
REMARK    2  A    between atoms: C_4  and  C_5 
REMARK    3  A    between atoms: N_8  and  C_10 
REMARK    4  A    between atoms: C_10  and  N_11 
REMARK    5  A    between atoms: C_13  and  C_14 
REMARK    6  A    between atoms: C_14  and  N_15 
REMARK    7  A    between atoms: N_22  and  C_23 
ROOT
HETATM    1  N   UNL     1      41.476 -13.557   1.543  1.00  0.00    -0.216 N 
HETATM    2  N   UNL     1      41.495 -13.505   0.163  1.00  0.00    -0.153 NA
HETATM    3  C   UNL     1      40.391 -12.880  -0.159  1.00  0.00     0.160 A 
HETATM    4  N   UNL     1      39.637 -12.485   0.896  1.00  0.00    -0.272 N 
HETATM    5  C   UNL     1      40.310 -12.936   2.029  1.00  0.00     0.204 A 
HETATM    6  S   UNL     1      39.974 -12.728   3.647  1.00  0.00    -0.038 SA
ENDROOT
BRANCH   1   7
HETATM    7  C   UNL     1      42.457 -14.329   2.290  1.00  0.00     0.388 C 
BRANCH   7   8
HETATM    8  N   UNL     1      42.582 -15.733   1.767  1.00  0.00    -0.053 N 
HETATM    9  C   UNL     1      43.934 -16.290   2.144  1.00  0.00     0.237 C 
HETATM   10  C   UNL     1      44.103 -17.705   1.606  1.00  0.00     0.042 C 
HETATM   11  C   UNL     1      42.992 -18.632   2.098  1.00  0.00     0.081 C 
HETATM   12  C   UNL     1      41.627 -18.043   1.732  1.00  0.00     0.042 C 
HETATM   13  C   UNL     1      41.430 -16.604   2.199  1.00  0.00     0.237 C 
HETATM   14  H   UNL     1      42.551 -15.655   0.740  1.00  0.00     0.281 HD
BRANCH  11  15
HETATM   15  C   UNL     1      43.129 -18.837   3.602  1.00  0.00     0.221 C 
HETATM   16  N   UNL     1      44.358 -19.288   4.009  1.00  0.00    -0.361 N 
HETATM   17  H   UNL     1      44.995 -19.692   3.331  1.00  0.00     0.162 HD
HETATM   18  O   UNL     1      42.235 -18.504   4.375  1.00  0.00    -0.273 OA
BRANCH  16  19
HETATM   19  C   UNL     1      44.652 -19.539   5.409  1.00  0.00     0.118 C 
HETATM   20  C   UNL     1      45.134 -18.288   6.119  1.00  0.00     0.026 C 
ENDBRANCH  16  19
ENDBRANCH  11  15
ENDBRANCH   7   8
ENDBRANCH   1   7
BRANCH   3  21
HETATM   21  C   UNL     1      39.981 -12.691  -1.618  1.00  0.00     0.315 C 
BRANCH  21  22
HETATM   22  N   UNL     1      39.388 -13.961  -2.238  1.00  0.00    -0.064 N 
HETATM   23  H   UNL     1      39.129 -14.566  -1.444  1.00  0.00     0.280 HD
HETATM   24  C   UNL     1      38.122 -13.696  -3.025  1.00  0.00     0.235 C 
HETATM   25  C   UNL     1      37.516 -15.025  -3.457  1.00  0.00     0.028 C 
HETATM   26  C   UNL     1      38.504 -15.853  -4.270  1.00  0.00     0.003 C 
HETATM   27  C   UNL     1      39.820 -16.036  -3.523  1.00  0.00     0.028 C 
HETATM   28  C   UNL     1      40.408 -14.707  -3.072  1.00  0.00     0.235 C 
ENDBRANCH  21  22
ENDBRANCH   3  21
BRANCH   4  29
HETATM   29  C   UNL     1      38.433 -11.744   0.845  1.00  0.00     0.043 A 
HETATM   30  C   UNL     1      37.211 -12.374   0.580  1.00  0.00     0.030 A 
HETATM   31  C   UNL     1      36.028 -11.633   0.514  1.00  0.00     0.002 A 
HETATM   32  C   UNL     1      36.054 -10.256   0.716  1.00  0.00     0.000 A 
HETATM   33  C   UNL     1      37.258  -9.618   0.990  1.00  0.00     0.002 A 
HETATM   34  C   UNL     1      38.443 -10.356   1.055  1.00  0.00     0.030 A 
ENDBRANCH   4  29
TORSDOF 7
ENDMDL
MODEL 8
REMARK VINA RESULT:      -7.4      3.030      8.404
REMARK  7 active torsions:
REMARK  status: ('A' for Active; 'I' for Inactive)
REMARK    1  A    between atoms: C_2  and  N_3 
REMARK       I    between atoms: N_3  and  C_4 
REMARK    2  A    between atoms: C_4  and  C_5 
REMARK    3  A    between atoms: N_8  and  C_10 
REMARK    4  A    between atoms: C_10  and  N_11 
REMARK    5  A    between atoms: C_13  and  C_14 
REMARK    6  A    between atoms: C_14  and  N_15 
REMARK    7  A    between atoms: N_22  and  C_23 
ROOT
HETATM    1  N   UNL     1      41.364 -16.278   2.434  1.00  0.00    -0.216 N 
HETATM    2  N   UNL     1      41.698 -16.191   1.097  1.00  0.00    -0.153 NA
HETATM    3  C   UNL     1      41.315 -14.993   0.738  1.00  0.00     0.160 A 
HETATM    4  N   UNL     1      40.767 -14.252   1.734  1.00  0.00    -0.272 N 
HETATM    5  C   UNL     1      40.762 -15.077   2.856  1.00  0.00     0.204 A 
HETATM    6  S   UNL     1      40.298 -14.773   4.426  1.00  0.00    -0.038 SA
ENDROOT
BRANCH   1   7
HETATM    7  C   UNL     1      41.474 -17.530   3.168  1.00  0.00     0.388 C 
BRANCH   7   8
HETATM    8  N   UNL     1      42.497 -17.448   4.267  1.00  0.00    -0.053 N 
HETATM    9  C   UNL     1      41.937 -18.078   5.521  1.00  0.00     0.237 C 
HETATM   10  C   UNL     1      42.941 -17.988   6.663  1.00  0.00     0.042 C 
HETATM   11  C   UNL     1      44.275 -18.635   6.293  1.00  0.00     0.081 C 
HETATM   12  C   UNL     1      44.817 -18.005   5.007  1.00  0.00     0.042 C 
HETATM   13  C   UNL     1      43.827 -18.018   3.848  1.00  0.00     0.237 C 
HETATM   14  H   UNL     1      42.628 -16.443   4.454  1.00  0.00     0.281 HD
BRANCH  11  15
HETATM   15  C   UNL     1      44.086 -20.141   6.143  1.00  0.00     0.221 C 
HETATM   16  N   UNL     1      44.821 -20.712   5.137  1.00  0.00    -0.361 N 
HETATM   17  H   UNL     1      45.226 -20.127   4.414  1.00  0.00     0.162 HD
HETATM   18  O   UNL     1      43.417 -20.783   6.948  1.00  0.00    -0.273 OA
BRANCH  16  19
HETATM   19  C   UNL     1      44.752 -22.136   4.857  1.00  0.00     0.118 C 
HETATM   20  C   UNL     1      44.548 -22.413   3.379  1.00  0.00     0.026 C 
ENDBRANCH  16  19
ENDBRANCH  11  15
ENDBRANCH   7   8
ENDBRANCH   1   7
BRANCH   3  21
HETATM   21  C   UNL     1      41.426 -14.524  -0.711  1.00  0.00     0.315 C 
BRANCH  21  22
HETATM   22  N   UNL     1      40.262 -15.008  -1.583  1.00  0.00    -0.064 N 
HETATM   23  H   UNL     1      39.778 -15.730  -1.028  1.00  0.00     0.280 HD
HETATM   24  C   UNL     1      39.250 -13.920  -1.872  1.00  0.00     0.235 C 
HETATM   25  C   UNL     1      38.056 -14.529  -2.595  1.00  0.00     0.028 C 
HETATM   26  C   UNL     1      38.479 -15.240  -3.876  1.00  0.00     0.003 C 
HETATM   27  C   UNL     1      39.572 -16.267  -3.604  1.00  0.00     0.028 C 
HETATM   28  C   UNL     1      40.752 -15.658  -2.860  1.00  0.00     0.235 C 
ENDBRANCH  21  22
ENDBRANCH   3  21
BRANCH   4  29
HETATM   29  C   UNL     1      40.323 -12.913   1.645  1.00  0.00     0.043 A 
HETATM   30  C   UNL     1      38.966 -12.614   1.467  1.00  0.00     0.030 A 
HETATM   31  C   UNL     1      38.537 -11.289   1.363  1.00  0.00     0.002 A 
HETATM   32  C   UNL     1      39.458 -10.248   1.439  1.00  0.00     0.000 A 
HETATM   33  C   UNL     1      40.807 -10.528   1.625  1.00  0.00     0.002 A 
HETATM   34  C   UNL     1      41.240 -11.853   1.728  1.00  0.00     0.030 A 
ENDBRANCH   4  29
TORSDOF 7
ENDMDL
MODEL 9
REMARK VINA RESULT:      -7.4      3.240      8.601
REMARK  7 active torsions:
REMARK  status: ('A' for Active; 'I' for Inactive)
REMARK    1  A    between atoms: C_2  and  N_3 
REMARK       I    between atoms: N_3  and  C_4 
REMARK    2  A    between atoms: C_4  and  C_5 
REMARK    3  A    between atoms: N_8  and  C_10 
REMARK    4  A    between atoms: C_10  and  N_11 
REMARK    5  A    between atoms: C_13  and  C_14 
REMARK    6  A    between atoms: C_14  and  N_15 
REMARK    7  A    between atoms: N_22  and  C_23 
ROOT
HETATM    1  N   UNL     1      42.518 -14.053   3.356  1.00  0.00    -0.216 N 
HETATM    2  N   UNL     1      42.835 -14.442   2.069  1.00  0.00    -0.153 NA
HETATM    3  C   UNL     1      41.738 -14.242   1.384  1.00  0.00     0.160 A 
HETATM    4  N   UNL     1      40.709 -13.727   2.102  1.00  0.00    -0.272 N 
HETATM    5  C   UNL     1      41.181 -13.614   3.407  1.00  0.00     0.204 A 
HETATM    6  S   UNL     1      40.462 -12.989   4.774  1.00  0.00    -0.038 SA
ENDROOT
BRANCH   1   7
HETATM    7  C   UNL     1      43.428 -14.283   4.468  1.00  0.00     0.388 C 
BRANCH   7   8
HETATM    8  N   UNL     1      42.892 -15.307   5.429  1.00  0.00    -0.053 N 
HETATM    9  C   UNL     1      42.553 -16.572   4.676  1.00  0.00     0.237 C 
HETATM   10  C   UNL     1      41.982 -17.623   5.619  1.00  0.00     0.042 C 
HETATM   11  C   UNL     1      42.941 -17.930   6.769  1.00  0.00     0.081 C 
HETATM   12  C   UNL     1      43.297 -16.636   7.506  1.00  0.00     0.042 C 
HETATM   13  C   UNL     1      43.820 -15.530   6.596  1.00  0.00     0.237 C 
HETATM   14  H   UNL     1      42.013 -14.915   5.795  1.00  0.00     0.281 HD
BRANCH  11  15
HETATM   15  C   UNL     1      44.185 -18.623   6.222  1.00  0.00     0.221 C 
HETATM   16  N   UNL     1      43.943 -19.520   5.214  1.00  0.00    -0.361 N 
HETATM   17  H   UNL     1      43.001 -19.863   5.060  1.00  0.00     0.162 HD
HETATM   18  O   UNL     1      45.310 -18.298   6.591  1.00  0.00    -0.273 OA
BRANCH  16  19
HETATM   19  C   UNL     1      45.019 -20.269   4.588  1.00  0.00     0.118 C 
HETATM   20  C   UNL     1      45.012 -21.727   5.010  1.00  0.00     0.026 C 
ENDBRANCH  16  19
ENDBRANCH  11  15
ENDBRANCH   7   8
ENDBRANCH   1   7
BRANCH   3  21
HETATM   21  C   UNL     1      41.638 -14.635  -0.088  1.00  0.00     0.315 C 
BRANCH  21  22
HETATM   22  N   UNL     1      42.277 -13.603  -1.024  1.00  0.00    -0.064 N 
HETATM   23  H   UNL     1      43.271 -13.870  -1.097  1.00  0.00     0.280 HD
HETATM   24  C   UNL     1      41.704 -13.643  -2.424  1.00  0.00     0.235 C 
HETATM   25  C   UNL     1      42.509 -12.711  -3.319  1.00  0.00     0.028 C 
HETATM   26  C   UNL     1      42.529 -11.287  -2.774  1.00  0.00     0.003 C 
HETATM   27  C   UNL     1      43.010 -11.255  -1.328  1.00  0.00     0.028 C 
HETATM   28  C   UNL     1      42.217 -12.206  -0.443  1.00  0.00     0.235 C 
ENDBRANCH  21  22
ENDBRANCH   3  21
BRANCH   4  29
HETATM   29  C   UNL     1      39.435 -13.359   1.610  1.00  0.00     0.043 A 
HETATM   30  C   UNL     1      38.483 -14.330   1.278  1.00  0.00     0.030 A 
HETATM   31  C   UNL     1      37.234 -13.959   0.776  1.00  0.00     0.002 A 
HETATM   32  C   UNL     1      36.920 -12.614   0.605  1.00  0.00     0.000 A 
HETATM   33  C   UNL     1      37.851 -11.637   0.939  1.00  0.00     0.002 A 
HETATM   34  C   UNL     1      39.103 -12.006   1.440  1.00  0.00     0.030 A 
ENDBRANCH   4  29
TORSDOF 7
ENDMDL
MODEL 10
REMARK VINA RESULT:      -7.3      4.760      8.185
REMARK  7 active torsions:
REMARK  status: ('A' for Active; 'I' for Inactive)
REMARK    1  A    between atoms: C_2  and  N_3 
REMARK       I    between atoms: N_3  and  C_4 
REMARK    2  A    between atoms: C_4  and  C_5 
REMARK    3  A    between atoms: N_8  and  C_10 
REMARK    4  A    between atoms: C_10  and  N_11 
REMARK    5  A    between atoms: C_13  and  C_14 
REMARK    6  A    between atoms: C_14  and  N_15 
REMARK    7  A    between atoms: N_22  and  C_23 
ROOT
HETATM    1  N   UNL     1      40.124 -13.394   4.950  1.00  0.00    -0.216 N 
HETATM    2  N   UNL     1      40.135 -14.472   5.815  1.00  0.00    -0.153 NA
HETATM    3  C   UNL     1      40.708 -15.433   5.136  1.00  0.00     0.160 A 
HETATM    4  N   UNL     1      41.105 -15.085   3.887  1.00  0.00    -0.272 N 
HETATM    5  C   UNL     1      40.714 -13.758   3.725  1.00  0.00     0.204 A 
HETATM    6  S   UNL     1      40.956 -12.700   2.461  1.00  0.00    -0.038 SA
ENDROOT
BRANCH   1   7
HETATM    7  C   UNL     1      39.411 -12.167   5.271  1.00  0.00     0.388 C 
BRANCH   7   8
HETATM    8  N   UNL     1      40.322 -11.130   5.868  1.00  0.00    -0.053 N 
HETATM    9  C   UNL     1      39.495  -9.986   6.407  1.00  0.00     0.237 C 
HETATM   10  C   UNL     1      40.390  -8.905   6.996  1.00  0.00     0.042 C 
HETATM   11  C   UNL     1      41.303  -9.461   8.088  1.00  0.00     0.081 C 
HETATM   12  C   UNL     1      42.115 -10.635   7.536  1.00  0.00     0.042 C 
HETATM   13  C   UNL     1      41.268 -11.720   6.882  1.00  0.00     0.237 C 
HETATM   14  H   UNL     1      40.885 -10.767   5.085  1.00  0.00     0.281 HD
BRANCH  11  15
HETATM   15  C   UNL     1      40.462  -9.878   9.290  1.00  0.00     0.221 C 
HETATM   16  N   UNL     1      41.028 -10.849  10.075  1.00  0.00    -0.361 N 
HETATM   17  H   UNL     1      41.798 -11.402   9.715  1.00  0.00     0.162 HD
HETATM   18  O   UNL     1      39.421  -9.291   9.574  1.00  0.00    -0.273 OA
BRANCH  16  19
HETATM   19  C   UNL     1      40.355 -11.362  11.256  1.00  0.00     0.118 C 
HETATM   20  C   UNL     1      41.187 -11.168  12.510  1.00  0.00     0.026 C 
ENDBRANCH  16  19
ENDBRANCH  11  15
ENDBRANCH   7   8
ENDBRANCH   1   7
BRANCH   3  21
HETATM   21  C   UNL     1      40.838 -16.842   5.710  1.00  0.00     0.315 C 
BRANCH  21  22
HETATM   22  N   UNL     1      42.293 -17.246   5.972  1.00  0.00    -0.064 N 
HETATM   23  H   UNL     1      42.868 -16.474   5.602  1.00  0.00     0.280 HD
HETATM   24  C   UNL     1      42.613 -17.369   7.446  1.00  0.00     0.235 C 
HETATM   25  C   UNL     1      44.108 -17.605   7.614  1.00  0.00     0.028 C 
HETATM   26  C   UNL     1      44.571 -18.838   6.846  1.00  0.00     0.003 C 
HETATM   27  C   UNL     1      44.160 -18.765   5.380  1.00  0.00     0.028 C 
HETATM   28  C   UNL     1      42.670 -18.505   5.219  1.00  0.00     0.235 C 
ENDBRANCH  21  22
ENDBRANCH   3  21
BRANCH   4  29
HETATM   29  C   UNL     1      41.798 -15.899   2.962  1.00  0.00     0.043 A 
HETATM   30  C   UNL     1      41.112 -16.813   2.152  1.00  0.00     0.030 A 
HETATM   31  C   UNL     1      41.805 -17.627   1.253  1.00  0.00     0.002 A 
HETATM   32  C   UNL     1      43.189 -17.535   1.150  1.00  0.00     0.000 A 
HETATM   33  C   UNL     1      43.884 -16.626   1.940  1.00  0.00     0.002 A 
HETATM   34  C   UNL     1      43.194 -15.811   2.843  1.00  0.00     0.030 A 
ENDBRANCH   4  29
TORSDOF 7
ENDMDL
