MODEL 1
REMARK VINA RESULT:      -8.8      0.000      0.000
REMARK  8 active torsions:
REMARK  status: ('A' for Active; 'I' for Inactive)
REMARK    1  A    between atoms: C_2  and  C_3 
REMARK    2  A    between atoms: C_3  and  O_4 
REMARK    3  A    between atoms: O_4  and  C_5 
REMARK    4  A    between atoms: C_7  and  C_8 
REMARK    5  A    between atoms: N_9  and  C_10 
REMARK    6  A    between atoms: C_10  and  C_11 
REMARK    7  A    between atoms: C_24  and  C_25 
REMARK    8  A    between atoms: C_26  and  O_27 
ROOT
HETATM    1  C   UNL     1      41.705 -17.373   3.560  1.00  0.00     0.159 A 
HETATM    2  N   UNL     1      41.260 -16.169   2.805  1.00  0.00    -0.329 N 
HETATM    3  C   UNL     1      41.994 -15.925   1.643  1.00  0.00     0.273 A 
HETATM    4  O   UNL     1      41.834 -15.048   0.813  1.00  0.00    -0.266 OA
HETATM    5  C   UNL     1      42.960 -16.956   1.639  1.00  0.00     0.129 A 
HETATM    6  C   UNL     1      42.827 -17.808   2.697  1.00  0.00     0.034 A 
HETATM    7  N   UNL     1      43.994 -17.372   0.896  1.00  0.00    -0.272 N 
HETATM    8  H   UNL     1      44.373 -16.973   0.041  1.00  0.00     0.189 HD
HETATM    9  N   UNL     1      44.575 -18.478   1.429  1.00  0.00    -0.173 NA
HETATM   10  C   UNL     1      43.821 -18.787   2.519  1.00  0.00     0.101 A 
ENDROOT
BRANCH   1  11
HETATM   11  C   UNL     1      42.276 -17.053   4.922  1.00  0.00    -0.028 A 
HETATM   12  C   UNL     1      43.209 -16.010   5.054  1.00  0.00     0.046 A 
HETATM   13  C   UNL     1      43.750 -15.665   6.298  1.00  0.00     0.069 A 
HETATM   14  C   UNL     1      43.370 -16.380   7.431  1.00  0.00     0.037 A 
HETATM   15  C   UNL     1      42.453 -17.426   7.322  1.00  0.00     0.003 A 
HETATM   16  C   UNL     1      41.910 -17.760   6.081  1.00  0.00     0.010 A 
BRANCH  13  17
HETATM   17  O   UNL     1      44.633 -14.621   6.262  1.00  0.00    -0.348 OA
BRANCH  17  18
HETATM   18  C   UNL     1      44.296 -13.464   7.027  1.00  0.00     0.202 C 
BRANCH  18  19
HETATM   19  C   UNL     1      45.493 -13.112   7.859  1.00  0.00    -0.011 C 
HETATM   20  C   UNL     1      45.477 -12.278   8.906  1.00  0.00     0.009 C 
ENDBRANCH  18  19
ENDBRANCH  17  18
ENDBRANCH  13  17
ENDBRANCH   1  11
BRANCH   2  21
HETATM   21  C   UNL     1      40.069 -15.431   3.161  1.00  0.00     0.165 C 
BRANCH  21  22
HETATM   22  C   UNL     1      40.372 -14.279   4.082  1.00  0.00    -0.037 A 
HETATM   23  C   UNL     1      41.158 -13.204   3.655  1.00  0.00     0.028 A 
HETATM   24  C   UNL     1      41.410 -12.173   4.547  1.00  0.00     0.116 A 
HETATM   25  N   UNL     1      40.947 -12.143   5.814  1.00  0.00    -0.273 NA
HETATM   26  C   UNL     1      40.189 -13.190   6.208  1.00  0.00     0.116 A 
HETATM   27  C   UNL     1      39.878 -14.263   5.391  1.00  0.00     0.028 A 
ENDBRANCH  21  22
ENDBRANCH   2  21
BRANCH  10  28
HETATM   28  C   UNL     1      44.125 -19.973   3.324  1.00  0.00     0.028 A 
HETATM   29  C   UNL     1      44.199 -21.252   2.744  1.00  0.00     0.078 A 
HETATM   30  C   UNL     1      44.518 -22.375   3.505  1.00  0.00     0.037 A 
HETATM   31  C   UNL     1      44.746 -22.242   4.872  1.00  0.00     0.003 A 
HETATM   32  C   UNL     1      44.650 -20.989   5.475  1.00  0.00     0.001 A 
HETATM   33  C   UNL     1      44.337 -19.862   4.706  1.00  0.00     0.017 A 
BRANCH  29  34
HETATM   34  O   UNL     1      43.955 -21.470   1.411  1.00  0.00    -0.360 OA
HETATM   35  H   UNL     1      44.755 -21.924   1.061  1.00  0.00     0.217 HD
ENDBRANCH  29  34
ENDBRANCH  10  28
TORSDOF 8
ENDMDL
MODEL 2
REMARK VINA RESULT:      -8.5      2.327      4.871
REMARK  8 active torsions:
REMARK  status: ('A' for Active; 'I' for Inactive)
REMARK    1  A    between atoms: C_2  and  C_3 
REMARK    2  A    between atoms: C_3  and  O_4 
REMARK    3  A    between atoms: O_4  and  C_5 
REMARK    4  A    between atoms: C_7  and  C_8 
REMARK    5  A    between atoms: N_9  and  C_10 
REMARK    6  A    between atoms: C_10  and  C_11 
REMARK    7  A    between atoms: C_24  and  C_25 
REMARK    8  A    between atoms: C_26  and  O_27 
ROOT
HETATM    1  C   UNL     1      43.956 -16.946   4.915  1.00  0.00     0.159 A 
HETATM    2  N   UNL     1      43.833 -16.028   6.082  1.00  0.00    -0.329 N 
HETATM    3  C   UNL     1      43.727 -16.684   7.310  1.00  0.00     0.273 A 
HETATM    4  O   UNL     1      43.657 -16.201   8.426  1.00  0.00    -0.266 OA
HETATM    5  C   UNL     1      43.745 -18.052   6.957  1.00  0.00     0.129 A 
HETATM    6  C   UNL     1      43.887 -18.250   5.614  1.00  0.00     0.034 A 
HETATM    7  N   UNL     1      43.667 -19.252   7.549  1.00  0.00    -0.272 N 
HETATM    8  H   UNL     1      43.557 -19.476   8.534  1.00  0.00     0.189 HD
HETATM    9  N   UNL     1      43.741 -20.259   6.640  1.00  0.00    -0.173 NA
HETATM   10  C   UNL     1      43.932 -19.644   5.441  1.00  0.00     0.101 A 
ENDROOT
BRANCH   1  11
HETATM   11  C   UNL     1      42.782 -16.875   3.967  1.00  0.00    -0.028 A 
HETATM   12  C   UNL     1      42.977 -16.401   2.658  1.00  0.00     0.046 A 
HETATM   13  C   UNL     1      41.924 -16.336   1.738  1.00  0.00     0.069 A 
HETATM   14  C   UNL     1      40.647 -16.733   2.131  1.00  0.00     0.037 A 
HETATM   15  C   UNL     1      40.429 -17.197   3.429  1.00  0.00     0.003 A 
HETATM   16  C   UNL     1      41.485 -17.268   4.339  1.00  0.00     0.010 A 
BRANCH  13  17
HETATM   17  O   UNL     1      42.277 -15.866   0.503  1.00  0.00    -0.348 OA
BRANCH  17  18
HETATM   18  C   UNL     1      41.759 -14.592   0.124  1.00  0.00     0.202 C 
BRANCH  18  19
HETATM   19  C   UNL     1      40.775 -14.820  -0.985  1.00  0.00    -0.011 C 
HETATM   20  C   UNL     1      40.992 -15.602  -2.050  1.00  0.00     0.009 C 
ENDBRANCH  18  19
ENDBRANCH  17  18
ENDBRANCH  13  17
ENDBRANCH   1  11
BRANCH   2  21
HETATM   21  C   UNL     1      43.986 -14.596   5.958  1.00  0.00     0.165 C 
BRANCH  21  22
HETATM   22  C   UNL     1      42.774 -13.951   5.338  1.00  0.00    -0.037 A 
HETATM   23  C   UNL     1      42.876 -13.214   4.155  1.00  0.00     0.028 A 
HETATM   24  C   UNL     1      41.729 -12.636   3.632  1.00  0.00     0.116 A 
HETATM   25  N   UNL     1      40.510 -12.737   4.202  1.00  0.00    -0.273 NA
HETATM   26  C   UNL     1      40.431 -13.455   5.344  1.00  0.00     0.116 A 
HETATM   27  C   UNL     1      41.517 -14.072   5.940  1.00  0.00     0.028 A 
ENDBRANCH  21  22
ENDBRANCH   2  21
BRANCH  10  28
HETATM   28  C   UNL     1      44.112 -20.433   4.220  1.00  0.00     0.028 A 
HETATM   29  C   UNL     1      44.707 -21.708   4.252  1.00  0.00     0.078 A 
HETATM   30  C   UNL     1      44.850 -22.470   3.094  1.00  0.00     0.037 A 
HETATM   31  C   UNL     1      44.421 -21.958   1.872  1.00  0.00     0.003 A 
HETATM   32  C   UNL     1      43.856 -20.686   1.810  1.00  0.00     0.001 A 
HETATM   33  C   UNL     1      43.706 -19.927   2.976  1.00  0.00     0.017 A 
BRANCH  29  34
HETATM   34  O   UNL     1      45.184 -22.266   5.411  1.00  0.00    -0.360 OA
HETATM   35  H   UNL     1      46.164 -22.180   5.369  1.00  0.00     0.217 HD
ENDBRANCH  29  34
ENDBRANCH  10  28
TORSDOF 8
ENDMDL
MODEL 3
REMARK VINA RESULT:      -8.5      1.173      1.453
REMARK  8 active torsions:
REMARK  status: ('A' for Active; 'I' for Inactive)
REMARK    1  A    between atoms: C_2  and  C_3 
REMARK    2  A    between atoms: C_3  and  O_4 
REMARK    3  A    between atoms: O_4  and  C_5 
REMARK    4  A    between atoms: C_7  and  C_8 
REMARK    5  A    between atoms: N_9  and  C_10 
REMARK    6  A    between atoms: C_10  and  C_11 
REMARK    7  A    between atoms: C_24  and  C_25 
REMARK    8  A    between atoms: C_26  and  O_27 
ROOT
HETATM    1  C   UNL     1      41.208 -17.516   2.889  1.00  0.00     0.159 A 
HETATM    2  N   UNL     1      40.668 -16.443   2.008  1.00  0.00    -0.329 N 
HETATM    3  C   UNL     1      41.464 -16.169   0.894  1.00  0.00     0.273 A 
HETATM    4  O   UNL     1      41.257 -15.382  -0.012  1.00  0.00    -0.266 OA
HETATM    5  C   UNL     1      42.563 -17.044   1.050  1.00  0.00     0.129 A 
HETATM    6  C   UNL     1      42.456 -17.835   2.157  1.00  0.00     0.034 A 
HETATM    7  N   UNL     1      43.710 -17.349   0.429  1.00  0.00    -0.272 N 
HETATM    8  H   UNL     1      44.105 -16.955  -0.420  1.00  0.00     0.189 HD
HETATM    9  N   UNL     1      44.391 -18.319   1.093  1.00  0.00    -0.173 NA
HETATM   10  C   UNL     1      43.591 -18.665   2.138  1.00  0.00     0.101 A 
ENDROOT
BRANCH   1  11
HETATM   11  C   UNL     1      41.599 -17.026   4.264  1.00  0.00    -0.028 A 
HETATM   12  C   UNL     1      42.583 -16.030   4.390  1.00  0.00     0.046 A 
HETATM   13  C   UNL     1      42.964 -15.531   5.641  1.00  0.00     0.069 A 
HETATM   14  C   UNL     1      42.369 -16.043   6.791  1.00  0.00     0.037 A 
HETATM   15  C   UNL     1      41.397 -17.041   6.690  1.00  0.00     0.003 A 
HETATM   16  C   UNL     1      41.015 -17.527   5.440  1.00  0.00     0.010 A 
BRANCH  13  17
HETATM   17  O   UNL     1      43.922 -14.556   5.595  1.00  0.00    -0.348 OA
BRANCH  17  18
HETATM   18  C   UNL     1      43.893 -13.574   6.629  1.00  0.00     0.202 C 
BRANCH  18  19
HETATM   19  C   UNL     1      45.194 -13.664   7.370  1.00  0.00    -0.011 C 
HETATM   20  C   UNL     1      45.691 -12.704   8.161  1.00  0.00     0.009 C 
ENDBRANCH  18  19
ENDBRANCH  17  18
ENDBRANCH  13  17
ENDBRANCH   1  11
BRANCH   2  21
HETATM   21  C   UNL     1      39.356 -15.870   2.207  1.00  0.00     0.165 C 
BRANCH  21  22
HETATM   22  C   UNL     1      39.426 -14.406   2.553  1.00  0.00    -0.037 A 
HETATM   23  C   UNL     1      40.049 -13.972   3.727  1.00  0.00     0.028 A 
HETATM   24  C   UNL     1      40.080 -12.613   3.998  1.00  0.00     0.116 A 
HETATM   25  N   UNL     1      39.536 -11.673   3.196  1.00  0.00    -0.273 NA
HETATM   26  C   UNL     1      38.940 -12.111   2.066  1.00  0.00     0.116 A 
HETATM   27  C   UNL     1      38.862 -13.446   1.706  1.00  0.00     0.028 A 
ENDBRANCH  21  22
ENDBRANCH   2  21
BRANCH  10  28
HETATM   28  C   UNL     1      43.985 -19.736   3.056  1.00  0.00     0.028 A 
HETATM   29  C   UNL     1      44.139 -21.062   2.611  1.00  0.00     0.078 A 
HETATM   30  C   UNL     1      44.543 -22.076   3.477  1.00  0.00     0.037 A 
HETATM   31  C   UNL     1      44.779 -21.785   4.819  1.00  0.00     0.003 A 
HETATM   32  C   UNL     1      44.605 -20.485   5.290  1.00  0.00     0.001 A 
HETATM   33  C   UNL     1      44.207 -19.468   4.414  1.00  0.00     0.017 A 
BRANCH  29  34
HETATM   34  O   UNL     1      43.893 -21.434   1.313  1.00  0.00    -0.360 OA
HETATM   35  H   UNL     1      43.513 -20.641   0.872  1.00  0.00     0.217 HD
ENDBRANCH  29  34
ENDBRANCH  10  28
TORSDOF 8
ENDMDL
MODEL 4
REMARK VINA RESULT:      -8.1      2.647      6.266
REMARK  8 active torsions:
REMARK  status: ('A' for Active; 'I' for Inactive)
REMARK    1  A    between atoms: C_2  and  C_3 
REMARK    2  A    between atoms: C_3  and  O_4 
REMARK    3  A    between atoms: O_4  and  C_5 
REMARK    4  A    between atoms: C_7  and  C_8 
REMARK    5  A    between atoms: N_9  and  C_10 
REMARK    6  A    between atoms: C_10  and  C_11 
REMARK    7  A    between atoms: C_24  and  C_25 
REMARK    8  A    between atoms: C_26  and  O_27 
ROOT
HETATM    1  C   UNL     1      42.109 -14.017   2.651  1.00  0.00     0.159 A 
HETATM    2  N   UNL     1      41.392 -13.044   1.780  1.00  0.00    -0.329 N 
HETATM    3  C   UNL     1      40.348 -12.373   2.419  1.00  0.00     0.273 A 
HETATM    4  O   UNL     1      39.621 -11.501   1.977  1.00  0.00    -0.266 OA
HETATM    5  C   UNL     1      40.345 -12.928   3.719  1.00  0.00     0.129 A 
HETATM    6  C   UNL     1      41.332 -13.852   3.901  1.00  0.00     0.034 A 
HETATM    7  N   UNL     1      39.655 -12.823   4.863  1.00  0.00    -0.272 N 
HETATM    8  H   UNL     1      38.857 -12.233   5.080  1.00  0.00     0.189 HD
HETATM    9  N   UNL     1      40.142 -13.661   5.814  1.00  0.00    -0.173 NA
HETATM   10  C   UNL     1      41.219 -14.265   5.241  1.00  0.00     0.101 A 
ENDROOT
BRANCH   1  11
HETATM   11  C   UNL     1      41.954 -15.452   2.205  1.00  0.00    -0.028 A 
HETATM   12  C   UNL     1      43.062 -16.316   2.256  1.00  0.00     0.046 A 
HETATM   13  C   UNL     1      42.962 -17.658   1.872  1.00  0.00     0.069 A 
HETATM   14  C   UNL     1      41.742 -18.149   1.411  1.00  0.00     0.037 A 
HETATM   15  C   UNL     1      40.632 -17.306   1.342  1.00  0.00     0.003 A 
HETATM   16  C   UNL     1      40.735 -15.971   1.736  1.00  0.00     0.010 A 
BRANCH  13  17
HETATM   17  O   UNL     1      44.123 -18.371   1.993  1.00  0.00    -0.348 OA
BRANCH  17  18
HETATM   18  C   UNL     1      44.216 -19.272   3.095  1.00  0.00     0.202 C 
BRANCH  18  19
HETATM   19  C   UNL     1      44.572 -20.620   2.544  1.00  0.00    -0.011 C 
HETATM   20  C   UNL     1      43.745 -21.398   1.832  1.00  0.00     0.009 C 
ENDBRANCH  18  19
ENDBRANCH  17  18
ENDBRANCH  13  17
ENDBRANCH   1  11
BRANCH   2  21
HETATM   21  C   UNL     1      41.856 -12.709   0.453  1.00  0.00     0.165 C 
BRANCH  21  22
HETATM   22  C   UNL     1      41.058 -13.407  -0.617  1.00  0.00    -0.037 A 
HETATM   23  C   UNL     1      41.589 -14.495  -1.316  1.00  0.00     0.028 A 
HETATM   24  C   UNL     1      40.813 -15.097  -2.294  1.00  0.00     0.116 A 
HETATM   25  N   UNL     1      39.568 -14.691  -2.622  1.00  0.00    -0.273 NA
HETATM   26  C   UNL     1      39.072 -13.640  -1.935  1.00  0.00     0.116 A 
HETATM   27  C   UNL     1      39.767 -12.976  -0.938  1.00  0.00     0.028 A 
ENDBRANCH  21  22
ENDBRANCH   2  21
BRANCH  10  28
HETATM   28  C   UNL     1      42.037 -15.211   6.003  1.00  0.00     0.028 A 
HETATM   29  C   UNL     1      41.491 -16.400   6.521  1.00  0.00     0.078 A 
HETATM   30  C   UNL     1      42.276 -17.314   7.221  1.00  0.00     0.037 A 
HETATM   31  C   UNL     1      43.625 -17.042   7.438  1.00  0.00     0.003 A 
HETATM   32  C   UNL     1      44.181 -15.857   6.961  1.00  0.00     0.001 A 
HETATM   33  C   UNL     1      43.391 -14.946   6.251  1.00  0.00     0.017 A 
BRANCH  29  34
HETATM   34  O   UNL     1      40.165 -16.722   6.377  1.00  0.00    -0.360 OA
HETATM   35  H   UNL     1      39.748 -16.548   7.251  1.00  0.00     0.217 HD
ENDBRANCH  29  34
ENDBRANCH  10  28
TORSDOF 8
ENDMDL
MODEL 5
REMARK VINA RESULT:      -7.9      2.480      6.927
REMARK  8 active torsions:
REMARK  status: ('A' for Active; 'I' for Inactive)
REMARK    1  A    between atoms: C_2  and  C_3 
REMARK    2  A    between atoms: C_3  and  O_4 
REMARK    3  A    between atoms: O_4  and  C_5 
REMARK    4  A    between atoms: C_7  and  C_8 
REMARK    5  A    between atoms: N_9  and  C_10 
REMARK    6  A    between atoms: C_10  and  C_11 
REMARK    7  A    between atoms: C_24  and  C_25 
REMARK    8  A    between atoms: C_26  and  O_27 
ROOT
HETATM    1  C   UNL     1      40.860 -15.965   3.198  1.00  0.00     0.159 A 
HETATM    2  N   UNL     1      41.057 -15.614   4.631  1.00  0.00    -0.329 N 
HETATM    3  C   UNL     1      41.131 -14.241   4.874  1.00  0.00     0.273 A 
HETATM    4  O   UNL     1      41.245 -13.662   5.940  1.00  0.00    -0.266 OA
HETATM    5  C   UNL     1      41.016 -13.671   3.586  1.00  0.00     0.129 A 
HETATM    6  C   UNL     1      40.847 -14.607   2.607  1.00  0.00     0.034 A 
HETATM    7  N   UNL     1      41.018 -12.461   3.010  1.00  0.00    -0.272 N 
HETATM    8  H   UNL     1      41.122 -11.546   3.438  1.00  0.00     0.189 HD
HETATM    9  N   UNL     1      40.867 -12.553   1.663  1.00  0.00    -0.173 NA
HETATM   10  C   UNL     1      40.705 -13.881   1.412  1.00  0.00     0.101 A 
ENDROOT
BRANCH   1  11
HETATM   11  C   UNL     1      42.027 -16.713   2.595  1.00  0.00    -0.028 A 
HETATM   12  C   UNL     1      41.944 -18.106   2.427  1.00  0.00     0.046 A 
HETATM   13  C   UNL     1      42.991 -18.838   1.855  1.00  0.00     0.069 A 
HETATM   14  C   UNL     1      44.151 -18.176   1.458  1.00  0.00     0.037 A 
HETATM   15  C   UNL     1      44.259 -16.795   1.625  1.00  0.00     0.003 A 
HETATM   16  C   UNL     1      43.208 -16.069   2.187  1.00  0.00     0.010 A 
BRANCH  13  17
HETATM   17  O   UNL     1      42.753 -20.180   1.747  1.00  0.00    -0.348 OA
BRANCH  17  18
HETATM   18  C   UNL     1      43.892 -21.039   1.731  1.00  0.00     0.202 C 
BRANCH  18  19
HETATM   19  C   UNL     1      44.283 -21.293   3.156  1.00  0.00    -0.011 C 
HETATM   20  C   UNL     1      44.632 -22.488   3.651  1.00  0.00     0.009 C 
ENDBRANCH  18  19
ENDBRANCH  17  18
ENDBRANCH  13  17
ENDBRANCH   1  11
BRANCH   2  21
HETATM   21  C   UNL     1      41.001 -16.604   5.684  1.00  0.00     0.165 C 
BRANCH  21  22
HETATM   22  C   UNL     1      42.359 -17.179   5.990  1.00  0.00    -0.037 A 
HETATM   23  C   UNL     1      42.642 -18.526   5.744  1.00  0.00     0.028 A 
HETATM   24  C   UNL     1      43.907 -19.004   6.050  1.00  0.00     0.116 A 
HETATM   25  N   UNL     1      44.889 -18.246   6.581  1.00  0.00    -0.273 NA
HETATM   26  C   UNL     1      44.597 -16.948   6.810  1.00  0.00     0.116 A 
HETATM   27  C   UNL     1      43.366 -16.377   6.534  1.00  0.00     0.028 A 
ENDBRANCH  21  22
ENDBRANCH   2  21
BRANCH  10  28
HETATM   28  C   UNL     1      40.460 -14.357   0.048  1.00  0.00     0.028 A 
HETATM   29  C   UNL     1      39.405 -13.843  -0.728  1.00  0.00     0.078 A 
HETATM   30  C   UNL     1      39.191 -14.274  -2.036  1.00  0.00     0.037 A 
HETATM   31  C   UNL     1      40.017 -15.251  -2.586  1.00  0.00     0.003 A 
HETATM   32  C   UNL     1      41.051 -15.796  -1.827  1.00  0.00     0.001 A 
HETATM   33  C   UNL     1      41.268 -15.354  -0.517  1.00  0.00     0.017 A 
BRANCH  29  34
HETATM   34  O   UNL     1      38.528 -12.904  -0.247  1.00  0.00    -0.360 OA
HETATM   35  H   UNL     1      38.077 -12.525  -1.035  1.00  0.00     0.217 HD
ENDBRANCH  29  34
ENDBRANCH  10  28
TORSDOF 8
ENDMDL
MODEL 6
REMARK VINA RESULT:      -7.7      3.070      5.760
REMARK  8 active torsions:
REMARK  status: ('A' for Active; 'I' for Inactive)
REMARK    1  A    between atoms: C_2  and  C_3 
REMARK    2  A    between atoms: C_3  and  O_4 
REMARK    3  A    between atoms: O_4  and  C_5 
REMARK    4  A    between atoms: C_7  and  C_8 
REMARK    5  A    between atoms: N_9  and  C_10 
REMARK    6  A    between atoms: C_10  and  C_11 
REMARK    7  A    between atoms: C_24  and  C_25 
REMARK    8  A    between atoms: C_26  and  O_27 
ROOT
HETATM    1  C   UNL     1      41.494 -13.975   3.886  1.00  0.00     0.159 A 
HETATM    2  N   UNL     1      40.809 -12.966   4.740  1.00  0.00    -0.329 N 
HETATM    3  C   UNL     1      40.161 -13.509   5.851  1.00  0.00     0.273 A 
HETATM    4  O   UNL     1      39.560 -12.931   6.739  1.00  0.00    -0.266 OA
HETATM    5  C   UNL     1      40.387 -14.898   5.719  1.00  0.00     0.129 A 
HETATM    6  C   UNL     1      41.148 -15.208   4.629  1.00  0.00     0.034 A 
HETATM    7  N   UNL     1      40.079 -16.039   6.351  1.00  0.00    -0.272 N 
HETATM    8  H   UNL     1      39.528 -16.178   7.193  1.00  0.00     0.189 HD
HETATM    9  N   UNL     1      40.603 -17.117   5.712  1.00  0.00    -0.173 NA
HETATM   10  C   UNL     1      41.314 -16.604   4.671  1.00  0.00     0.101 A 
ENDROOT
BRANCH   1  11
HETATM   11  C   UNL     1      40.900 -14.096   2.502  1.00  0.00    -0.028 A 
HETATM   12  C   UNL     1      41.709 -13.857   1.377  1.00  0.00     0.046 A 
HETATM   13  C   UNL     1      41.208 -13.976   0.076  1.00  0.00     0.069 A 
HETATM   14  C   UNL     1      39.872 -14.322  -0.113  1.00  0.00     0.037 A 
HETATM   15  C   UNL     1      39.047 -14.554   0.989  1.00  0.00     0.003 A 
HETATM   16  C   UNL     1      39.555 -14.443   2.284  1.00  0.00     0.010 A 
BRANCH  13  17
HETATM   17  O   UNL     1      42.123 -13.726  -0.909  1.00  0.00    -0.348 OA
BRANCH  17  18
HETATM   18  C   UNL     1      41.733 -12.817  -1.937  1.00  0.00     0.202 C 
BRANCH  18  19
HETATM   19  C   UNL     1      41.969 -11.428  -1.421  1.00  0.00    -0.011 C 
HETATM   20  C   UNL     1      43.172 -10.856  -1.291  1.00  0.00     0.009 C 
ENDBRANCH  18  19
ENDBRANCH  17  18
ENDBRANCH  13  17
ENDBRANCH   1  11
BRANCH   2  21
HETATM   21  C   UNL     1      40.956 -11.544   4.524  1.00  0.00     0.165 C 
BRANCH  21  22
HETATM   22  C   UNL     1      40.043 -11.041   3.437  1.00  0.00    -0.037 A 
HETATM   23  C   UNL     1      40.559 -10.469   2.271  1.00  0.00     0.028 A 
HETATM   24  C   UNL     1      39.673 -10.018   1.305  1.00  0.00     0.116 A 
HETATM   25  N   UNL     1      38.330 -10.091   1.423  1.00  0.00    -0.273 NA
HETATM   26  C   UNL     1      37.850 -10.648   2.556  1.00  0.00     0.116 A 
HETATM   27  C   UNL     1      38.654 -11.132   3.575  1.00  0.00     0.028 A 
ENDBRANCH  21  22
ENDBRANCH   2  21
BRANCH  10  28
HETATM   28  C   UNL     1      42.071 -17.486   3.779  1.00  0.00     0.028 A 
HETATM   29  C   UNL     1      43.042 -18.373   4.277  1.00  0.00     0.078 A 
HETATM   30  C   UNL     1      43.740 -19.233   3.432  1.00  0.00     0.037 A 
HETATM   31  C   UNL     1      43.496 -19.204   2.061  1.00  0.00     0.003 A 
HETATM   32  C   UNL     1      42.560 -18.313   1.540  1.00  0.00     0.001 A 
HETATM   33  C   UNL     1      41.854 -17.456   2.393  1.00  0.00     0.017 A 
BRANCH  29  34
HETATM   34  O   UNL     1      43.363 -18.438   5.610  1.00  0.00    -0.360 OA
HETATM   35  H   UNL     1      43.710 -19.346   5.761  1.00  0.00     0.217 HD
ENDBRANCH  29  34
ENDBRANCH  10  28
TORSDOF 8
ENDMDL
MODEL 7
REMARK VINA RESULT:      -7.6      2.496      3.932
REMARK  8 active torsions:
REMARK  status: ('A' for Active; 'I' for Inactive)
REMARK    1  A    between atoms: C_2  and  C_3 
REMARK    2  A    between atoms: C_3  and  O_4 
REMARK    3  A    between atoms: O_4  and  C_5 
REMARK    4  A    between atoms: C_7  and  C_8 
REMARK    5  A    between atoms: N_9  and  C_10 
REMARK    6  A    between atoms: C_10  and  C_11 
REMARK    7  A    between atoms: C_24  and  C_25 
REMARK    8  A    between atoms: C_26  and  O_27 
ROOT
HETATM    1  C   UNL     1      41.162 -16.191   2.642  1.00  0.00     0.159 A 
HETATM    2  N   UNL     1      40.676 -15.726   1.313  1.00  0.00    -0.329 N 
HETATM    3  C   UNL     1      41.454 -16.163   0.240  1.00  0.00     0.273 A 
HETATM    4  O   UNL     1      41.279 -15.978  -0.951  1.00  0.00    -0.266 OA
HETATM    5  C   UNL     1      42.489 -16.899   0.860  1.00  0.00     0.129 A 
HETATM    6  C   UNL     1      42.359 -16.954   2.218  1.00  0.00     0.034 A 
HETATM    7  N   UNL     1      43.590 -17.583   0.519  1.00  0.00    -0.272 N 
HETATM    8  H   UNL     1      43.986 -17.745  -0.402  1.00  0.00     0.189 HD
HETATM    9  N   UNL     1      44.216 -18.091   1.613  1.00  0.00    -0.173 NA
HETATM   10  C   UNL     1      43.427 -17.750   2.667  1.00  0.00     0.101 A 
ENDROOT
BRANCH   1  11
HETATM   11  C   UNL     1      41.633 -15.068   3.537  1.00  0.00    -0.028 A 
HETATM   12  C   UNL     1      40.790 -14.598   4.560  1.00  0.00     0.046 A 
HETATM   13  C   UNL     1      41.190 -13.574   5.426  1.00  0.00     0.069 A 
HETATM   14  C   UNL     1      42.446 -12.993   5.264  1.00  0.00     0.037 A 
HETATM   15  C   UNL     1      43.295 -13.437   4.250  1.00  0.00     0.003 A 
HETATM   16  C   UNL     1      42.894 -14.465   3.395  1.00  0.00     0.010 A 
BRANCH  13  17
HETATM   17  O   UNL     1      40.264 -13.240   6.375  1.00  0.00    -0.348 OA
BRANCH  17  18
HETATM   18  C   UNL     1      38.983 -12.820   5.908  1.00  0.00     0.202 C 
BRANCH  18  19
HETATM   19  C   UNL     1      39.165 -11.494   5.231  1.00  0.00    -0.011 C 
HETATM   20  C   UNL     1      38.629 -11.159   4.050  1.00  0.00     0.009 C 
ENDBRANCH  18  19
ENDBRANCH  17  18
ENDBRANCH  13  17
ENDBRANCH   1  11
BRANCH   2  21
HETATM   21  C   UNL     1      39.418 -15.033   1.151  1.00  0.00     0.165 C 
BRANCH  21  22
HETATM   22  C   UNL     1      39.604 -13.652   0.579  1.00  0.00    -0.037 A 
HETATM   23  C   UNL     1      40.409 -12.708   1.223  1.00  0.00     0.028 A 
HETATM   24  C   UNL     1      40.540 -11.450   0.655  1.00  0.00     0.116 A 
HETATM   25  N   UNL     1      39.929 -11.074  -0.488  1.00  0.00    -0.273 NA
HETATM   26  C   UNL     1      39.156 -11.999  -1.096  1.00  0.00     0.116 A 
HETATM   27  C   UNL     1      38.967 -13.282  -0.610  1.00  0.00     0.028 A 
ENDBRANCH  21  22
ENDBRANCH   2  21
BRANCH  10  28
HETATM   28  C   UNL     1      43.769 -18.182   4.025  1.00  0.00     0.028 A 
HETATM   29  C   UNL     1      44.174 -19.502   4.292  1.00  0.00     0.078 A 
HETATM   30  C   UNL     1      44.527 -19.905   5.579  1.00  0.00     0.037 A 
HETATM   31  C   UNL     1      44.458 -18.996   6.631  1.00  0.00     0.003 A 
HETATM   32  C   UNL     1      44.032 -17.690   6.396  1.00  0.00     0.001 A 
HETATM   33  C   UNL     1      43.685 -17.287   5.101  1.00  0.00     0.017 A 
BRANCH  29  34
HETATM   34  O   UNL     1      44.235 -20.464   3.316  1.00  0.00    -0.360 OA
HETATM   35  H   UNL     1      45.120 -20.367   2.896  1.00  0.00     0.217 HD
ENDBRANCH  29  34
ENDBRANCH  10  28
TORSDOF 8
ENDMDL
MODEL 8
REMARK VINA RESULT:      -7.5      3.022      5.999
REMARK  8 active torsions:
REMARK  status: ('A' for Active; 'I' for Inactive)
REMARK    1  A    between atoms: C_2  and  C_3 
REMARK    2  A    between atoms: C_3  and  O_4 
REMARK    3  A    between atoms: O_4  and  C_5 
REMARK    4  A    between atoms: C_7  and  C_8 
REMARK    5  A    between atoms: N_9  and  C_10 
REMARK    6  A    between atoms: C_10  and  C_11 
REMARK    7  A    between atoms: C_24  and  C_25 
REMARK    8  A    between atoms: C_26  and  O_27 
ROOT
HETATM    1  C   UNL     1      41.790 -14.058   4.156  1.00  0.00     0.159 A 
HETATM    2  N   UNL     1      41.072 -13.052   4.987  1.00  0.00    -0.329 N 
HETATM    3  C   UNL     1      40.301 -13.607   6.011  1.00  0.00     0.273 A 
HETATM    4  O   UNL     1      39.646 -13.037   6.864  1.00  0.00    -0.266 OA
HETATM    5  C   UNL     1      40.480 -14.999   5.840  1.00  0.00     0.129 A 
HETATM    6  C   UNL     1      41.325 -15.301   4.812  1.00  0.00     0.034 A 
HETATM    7  N   UNL     1      40.067 -16.148   6.393  1.00  0.00    -0.272 N 
HETATM    8  H   UNL     1      39.435 -16.294   7.175  1.00  0.00     0.189 HD
HETATM    9  N   UNL     1      40.602 -17.223   5.759  1.00  0.00    -0.173 NA
HETATM   10  C   UNL     1      41.428 -16.704   4.810  1.00  0.00     0.101 A 
ENDROOT
BRANCH   1  11
HETATM   11  C   UNL     1      41.322 -14.098   2.720  1.00  0.00    -0.028 A 
HETATM   12  C   UNL     1      39.960 -14.308   2.442  1.00  0.00     0.046 A 
HETATM   13  C   UNL     1      39.476 -14.333   1.129  1.00  0.00     0.069 A 
HETATM   14  C   UNL     1      40.365 -14.163   0.070  1.00  0.00     0.037 A 
HETATM   15  C   UNL     1      41.723 -13.963   0.322  1.00  0.00     0.003 A 
HETATM   16  C   UNL     1      42.198 -13.929   1.634  1.00  0.00     0.010 A 
BRANCH  13  17
HETATM   17  O   UNL     1      38.127 -14.534   1.025  1.00  0.00    -0.348 OA
BRANCH  17  18
HETATM   18  C   UNL     1      37.446 -13.819  -0.004  1.00  0.00     0.202 C 
BRANCH  18  19
HETATM   19  C   UNL     1      36.943 -12.540   0.595  1.00  0.00    -0.011 C 
HETATM   20  C   UNL     1      36.423 -11.522  -0.103  1.00  0.00     0.009 C 
ENDBRANCH  18  19
ENDBRANCH  17  18
ENDBRANCH  13  17
ENDBRANCH   1  11
BRANCH   2  21
HETATM   21  C   UNL     1      41.298 -11.631   4.846  1.00  0.00     0.165 C 
BRANCH  21  22
HETATM   22  C   UNL     1      40.259 -10.979   3.972  1.00  0.00    -0.037 A 
HETATM   23  C   UNL     1      38.967 -10.736   4.447  1.00  0.00     0.028 A 
HETATM   24  C   UNL     1      38.049 -10.138   3.598  1.00  0.00     0.116 A 
HETATM   25  N   UNL     1      38.325  -9.778   2.326  1.00  0.00    -0.273 NA
HETATM   26  C   UNL     1      39.578 -10.019   1.885  1.00  0.00     0.116 A 
HETATM   27  C   UNL     1      40.565 -10.607   2.658  1.00  0.00     0.028 A 
ENDBRANCH  21  22
ENDBRANCH   2  21
BRANCH  10  28
HETATM   28  C   UNL     1      42.226 -17.585   3.953  1.00  0.00     0.028 A 
HETATM   29  C   UNL     1      43.180 -18.465   4.495  1.00  0.00     0.078 A 
HETATM   30  C   UNL     1      43.918 -19.324   3.683  1.00  0.00     0.037 A 
HETATM   31  C   UNL     1      43.731 -19.300   2.303  1.00  0.00     0.003 A 
HETATM   32  C   UNL     1      42.813 -18.416   1.740  1.00  0.00     0.001 A 
HETATM   33  C   UNL     1      42.068 -17.561   2.560  1.00  0.00     0.017 A 
BRANCH  29  34
HETATM   34  O   UNL     1      43.445 -18.524   5.840  1.00  0.00    -0.360 OA
HETATM   35  H   UNL     1      43.207 -19.436   6.123  1.00  0.00     0.217 HD
ENDBRANCH  29  34
ENDBRANCH  10  28
TORSDOF 8
ENDMDL
MODEL 9
REMARK VINA RESULT:      -7.5      2.901      6.477
REMARK  8 active torsions:
REMARK  status: ('A' for Active; 'I' for Inactive)
REMARK    1  A    between atoms: C_2  and  C_3 
REMARK    2  A    between atoms: C_3  and  O_4 
REMARK    3  A    between atoms: O_4  and  C_5 
REMARK    4  A    between atoms: C_7  and  C_8 
REMARK    5  A    between atoms: N_9  and  C_10 
REMARK    6  A    between atoms: C_10  and  C_11 
REMARK    7  A    between atoms: C_24  and  C_25 
REMARK    8  A    between atoms: C_26  and  O_27 
ROOT
HETATM    1  C   UNL     1      41.029 -13.383   2.436  1.00  0.00     0.159 A 
HETATM    2  N   UNL     1      39.922 -12.575   1.852  1.00  0.00    -0.329 N 
HETATM    3  C   UNL     1      39.056 -12.029   2.801  1.00  0.00     0.273 A 
HETATM    4  O   UNL     1      38.098 -11.299   2.623  1.00  0.00    -0.266 OA
HETATM    5  C   UNL     1      39.569 -12.504   4.028  1.00  0.00     0.129 A 
HETATM    6  C   UNL     1      40.693 -13.263   3.874  1.00  0.00     0.034 A 
HETATM    7  N   UNL     1      39.288 -12.436   5.337  1.00  0.00    -0.272 N 
HETATM    8  H   UNL     1      38.525 -11.957   5.807  1.00  0.00     0.189 HD
HETATM    9  N   UNL     1      40.187 -13.140   6.074  1.00  0.00    -0.173 NA
HETATM   10  C   UNL     1      41.094 -13.612   5.176  1.00  0.00     0.101 A 
ENDROOT
BRANCH   1  11
HETATM   11  C   UNL     1      40.961 -14.848   2.074  1.00  0.00    -0.028 A 
HETATM   12  C   UNL     1      42.087 -15.475   1.510  1.00  0.00     0.046 A 
HETATM   13  C   UNL     1      42.078 -16.834   1.177  1.00  0.00     0.069 A 
HETATM   14  C   UNL     1      40.923 -17.583   1.391  1.00  0.00     0.037 A 
HETATM   15  C   UNL     1      39.791 -16.979   1.940  1.00  0.00     0.003 A 
HETATM   16  C   UNL     1      39.809 -15.626   2.279  1.00  0.00     0.010 A 
BRANCH  13  17
HETATM   17  O   UNL     1      43.253 -17.297   0.652  1.00  0.00    -0.348 OA
BRANCH  17  18
HETATM   18  C   UNL     1      44.341 -17.472   1.558  1.00  0.00     0.202 C 
BRANCH  18  19
HETATM   19  C   UNL     1      43.964 -18.572   2.505  1.00  0.00    -0.011 C 
HETATM   20  C   UNL     1      43.864 -19.865   2.172  1.00  0.00     0.009 C 
ENDBRANCH  18  19
ENDBRANCH  17  18
ENDBRANCH  13  17
ENDBRANCH   1  11
BRANCH   2  21
HETATM   21  C   UNL     1      39.863 -12.252   0.444  1.00  0.00     0.165 C 
BRANCH  21  22
HETATM   22  C   UNL     1      41.151 -11.646  -0.050  1.00  0.00    -0.037 A 
HETATM   23  C   UNL     1      41.932 -12.298  -1.009  1.00  0.00     0.028 A 
HETATM   24  C   UNL     1      43.110 -11.698  -1.424  1.00  0.00     0.116 A 
HETATM   25  N   UNL     1      43.559 -10.515  -0.951  1.00  0.00    -0.273 NA
HETATM   26  C   UNL     1      42.790  -9.900  -0.027  1.00  0.00     0.116 A 
HETATM   27  C   UNL     1      41.596 -10.417   0.447  1.00  0.00     0.028 A 
ENDBRANCH  21  22
ENDBRANCH   2  21
BRANCH  10  28
HETATM   28  C   UNL     1      42.255 -14.384   5.624  1.00  0.00     0.028 A 
HETATM   29  C   UNL     1      43.175 -13.854   6.547  1.00  0.00     0.078 A 
HETATM   30  C   UNL     1      44.263 -14.600   6.996  1.00  0.00     0.037 A 
HETATM   31  C   UNL     1      44.465 -15.890   6.509  1.00  0.00     0.003 A 
HETATM   32  C   UNL     1      43.583 -16.425   5.573  1.00  0.00     0.001 A 
HETATM   33  C   UNL     1      42.488 -15.676   5.130  1.00  0.00     0.017 A 
BRANCH  29  34
HETATM   34  O   UNL     1      43.063 -12.581   7.047  1.00  0.00    -0.360 OA
HETATM   35  H   UNL     1      43.537 -12.587   7.909  1.00  0.00     0.217 HD
ENDBRANCH  29  34
ENDBRANCH  10  28
TORSDOF 8
ENDMDL
MODEL 10
REMARK VINA RESULT:      -7.3      2.697      6.747
REMARK  8 active torsions:
REMARK  status: ('A' for Active; 'I' for Inactive)
REMARK    1  A    between atoms: C_2  and  C_3 
REMARK    2  A    between atoms: C_3  and  O_4 
REMARK    3  A    between atoms: O_4  and  C_5 
REMARK    4  A    between atoms: C_7  and  C_8 
REMARK    5  A    between atoms: N_9  and  C_10 
REMARK    6  A    between atoms: C_10  and  C_11 
REMARK    7  A    between atoms: C_24  and  C_25 
REMARK    8  A    between atoms: C_26  and  O_27 
ROOT
HETATM    1  C   UNL     1      40.367 -14.734   3.464  1.00  0.00     0.159 A 
HETATM    2  N   UNL     1      40.980 -14.382   4.775  1.00  0.00    -0.329 N 
HETATM    3  C   UNL     1      41.657 -13.161   4.775  1.00  0.00     0.273 A 
HETATM    4  O   UNL     1      42.214 -12.601   5.702  1.00  0.00    -0.266 OA
HETATM    5  C   UNL     1      41.522 -12.708   3.443  1.00  0.00     0.129 A 
HETATM    6  C   UNL     1      40.789 -13.559   2.668  1.00  0.00     0.034 A 
HETATM    7  N   UNL     1      41.901 -11.672   2.683  1.00  0.00    -0.272 N 
HETATM    8  H   UNL     1      42.456 -10.859   2.935  1.00  0.00     0.189 HD
HETATM    9  N   UNL     1      41.451 -11.802   1.408  1.00  0.00    -0.173 NA
HETATM   10  C   UNL     1      40.714 -12.946   1.404  1.00  0.00     0.101 A 
ENDROOT
BRANCH   1  11
HETATM   11  C   UNL     1      40.975 -15.960   2.824  1.00  0.00    -0.028 A 
HETATM   12  C   UNL     1      42.221 -16.430   3.275  1.00  0.00     0.046 A 
HETATM   13  C   UNL     1      42.814 -17.572   2.726  1.00  0.00     0.069 A 
HETATM   14  C   UNL     1      42.166 -18.253   1.698  1.00  0.00     0.037 A 
HETATM   15  C   UNL     1      40.933 -17.798   1.228  1.00  0.00     0.003 A 
HETATM   16  C   UNL     1      40.342 -16.663   1.785  1.00  0.00     0.010 A 
BRANCH  13  17
HETATM   17  O   UNL     1      44.018 -17.909   3.280  1.00  0.00    -0.348 OA
BRANCH  17  18
HETATM   18  C   UNL     1      44.112 -19.196   3.888  1.00  0.00     0.202 C 
BRANCH  18  19
HETATM   19  C   UNL     1      44.790 -20.107   2.908  1.00  0.00    -0.011 C 
HETATM   20  C   UNL     1      44.256 -21.231   2.414  1.00  0.00     0.009 C 
ENDBRANCH  18  19
ENDBRANCH  17  18
ENDBRANCH  13  17
ENDBRANCH   1  11
BRANCH   2  21
HETATM   21  C   UNL     1      40.742 -15.158   5.971  1.00  0.00     0.165 C 
BRANCH  21  22
HETATM   22  C   UNL     1      41.954 -15.955   6.377  1.00  0.00    -0.037 A 
HETATM   23  C   UNL     1      43.232 -15.390   6.342  1.00  0.00     0.028 A 
HETATM   24  C   UNL     1      44.313 -16.172   6.721  1.00  0.00     0.116 A 
HETATM   25  N   UNL     1      44.209 -17.457   7.120  1.00  0.00    -0.273 NA
HETATM   26  C   UNL     1      42.966 -17.984   7.149  1.00  0.00     0.116 A 
HETATM   27  C   UNL     1      41.825 -17.284   6.794  1.00  0.00     0.028 A 
ENDBRANCH  21  22
ENDBRANCH   2  21
BRANCH  10  28
HETATM   28  C   UNL     1      40.020 -13.382   0.190  1.00  0.00     0.028 A 
HETATM   29  C   UNL     1      40.712 -14.008  -0.863  1.00  0.00     0.078 A 
HETATM   30  C   UNL     1      40.048 -14.450  -2.006  1.00  0.00     0.037 A 
HETATM   31  C   UNL     1      38.674 -14.250  -2.127  1.00  0.00     0.003 A 
HETATM   32  C   UNL     1      37.973 -13.606  -1.110  1.00  0.00     0.001 A 
HETATM   33  C   UNL     1      38.642 -13.171   0.039  1.00  0.00     0.017 A 
BRANCH  29  34
HETATM   34  O   UNL     1      42.069 -14.211  -0.833  1.00  0.00    -0.360 OA
HETATM   35  H   UNL     1      42.476 -13.315  -0.853  1.00  0.00     0.217 HD
ENDBRANCH  29  34
ENDBRANCH  10  28
TORSDOF 8
ENDMDL
