MODEL 1
REMARK VINA RESULT:      -8.5      0.000      0.000
REMARK  7 active torsions:
REMARK  status: ('A' for Active; 'I' for Inactive)
REMARK    1  A    between atoms: C_3  and  C_4 
REMARK       I    between atoms: C_4  and  N_5 
REMARK    2  A    between atoms: N_5  and  C_6 
REMARK    3  A    between atoms: C_17  and  S_18 
REMARK    4  A    between atoms: S_18  and  C_19 
REMARK    5  A    between atoms: C_19  and  C_20 
REMARK       I    between atoms: C_20  and  N_21 
REMARK    6  A    between atoms: N_21  and  C_22 
REMARK    7  A    between atoms: C_22  and  C_23 
ROOT
HETATM    1  C   UNL     1      44.050 -22.007   2.101  1.00  0.00     0.001 A 
HETATM    2  C   UNL     1      43.709 -20.700   1.760  1.00  0.00     0.018 A 
HETATM    3  C   UNL     1      43.914 -19.654   2.677  1.00  0.00     0.049 A 
HETATM    4  C   UNL     1      44.461 -19.916   3.948  1.00  0.00     0.016 A 
HETATM    5  C   UNL     1      44.783 -21.242   4.276  1.00  0.00     0.019 A 
HETATM    6  C   UNL     1      44.586 -22.277   3.358  1.00  0.00     0.001 A 
ENDROOT
BRANCH   3   7
HETATM    7  C   UNL     1      43.518 -18.283   2.268  1.00  0.00     0.257 C 
HETATM    8  N   UNL     1      42.154 -18.116   2.099  1.00  0.00    -0.323 N 
HETATM    9  H   UNL     1      41.567 -18.926   2.259  1.00  0.00     0.169 HD
HETATM   10  O   UNL     1      44.392 -17.450   2.070  1.00  0.00    -0.267 OA
BRANCH   8  11
HETATM   11  C   UNL     1      41.496 -16.959   1.626  1.00  0.00     0.037 A 
HETATM   12  C   UNL     1      41.977 -16.177   0.569  1.00  0.00     0.061 A 
HETATM   13  C   UNL     1      41.215 -15.097   0.189  1.00  0.00     0.065 A 
HETATM   14  C   UNL     1      40.018 -14.767   0.817  1.00  0.00     0.063 A 
HETATM   15  N   UNL     1      41.439 -14.172  -0.824  1.00  0.00    -0.306 N 
HETATM   16  N   UNL     1      39.504 -13.637   0.191  1.00  0.00    -0.307 N 
HETATM   17  C   UNL     1      39.522 -15.501   1.863  1.00  0.00     0.034 A 
HETATM   18  C   UNL     1      40.379 -13.255  -0.839  1.00  0.00     0.325 A 
HETATM   19  H   UNL     1      38.649 -13.152   0.406  1.00  0.00     0.170 HD
HETATM   20  O   UNL     1      40.239 -12.313  -1.597  1.00  0.00    -0.247 OA
HETATM   21  C   UNL     1      40.278 -16.610   2.267  1.00  0.00     0.032 A 
HETATM   22  H   UNL     1      42.223 -14.149  -1.457  1.00  0.00     0.170 HD
ENDBRANCH   8  11
ENDBRANCH   3   7
BRANCH   4  23
HETATM   23  S   UNL     1      44.766 -18.685   5.215  1.00  0.00    -0.120 SA
BRANCH  23  24
HETATM   24  C   UNL     1      43.228 -18.816   6.184  1.00  0.00     0.182 C 
BRANCH  24  25
HETATM   25  C   UNL     1      42.197 -17.790   5.746  1.00  0.00     0.227 C 
HETATM   26  N   UNL     1      42.373 -16.515   6.229  1.00  0.00    -0.354 N 
HETATM   27  H   UNL     1      43.252 -16.262   6.684  1.00  0.00     0.162 HD
HETATM   28  O   UNL     1      41.215 -18.113   5.078  1.00  0.00    -0.273 OA
BRANCH  26  29
HETATM   29  C   UNL     1      41.471 -15.455   5.852  1.00  0.00     0.187 C 
BRANCH  29  30
HETATM   30  C   UNL     1      42.044 -14.632   4.756  1.00  0.00     0.070 A 
HETATM   31  O   UNL     1      43.220 -15.052   4.202  1.00  0.00    -0.325 OA
HETATM   32  C   UNL     1      43.535 -14.173   3.217  1.00  0.00     0.142 A 
HETATM   33  C   UNL     1      42.573 -13.196   3.119  1.00  0.00     0.027 A 
HETATM   34  C   UNL     1      41.608 -13.490   4.112  1.00  0.00     0.036 A 
ENDBRANCH  29  30
ENDBRANCH  26  29
ENDBRANCH  24  25
ENDBRANCH  23  24
ENDBRANCH   4  23
TORSDOF 7
ENDMDL
MODEL 2
REMARK VINA RESULT:      -8.4      1.105      1.637
REMARK  7 active torsions:
REMARK  status: ('A' for Active; 'I' for Inactive)
REMARK    1  A    between atoms: C_3  and  C_4 
REMARK       I    between atoms: C_4  and  N_5 
REMARK    2  A    between atoms: N_5  and  C_6 
REMARK    3  A    between atoms: C_17  and  S_18 
REMARK    4  A    between atoms: S_18  and  C_19 
REMARK    5  A    between atoms: C_19  and  C_20 
REMARK       I    between atoms: C_20  and  N_21 
REMARK    6  A    between atoms: N_21  and  C_22 
REMARK    7  A    between atoms: C_22  and  C_23 
ROOT
HETATM    1  C   UNL     1      44.337 -22.264   2.642  1.00  0.00     0.001 A 
HETATM    2  C   UNL     1      43.960 -21.026   2.127  1.00  0.00     0.018 A 
HETATM    3  C   UNL     1      44.074 -19.869   2.917  1.00  0.00     0.049 A 
HETATM    4  C   UNL     1      44.566 -19.949   4.234  1.00  0.00     0.016 A 
HETATM    5  C   UNL     1      44.925 -21.208   4.737  1.00  0.00     0.019 A 
HETATM    6  C   UNL     1      44.819 -22.355   3.946  1.00  0.00     0.001 A 
ENDROOT
BRANCH   3   7
HETATM    7  C   UNL     1      43.643 -18.578   2.325  1.00  0.00     0.257 C 
HETATM    8  N   UNL     1      42.272 -18.384   2.329  1.00  0.00    -0.323 N 
HETATM    9  H   UNL     1      41.703 -19.125   2.720  1.00  0.00     0.169 HD
HETATM   10  O   UNL     1      44.490 -17.833   1.850  1.00  0.00    -0.267 OA
BRANCH   8  11
HETATM   11  C   UNL     1      41.569 -17.303   1.752  1.00  0.00     0.037 A 
HETATM   12  C   UNL     1      40.314 -16.874   2.201  1.00  0.00     0.061 A 
HETATM   13  C   UNL     1      39.760 -15.786   1.569  1.00  0.00     0.065 A 
HETATM   14  C   UNL     1      40.392 -15.126   0.519  1.00  0.00     0.063 A 
HETATM   15  N   UNL     1      38.551 -15.143   1.813  1.00  0.00    -0.306 N 
HETATM   16  N   UNL     1      39.574 -14.077   0.117  1.00  0.00    -0.307 N 
HETATM   17  C   UNL     1      41.615 -15.526   0.044  1.00  0.00     0.034 A 
HETATM   18  C   UNL     1      38.421 -14.073   0.918  1.00  0.00     0.325 A 
HETATM   19  H   UNL     1      39.747 -13.409  -0.615  1.00  0.00     0.170 HD
HETATM   20  O   UNL     1      37.492 -13.288   0.848  1.00  0.00    -0.247 OA
HETATM   21  C   UNL     1      42.204 -16.630   0.675  1.00  0.00     0.032 A 
HETATM   22  H   UNL     1      37.871 -15.387   2.516  1.00  0.00     0.170 HD
ENDBRANCH   8  11
ENDBRANCH   3   7
BRANCH   4  23
HETATM   23  S   UNL     1      44.754 -18.560   5.352  1.00  0.00    -0.120 SA
BRANCH  23  24
HETATM   24  C   UNL     1      43.216 -18.700   6.320  1.00  0.00     0.182 C 
BRANCH  24  25
HETATM   25  C   UNL     1      42.151 -17.734   5.829  1.00  0.00     0.227 C 
HETATM   26  N   UNL     1      42.269 -16.436   6.265  1.00  0.00    -0.354 N 
HETATM   27  H   UNL     1      43.131 -16.131   6.721  1.00  0.00     0.162 HD
HETATM   28  O   UNL     1      41.193 -18.122   5.161  1.00  0.00    -0.273 OA
BRANCH  26  29
HETATM   29  C   UNL     1      41.331 -15.428   5.835  1.00  0.00     0.187 C 
BRANCH  29  30
HETATM   30  C   UNL     1      41.866 -14.659   4.683  1.00  0.00     0.070 A 
HETATM   31  O   UNL     1      41.105 -13.632   4.203  1.00  0.00    -0.325 OA
HETATM   32  C   UNL     1      41.796 -13.063   3.183  1.00  0.00     0.142 A 
HETATM   33  C   UNL     1      43.000 -13.702   3.003  1.00  0.00     0.027 A 
HETATM   34  C   UNL     1      43.048 -14.734   3.971  1.00  0.00     0.036 A 
ENDBRANCH  29  30
ENDBRANCH  26  29
ENDBRANCH  24  25
ENDBRANCH  23  24
ENDBRANCH   4  23
TORSDOF 7
ENDMDL
MODEL 3
REMARK VINA RESULT:      -7.9      2.661      6.560
REMARK  7 active torsions:
REMARK  status: ('A' for Active; 'I' for Inactive)
REMARK    1  A    between atoms: C_3  and  C_4 
REMARK       I    between atoms: C_4  and  N_5 
REMARK    2  A    between atoms: N_5  and  C_6 
REMARK    3  A    between atoms: C_17  and  S_18 
REMARK    4  A    between atoms: S_18  and  C_19 
REMARK    5  A    between atoms: C_19  and  C_20 
REMARK       I    between atoms: C_20  and  N_21 
REMARK    6  A    between atoms: N_21  and  C_22 
REMARK    7  A    between atoms: C_22  and  C_23 
ROOT
HETATM    1  C   UNL     1      40.974 -14.898  -2.244  1.00  0.00     0.001 A 
HETATM    2  C   UNL     1      41.137 -15.861  -1.251  1.00  0.00     0.018 A 
HETATM    3  C   UNL     1      41.341 -15.470   0.084  1.00  0.00     0.049 A 
HETATM    4  C   UNL     1      41.386 -14.106   0.430  1.00  0.00     0.016 A 
HETATM    5  C   UNL     1      41.235 -13.153  -0.589  1.00  0.00     0.019 A 
HETATM    6  C   UNL     1      41.024 -13.546  -1.914  1.00  0.00     0.001 A 
ENDROOT
BRANCH   3   7
HETATM    7  C   UNL     1      41.524 -16.537   1.100  1.00  0.00     0.257 C 
HETATM    8  N   UNL     1      42.832 -16.973   1.232  1.00  0.00    -0.323 N 
HETATM    9  H   UNL     1      43.525 -16.540   0.633  1.00  0.00     0.169 HD
HETATM   10  O   UNL     1      40.542 -16.970   1.687  1.00  0.00    -0.267 OA
BRANCH   8  11
HETATM   11  C   UNL     1      43.293 -18.033   2.043  1.00  0.00     0.037 A 
HETATM   12  C   UNL     1      43.376 -19.360   1.602  1.00  0.00     0.061 A 
HETATM   13  C   UNL     1      43.876 -20.285   2.488  1.00  0.00     0.065 A 
HETATM   14  C   UNL     1      44.281 -19.948   3.776  1.00  0.00     0.063 A 
HETATM   15  N   UNL     1      44.083 -21.649   2.316  1.00  0.00    -0.306 N 
HETATM   16  N   UNL     1      44.737 -21.104   4.398  1.00  0.00    -0.307 N 
HETATM   17  C   UNL     1      44.202 -18.663   4.247  1.00  0.00     0.034 A 
HETATM   18  C   UNL     1      44.623 -22.175   3.498  1.00  0.00     0.325 A 
HETATM   19  H   UNL     1      45.102 -21.196   5.332  1.00  0.00     0.170 HD
HETATM   20  O   UNL     1      44.936 -23.333   3.705  1.00  0.00    -0.247 OA
HETATM   21  C   UNL     1      43.699 -17.699   3.362  1.00  0.00     0.032 A 
HETATM   22  H   UNL     1      43.890 -22.188   1.487  1.00  0.00     0.170 HD
ENDBRANCH   8  11
ENDBRANCH   3   7
BRANCH   4  23
HETATM   23  S   UNL     1      41.647 -13.468   2.085  1.00  0.00    -0.120 SA
BRANCH  23  24
HETATM   24  C   UNL     1      39.976 -13.667   2.786  1.00  0.00     0.182 C 
BRANCH  24  25
HETATM   25  C   UNL     1      40.023 -14.125   4.234  1.00  0.00     0.227 C 
HETATM   26  N   UNL     1      40.470 -15.407   4.445  1.00  0.00    -0.354 N 
HETATM   27  H   UNL     1      40.920 -15.920   3.684  1.00  0.00     0.162 HD
HETATM   28  O   UNL     1      39.593 -13.417   5.144  1.00  0.00    -0.273 OA
BRANCH  26  29
HETATM   29  C   UNL     1      40.585 -15.934   5.783  1.00  0.00     0.187 C 
BRANCH  29  30
HETATM   30  C   UNL     1      41.993 -15.893   6.253  1.00  0.00     0.070 A 
HETATM   31  O   UNL     1      42.398 -16.869   7.118  1.00  0.00    -0.325 OA
HETATM   32  C   UNL     1      43.710 -16.649   7.386  1.00  0.00     0.142 A 
HETATM   33  C   UNL     1      44.163 -15.549   6.697  1.00  0.00     0.027 A 
HETATM   34  C   UNL     1      43.056 -15.058   5.964  1.00  0.00     0.036 A 
ENDBRANCH  29  30
ENDBRANCH  26  29
ENDBRANCH  24  25
ENDBRANCH  23  24
ENDBRANCH   4  23
TORSDOF 7
ENDMDL
MODEL 4
REMARK VINA RESULT:      -7.7      2.560      6.701
REMARK  7 active torsions:
REMARK  status: ('A' for Active; 'I' for Inactive)
REMARK    1  A    between atoms: C_3  and  C_4 
REMARK       I    between atoms: C_4  and  N_5 
REMARK    2  A    between atoms: N_5  and  C_6 
REMARK    3  A    between atoms: C_17  and  S_18 
REMARK    4  A    between atoms: S_18  and  C_19 
REMARK    5  A    between atoms: C_19  and  C_20 
REMARK       I    between atoms: C_20  and  N_21 
REMARK    6  A    between atoms: N_21  and  C_22 
REMARK    7  A    between atoms: C_22  and  C_23 
ROOT
HETATM    1  C   UNL     1      40.245 -13.232  -1.209  1.00  0.00     0.001 A 
HETATM    2  C   UNL     1      40.526 -14.412  -0.524  1.00  0.00     0.018 A 
HETATM    3  C   UNL     1      40.442 -14.452   0.878  1.00  0.00     0.049 A 
HETATM    4  C   UNL     1      40.078 -13.302   1.605  1.00  0.00     0.016 A 
HETATM    5  C   UNL     1      39.814 -12.121   0.896  1.00  0.00     0.019 A 
HETATM    6  C   UNL     1      39.889 -12.088  -0.499  1.00  0.00     0.001 A 
ENDROOT
BRANCH   3   7
HETATM    7  C   UNL     1      40.768 -15.731   1.558  1.00  0.00     0.257 C 
HETATM    8  N   UNL     1      42.125 -15.981   1.670  1.00  0.00    -0.323 N 
HETATM    9  H   UNL     1      42.755 -15.290   1.282  1.00  0.00     0.169 HD
HETATM   10  O   UNL     1      39.853 -16.463   1.910  1.00  0.00    -0.267 OA
BRANCH   8  11
HETATM   11  C   UNL     1      42.730 -17.151   2.180  1.00  0.00     0.037 A 
HETATM   12  C   UNL     1      42.693 -18.387   1.522  1.00  0.00     0.061 A 
HETATM   13  C   UNL     1      43.355 -19.435   2.117  1.00  0.00     0.065 A 
HETATM   14  C   UNL     1      44.034 -19.305   3.324  1.00  0.00     0.063 A 
HETATM   15  N   UNL     1      43.496 -20.749   1.685  1.00  0.00    -0.306 N 
HETATM   16  N   UNL     1      44.593 -20.538   3.637  1.00  0.00    -0.307 N 
HETATM   17  C   UNL     1      44.082 -18.115   4.004  1.00  0.00     0.034 A 
HETATM   18  C   UNL     1      44.268 -21.451   2.621  1.00  0.00     0.325 A 
HETATM   19  H   UNL     1      45.148 -20.774   4.443  1.00  0.00     0.170 HD
HETATM   20  O   UNL     1      44.597 -22.622   2.565  1.00  0.00    -0.247 OA
HETATM   21  C   UNL     1      43.418 -17.029   3.417  1.00  0.00     0.032 A 
HETATM   22  H   UNL     1      43.118 -21.150   0.841  1.00  0.00     0.170 HD
ENDBRANCH   8  11
ENDBRANCH   3   7
BRANCH   4  23
HETATM   23  S   UNL     1      39.942 -13.209   3.391  1.00  0.00    -0.120 SA
BRANCH  23  24
HETATM   24  C   UNL     1      41.431 -12.235   3.787  1.00  0.00     0.182 C 
BRANCH  24  25
HETATM   25  C   UNL     1      42.620 -13.126   4.103  1.00  0.00     0.227 C 
HETATM   26  N   UNL     1      42.844 -13.381   5.434  1.00  0.00    -0.354 N 
HETATM   27  H   UNL     1      42.130 -13.140   6.124  1.00  0.00     0.162 HD
HETATM   28  O   UNL     1      43.385 -13.509   3.219  1.00  0.00    -0.273 OA
BRANCH  26  29
HETATM   29  C   UNL     1      43.926 -14.240   5.846  1.00  0.00     0.187 C 
BRANCH  29  30
HETATM   30  C   UNL     1      43.413 -15.452   6.533  1.00  0.00     0.070 A 
HETATM   31  O   UNL     1      42.128 -15.832   6.266  1.00  0.00    -0.325 OA
HETATM   32  C   UNL     1      41.889 -16.964   6.974  1.00  0.00     0.142 A 
HETATM   33  C   UNL     1      43.005 -17.329   7.689  1.00  0.00     0.027 A 
HETATM   34  C   UNL     1      43.992 -16.354   7.405  1.00  0.00     0.036 A 
ENDBRANCH  29  30
ENDBRANCH  26  29
ENDBRANCH  24  25
ENDBRANCH  23  24
ENDBRANCH   4  23
TORSDOF 7
ENDMDL
MODEL 5
REMARK VINA RESULT:      -7.7      3.338      6.752
REMARK  7 active torsions:
REMARK  status: ('A' for Active; 'I' for Inactive)
REMARK    1  A    between atoms: C_3  and  C_4 
REMARK       I    between atoms: C_4  and  N_5 
REMARK    2  A    between atoms: N_5  and  C_6 
REMARK    3  A    between atoms: C_17  and  S_18 
REMARK    4  A    between atoms: S_18  and  C_19 
REMARK    5  A    between atoms: C_19  and  C_20 
REMARK       I    between atoms: C_20  and  N_21 
REMARK    6  A    between atoms: N_21  and  C_22 
REMARK    7  A    between atoms: C_22  and  C_23 
ROOT
HETATM    1  C   UNL     1      37.889 -13.710   1.045  1.00  0.00     0.001 A 
HETATM    2  C   UNL     1      38.900 -14.668   1.008  1.00  0.00     0.018 A 
HETATM    3  C   UNL     1      40.168 -14.378   1.542  1.00  0.00     0.049 A 
HETATM    4  C   UNL     1      40.430 -13.118   2.115  1.00  0.00     0.016 A 
HETATM    5  C   UNL     1      39.402 -12.164   2.127  1.00  0.00     0.019 A 
HETATM    6  C   UNL     1      38.140 -12.459   1.604  1.00  0.00     0.001 A 
ENDROOT
BRANCH   3   7
HETATM    7  C   UNL     1      41.213 -15.429   1.462  1.00  0.00     0.257 C 
HETATM    8  N   UNL     1      41.152 -16.365   2.481  1.00  0.00    -0.323 N 
HETATM    9  H   UNL     1      40.422 -16.246   3.173  1.00  0.00     0.169 HD
HETATM   10  O   UNL     1      42.047 -15.366   0.569  1.00  0.00    -0.267 OA
BRANCH   8  11
HETATM   11  C   UNL     1      42.064 -17.417   2.719  1.00  0.00     0.037 A 
HETATM   12  C   UNL     1      42.080 -18.605   1.978  1.00  0.00     0.061 A 
HETATM   13  C   UNL     1      43.046 -19.529   2.296  1.00  0.00     0.065 A 
HETATM   14  C   UNL     1      43.976 -19.324   3.311  1.00  0.00     0.063 A 
HETATM   15  N   UNL     1      43.303 -20.771   1.724  1.00  0.00    -0.306 N 
HETATM   16  N   UNL     1      44.805 -20.438   3.365  1.00  0.00    -0.307 N 
HETATM   17  C   UNL     1      43.983 -18.180   4.067  1.00  0.00     0.034 A 
HETATM   18  C   UNL     1      44.400 -21.350   2.377  1.00  0.00     0.325 A 
HETATM   19  H   UNL     1      45.580 -20.598   3.988  1.00  0.00     0.170 HD
HETATM   20  O   UNL     1      44.906 -22.430   2.135  1.00  0.00    -0.247 OA
HETATM   21  C   UNL     1      43.010 -17.218   3.759  1.00  0.00     0.032 A 
HETATM   22  H   UNL     1      42.801 -21.198   0.962  1.00  0.00     0.170 HD
ENDBRANCH   8  11
ENDBRANCH   3   7
BRANCH   4  23
HETATM   23  S   UNL     1      41.998 -12.612   2.820  1.00  0.00    -0.120 SA
BRANCH  23  24
HETATM   24  C   UNL     1      41.832 -13.274   4.510  1.00  0.00     0.182 C 
BRANCH  24  25
HETATM   25  C   UNL     1      43.171 -13.717   5.076  1.00  0.00     0.227 C 
HETATM   26  N   UNL     1      43.192 -14.001   6.420  1.00  0.00    -0.354 N 
HETATM   27  H   UNL     1      42.313 -14.093   6.933  1.00  0.00     0.162 HD
HETATM   28  O   UNL     1      44.188 -13.722   4.384  1.00  0.00    -0.273 OA
BRANCH  26  29
HETATM   29  C   UNL     1      44.402 -14.461   7.055  1.00  0.00     0.187 C 
BRANCH  29  30
HETATM   30  C   UNL     1      45.081 -13.352   7.773  1.00  0.00     0.070 A 
HETATM   31  O   UNL     1      46.316 -12.975   7.327  1.00  0.00    -0.325 OA
HETATM   32  C   UNL     1      46.725 -11.941   8.104  1.00  0.00     0.142 A 
HETATM   33  C   UNL     1      45.767 -11.636   9.042  1.00  0.00     0.027 A 
HETATM   34  C   UNL     1      44.703 -12.546   8.830  1.00  0.00     0.036 A 
ENDBRANCH  29  30
ENDBRANCH  26  29
ENDBRANCH  24  25
ENDBRANCH  23  24
ENDBRANCH   4  23
TORSDOF 7
ENDMDL
MODEL 6
REMARK VINA RESULT:      -7.6      1.548      1.965
REMARK  7 active torsions:
REMARK  status: ('A' for Active; 'I' for Inactive)
REMARK    1  A    between atoms: C_3  and  C_4 
REMARK       I    between atoms: C_4  and  N_5 
REMARK    2  A    between atoms: N_5  and  C_6 
REMARK    3  A    between atoms: C_17  and  S_18 
REMARK    4  A    between atoms: S_18  and  C_19 
REMARK    5  A    between atoms: C_19  and  C_20 
REMARK       I    between atoms: C_20  and  N_21 
REMARK    6  A    between atoms: N_21  and  C_22 
REMARK    7  A    between atoms: C_22  and  C_23 
ROOT
HETATM    1  C   UNL     1      44.827 -20.637   2.987  1.00  0.00     0.001 A 
HETATM    2  C   UNL     1      44.279 -19.437   2.540  1.00  0.00     0.018 A 
HETATM    3  C   UNL     1      43.704 -18.539   3.456  1.00  0.00     0.049 A 
HETATM    4  C   UNL     1      43.673 -18.843   4.831  1.00  0.00     0.016 A 
HETATM    5  C   UNL     1      44.218 -20.064   5.257  1.00  0.00     0.019 A 
HETATM    6  C   UNL     1      44.796 -20.950   4.344  1.00  0.00     0.001 A 
ENDROOT
BRANCH   3   7
HETATM    7  C   UNL     1      43.120 -17.282   2.923  1.00  0.00     0.257 C 
HETATM    8  N   UNL     1      41.888 -17.447   2.313  1.00  0.00    -0.323 N 
HETATM    9  H   UNL     1      41.511 -18.386   2.280  1.00  0.00     0.169 HD
HETATM   10  O   UNL     1      43.765 -16.246   3.014  1.00  0.00    -0.267 OA
BRANCH   8  11
HETATM   11  C   UNL     1      41.141 -16.457   1.636  1.00  0.00     0.037 A 
HETATM   12  C   UNL     1      41.452 -16.003   0.349  1.00  0.00     0.061 A 
HETATM   13  C   UNL     1      40.617 -15.060  -0.203  1.00  0.00     0.065 A 
HETATM   14  C   UNL     1      39.509 -14.554   0.469  1.00  0.00     0.063 A 
HETATM   15  N   UNL     1      40.675 -14.453  -1.453  1.00  0.00    -0.306 N 
HETATM   16  N   UNL     1      38.884 -13.635  -0.365  1.00  0.00    -0.307 N 
HETATM   17  C   UNL     1      39.181 -14.964   1.736  1.00  0.00     0.034 A 
HETATM   18  C   UNL     1      39.599 -13.563  -1.571  1.00  0.00     0.325 A 
HETATM   19  H   UNL     1      38.054 -13.098  -0.175  1.00  0.00     0.170 HD
HETATM   20  O   UNL     1      39.332 -12.865  -2.533  1.00  0.00    -0.247 OA
HETATM   21  C   UNL     1      40.014 -15.929   2.320  1.00  0.00     0.032 A 
HETATM   22  H   UNL     1      41.364 -14.616  -2.170  1.00  0.00     0.170 HD
ENDBRANCH   8  11
ENDBRANCH   3   7
BRANCH   4  23
HETATM   23  S   UNL     1      42.965 -17.797   6.103  1.00  0.00    -0.120 SA
BRANCH  23  24
HETATM   24  C   UNL     1      44.424 -16.808   6.571  1.00  0.00     0.182 C 
BRANCH  24  25
HETATM   25  C   UNL     1      44.120 -15.320   6.566  1.00  0.00     0.227 C 
HETATM   26  N   UNL     1      43.024 -14.931   5.834  1.00  0.00    -0.354 N 
HETATM   27  H   UNL     1      42.366 -15.635   5.494  1.00  0.00     0.162 HD
HETATM   28  O   UNL     1      44.873 -14.511   7.108  1.00  0.00    -0.273 OA
BRANCH  26  29
HETATM   29  C   UNL     1      42.626 -13.546   5.786  1.00  0.00     0.187 C 
BRANCH  29  30
HETATM   30  C   UNL     1      42.289 -13.136   4.399  1.00  0.00     0.070 A 
HETATM   31  O   UNL     1      41.194 -12.338   4.227  1.00  0.00    -0.325 OA
HETATM   32  C   UNL     1      41.097 -12.072   2.900  1.00  0.00     0.142 A 
HETATM   33  C   UNL     1      42.121 -12.678   2.211  1.00  0.00     0.027 A 
HETATM   34  C   UNL     1      42.893 -13.366   3.179  1.00  0.00     0.036 A 
ENDBRANCH  29  30
ENDBRANCH  26  29
ENDBRANCH  24  25
ENDBRANCH  23  24
ENDBRANCH   4  23
TORSDOF 7
ENDMDL
MODEL 7
REMARK VINA RESULT:      -7.5      3.363      4.147
REMARK  7 active torsions:
REMARK  status: ('A' for Active; 'I' for Inactive)
REMARK    1  A    between atoms: C_3  and  C_4 
REMARK       I    between atoms: C_4  and  N_5 
REMARK    2  A    between atoms: N_5  and  C_6 
REMARK    3  A    between atoms: C_17  and  S_18 
REMARK    4  A    between atoms: S_18  and  C_19 
REMARK    5  A    between atoms: C_19  and  C_20 
REMARK       I    between atoms: C_20  and  N_21 
REMARK    6  A    between atoms: N_21  and  C_22 
REMARK    7  A    between atoms: C_22  and  C_23 
ROOT
HETATM    1  C   UNL     1      44.009 -19.542   2.995  1.00  0.00     0.001 A 
HETATM    2  C   UNL     1      43.125 -18.824   2.192  1.00  0.00     0.018 A 
HETATM    3  C   UNL     1      42.467 -17.693   2.703  1.00  0.00     0.049 A 
HETATM    4  C   UNL     1      42.688 -17.276   4.030  1.00  0.00     0.016 A 
HETATM    5  C   UNL     1      43.570 -18.023   4.826  1.00  0.00     0.019 A 
HETATM    6  C   UNL     1      44.230 -19.142   4.310  1.00  0.00     0.001 A 
ENDROOT
BRANCH   3   7
HETATM    7  C   UNL     1      41.524 -16.974   1.810  1.00  0.00     0.257 C 
HETATM    8  N   UNL     1      42.138 -16.111   0.918  1.00  0.00    -0.323 N 
HETATM    9  H   UNL     1      43.148 -16.046   0.961  1.00  0.00     0.169 HD
HETATM   10  O   UNL     1      40.322 -17.150   1.954  1.00  0.00    -0.267 OA
BRANCH   8  11
HETATM   11  C   UNL     1      41.499 -15.229   0.018  1.00  0.00     0.037 A 
HETATM   12  C   UNL     1      41.211 -13.893   0.323  1.00  0.00     0.061 A 
HETATM   13  C   UNL     1      40.617 -13.139  -0.662  1.00  0.00     0.065 A 
HETATM   14  C   UNL     1      40.297 -13.657  -1.913  1.00  0.00     0.063 A 
HETATM   15  N   UNL     1      40.239 -11.801  -0.642  1.00  0.00    -0.306 N 
HETATM   16  N   UNL     1      39.722 -12.639  -2.664  1.00  0.00    -0.307 N 
HETATM   17  C   UNL     1      40.552 -14.964  -2.243  1.00  0.00     0.034 A 
HETATM   18  C   UNL     1      39.682 -11.472  -1.885  1.00  0.00     0.325 A 
HETATM   19  H   UNL     1      39.386 -12.690  -3.612  1.00  0.00     0.170 HD
HETATM   20  O   UNL     1      39.249 -10.386  -2.227  1.00  0.00    -0.247 OA
HETATM   21  C   UNL     1      41.162 -15.753  -1.258  1.00  0.00     0.032 A 
HETATM   22  H   UNL     1      40.345 -11.156   0.125  1.00  0.00     0.170 HD
ENDBRANCH   8  11
ENDBRANCH   3   7
BRANCH   4  23
HETATM   23  S   UNL     1      41.911 -15.863   4.813  1.00  0.00    -0.120 SA
BRANCH  23  24
HETATM   24  C   UNL     1      42.856 -15.782   6.369  1.00  0.00     0.182 C 
BRANCH  24  25
HETATM   25  C   UNL     1      43.837 -14.623   6.373  1.00  0.00     0.227 C 
HETATM   26  N   UNL     1      44.337 -14.261   7.601  1.00  0.00    -0.354 N 
HETATM   27  H   UNL     1      44.195 -14.873   8.406  1.00  0.00     0.162 HD
HETATM   28  O   UNL     1      44.086 -13.992   5.346  1.00  0.00    -0.273 OA
BRANCH  26  29
HETATM   29  C   UNL     1      45.300 -13.193   7.717  1.00  0.00     0.187 C 
BRANCH  29  30
HETATM   30  C   UNL     1      45.134 -12.463   8.999  1.00  0.00     0.070 A 
HETATM   31  O   UNL     1      44.393 -13.065   9.976  1.00  0.00    -0.325 OA
HETATM   32  C   UNL     1      44.401 -12.239  11.052  1.00  0.00     0.142 A 
HETATM   33  C   UNL     1      45.146 -11.114  10.790  1.00  0.00     0.027 A 
HETATM   34  C   UNL     1      45.621 -11.257   9.463  1.00  0.00     0.036 A 
ENDBRANCH  29  30
ENDBRANCH  26  29
ENDBRANCH  24  25
ENDBRANCH  23  24
ENDBRANCH   4  23
TORSDOF 7
ENDMDL
MODEL 8
REMARK VINA RESULT:      -7.4      2.714      7.757
REMARK  7 active torsions:
REMARK  status: ('A' for Active; 'I' for Inactive)
REMARK    1  A    between atoms: C_3  and  C_4 
REMARK       I    between atoms: C_4  and  N_5 
REMARK    2  A    between atoms: N_5  and  C_6 
REMARK    3  A    between atoms: C_17  and  S_18 
REMARK    4  A    between atoms: S_18  and  C_19 
REMARK    5  A    between atoms: C_19  and  C_20 
REMARK       I    between atoms: C_20  and  N_21 
REMARK    6  A    between atoms: N_21  and  C_22 
REMARK    7  A    between atoms: C_22  and  C_23 
ROOT
HETATM    1  C   UNL     1      41.513 -12.097   5.632  1.00  0.00     0.001 A 
HETATM    2  C   UNL     1      41.801 -13.459   5.692  1.00  0.00     0.018 A 
HETATM    3  C   UNL     1      41.287 -14.332   4.718  1.00  0.00     0.049 A 
HETATM    4  C   UNL     1      40.475 -13.843   3.676  1.00  0.00     0.016 A 
HETATM    5  C   UNL     1      40.185 -12.470   3.645  1.00  0.00     0.019 A 
HETATM    6  C   UNL     1      40.706 -11.604   4.610  1.00  0.00     0.001 A 
ENDROOT
BRANCH   3   7
HETATM    7  C   UNL     1      41.612 -15.776   4.838  1.00  0.00     0.257 C 
HETATM    8  N   UNL     1      42.765 -16.153   4.170  1.00  0.00    -0.323 N 
HETATM    9  H   UNL     1      43.264 -15.429   3.668  1.00  0.00     0.169 HD
HETATM   10  O   UNL     1      40.843 -16.506   5.449  1.00  0.00    -0.267 OA
BRANCH   8  11
HETATM   11  C   UNL     1      43.269 -17.464   4.027  1.00  0.00     0.037 A 
HETATM   12  C   UNL     1      43.008 -18.272   2.913  1.00  0.00     0.061 A 
HETATM   13  C   UNL     1      43.593 -19.516   2.890  1.00  0.00     0.065 A 
HETATM   14  C   UNL     1      44.405 -19.983   3.919  1.00  0.00     0.063 A 
HETATM   15  N   UNL     1      43.522 -20.507   1.917  1.00  0.00    -0.306 N 
HETATM   16  N   UNL     1      44.835 -21.261   3.581  1.00  0.00    -0.307 N 
HETATM   17  C   UNL     1      44.672 -19.226   5.032  1.00  0.00     0.034 A 
HETATM   18  C   UNL     1      44.294 -21.601   2.331  1.00  0.00     0.325 A 
HETATM   19  H   UNL     1      45.437 -21.867   4.112  1.00  0.00     0.170 HD
HETATM   20  O   UNL     1      44.467 -22.643   1.725  1.00  0.00    -0.247 OA
HETATM   21  C   UNL     1      44.091 -17.951   5.077  1.00  0.00     0.032 A 
HETATM   22  H   UNL     1      43.012 -20.464   1.049  1.00  0.00     0.170 HD
ENDBRANCH   8  11
ENDBRANCH   3   7
BRANCH   4  23
HETATM   23  S   UNL     1      39.747 -14.842   2.378  1.00  0.00    -0.120 SA
BRANCH  23  24
HETATM   24  C   UNL     1      41.145 -14.945   1.213  1.00  0.00     0.182 C 
BRANCH  24  25
HETATM   25  C   UNL     1      40.858 -14.201  -0.079  1.00  0.00     0.227 C 
HETATM   26  N   UNL     1      41.494 -14.675  -1.201  1.00  0.00    -0.354 N 
HETATM   27  H   UNL     1      41.961 -15.583  -1.173  1.00  0.00     0.162 HD
HETATM   28  O   UNL     1      40.173 -13.178  -0.091  1.00  0.00    -0.273 OA
BRANCH  26  29
HETATM   29  C   UNL     1      41.269 -14.063  -2.487  1.00  0.00     0.187 C 
BRANCH  29  30
HETATM   30  C   UNL     1      40.061 -14.628  -3.142  1.00  0.00     0.070 A 
HETATM   31  O   UNL     1      40.193 -15.831  -3.776  1.00  0.00    -0.325 OA
HETATM   32  C   UNL     1      38.973 -16.160  -4.270  1.00  0.00     0.142 A 
HETATM   33  C   UNL     1      38.050 -15.191  -3.955  1.00  0.00     0.027 A 
HETATM   34  C   UNL     1      38.751 -14.200  -3.226  1.00  0.00     0.036 A 
ENDBRANCH  29  30
ENDBRANCH  26  29
ENDBRANCH  24  25
ENDBRANCH  23  24
ENDBRANCH   4  23
TORSDOF 7
ENDMDL
MODEL 9
REMARK VINA RESULT:      -7.3      3.252      3.690
REMARK  7 active torsions:
REMARK  status: ('A' for Active; 'I' for Inactive)
REMARK    1  A    between atoms: C_3  and  C_4 
REMARK       I    between atoms: C_4  and  N_5 
REMARK    2  A    between atoms: N_5  and  C_6 
REMARK    3  A    between atoms: C_17  and  S_18 
REMARK    4  A    between atoms: S_18  and  C_19 
REMARK    5  A    between atoms: C_19  and  C_20 
REMARK       I    between atoms: C_20  and  N_21 
REMARK    6  A    between atoms: N_21  and  C_22 
REMARK    7  A    between atoms: C_22  and  C_23 
ROOT
HETATM    1  C   UNL     1      44.636 -20.215   3.729  1.00  0.00     0.001 A 
HETATM    2  C   UNL     1      44.196 -19.088   3.038  1.00  0.00     0.018 A 
HETATM    3  C   UNL     1      43.470 -18.089   3.708  1.00  0.00     0.049 A 
HETATM    4  C   UNL     1      43.175 -18.217   5.079  1.00  0.00     0.016 A 
HETATM    5  C   UNL     1      43.615 -19.367   5.751  1.00  0.00     0.019 A 
HETATM    6  C   UNL     1      44.345 -20.355   5.084  1.00  0.00     0.001 A 
ENDROOT
BRANCH   3   7
HETATM    7  C   UNL     1      43.012 -16.917   2.920  1.00  0.00     0.257 C 
HETATM    8  N   UNL     1      41.825 -17.124   2.237  1.00  0.00    -0.323 N 
HETATM    9  H   UNL     1      41.393 -18.035   2.329  1.00  0.00     0.169 HD
HETATM   10  O   UNL     1      43.711 -15.913   2.893  1.00  0.00    -0.267 OA
BRANCH   8  11
HETATM   11  C   UNL     1      41.200 -16.232   1.338  1.00  0.00     0.037 A 
HETATM   12  C   UNL     1      41.535 -16.145  -0.019  1.00  0.00     0.061 A 
HETATM   13  C   UNL     1      40.819 -15.256  -0.786  1.00  0.00     0.065 A 
HETATM   14  C   UNL     1      39.808 -14.457  -0.261  1.00  0.00     0.063 A 
HETATM   15  N   UNL     1      40.925 -14.977  -2.144  1.00  0.00    -0.306 N 
HETATM   16  N   UNL     1      39.289 -13.687  -1.296  1.00  0.00    -0.307 N 
HETATM   17  C   UNL     1      39.461 -14.505   1.065  1.00  0.00     0.034 A 
HETATM   18  C   UNL     1      39.975 -14.003  -2.479  1.00  0.00     0.325 A 
HETATM   19  H   UNL     1      38.545 -13.012  -1.245  1.00  0.00     0.170 HD
HETATM   20  O   UNL     1      39.778 -13.524  -3.582  1.00  0.00    -0.247 OA
HETATM   21  C   UNL     1      40.172 -15.407   1.868  1.00  0.00     0.032 A 
HETATM   22  H   UNL     1      41.566 -15.399  -2.797  1.00  0.00     0.170 HD
ENDBRANCH   8  11
ENDBRANCH   3   7
BRANCH   4  23
HETATM   23  S   UNL     1      42.252 -17.027   6.053  1.00  0.00    -0.120 SA
BRANCH  23  24
HETATM   24  C   UNL     1      43.542 -16.479   7.218  1.00  0.00     0.182 C 
BRANCH  24  25
HETATM   25  C   UNL     1      44.017 -15.070   6.911  1.00  0.00     0.227 C 
HETATM   26  N   UNL     1      44.300 -14.279   7.998  1.00  0.00    -0.354 N 
HETATM   27  H   UNL     1      44.369 -14.699   8.927  1.00  0.00     0.162 HD
HETATM   28  O   UNL     1      44.049 -14.642   5.757  1.00  0.00    -0.273 OA
BRANCH  26  29
HETATM   29  C   UNL     1      44.789 -12.933   7.821  1.00  0.00     0.187 C 
BRANCH  29  30
HETATM   30  C   UNL     1      44.768 -12.186   9.104  1.00  0.00     0.070 A 
HETATM   31  O   UNL     1      45.311 -10.933   9.112  1.00  0.00    -0.325 OA
HETATM   32  C   UNL     1      45.158 -10.437  10.366  1.00  0.00     0.142 A 
HETATM   33  C   UNL     1      44.513 -11.349  11.168  1.00  0.00     0.027 A 
HETATM   34  C   UNL     1      44.260 -12.480  10.355  1.00  0.00     0.036 A 
ENDBRANCH  29  30
ENDBRANCH  26  29
ENDBRANCH  24  25
ENDBRANCH  23  24
ENDBRANCH   4  23
TORSDOF 7
ENDMDL
MODEL 10
REMARK VINA RESULT:      -7.3      2.295      5.310
REMARK  7 active torsions:
REMARK  status: ('A' for Active; 'I' for Inactive)
REMARK    1  A    between atoms: C_3  and  C_4 
REMARK       I    between atoms: C_4  and  N_5 
REMARK    2  A    between atoms: N_5  and  C_6 
REMARK    3  A    between atoms: C_17  and  S_18 
REMARK    4  A    between atoms: S_18  and  C_19 
REMARK    5  A    between atoms: C_19  and  C_20 
REMARK       I    between atoms: C_20  and  N_21 
REMARK    6  A    between atoms: N_21  and  C_22 
REMARK    7  A    between atoms: C_22  and  C_23 
ROOT
HETATM    1  C   UNL     1      44.675 -14.037   6.365  1.00  0.00     0.001 A 
HETATM    2  C   UNL     1      43.871 -13.789   5.255  1.00  0.00     0.018 A 
HETATM    3  C   UNL     1      42.741 -14.588   5.008  1.00  0.00     0.049 A 
HETATM    4  C   UNL     1      42.412 -15.647   5.876  1.00  0.00     0.016 A 
HETATM    5  C   UNL     1      43.244 -15.889   6.980  1.00  0.00     0.019 A 
HETATM    6  C   UNL     1      44.362 -15.086   7.226  1.00  0.00     0.001 A 
ENDROOT
BRANCH   3   7
HETATM    7  C   UNL     1      41.929 -14.290   3.802  1.00  0.00     0.257 C 
HETATM    8  N   UNL     1      42.527 -14.666   2.611  1.00  0.00    -0.323 N 
HETATM    9  H   UNL     1      43.443 -15.093   2.670  1.00  0.00     0.169 HD
HETATM   10  O   UNL     1      40.859 -13.712   3.938  1.00  0.00    -0.267 OA
BRANCH   8  11
HETATM   11  C   UNL     1      42.039 -14.426   1.307  1.00  0.00     0.037 A 
HETATM   12  C   UNL     1      41.694 -15.447   0.413  1.00  0.00     0.061 A 
HETATM   13  C   UNL     1      41.200 -15.067  -0.812  1.00  0.00     0.065 A 
HETATM   14  C   UNL     1      41.047 -13.734  -1.179  1.00  0.00     0.063 A 
HETATM   15  N   UNL     1      40.768 -15.856  -1.873  1.00  0.00    -0.306 N 
HETATM   16  N   UNL     1      40.521 -13.700  -2.465  1.00  0.00    -0.307 N 
HETATM   17  C   UNL     1      41.386 -12.706  -0.336  1.00  0.00     0.034 A 
HETATM   18  C   UNL     1      40.339 -15.019  -2.912  1.00  0.00     0.325 A 
HETATM   19  H   UNL     1      40.291 -12.889  -3.014  1.00  0.00     0.170 HD
HETATM   20  O   UNL     1      39.891 -15.364  -3.990  1.00  0.00    -0.247 OA
HETATM   21  C   UNL     1      41.889 -13.067   0.922  1.00  0.00     0.032 A 
HETATM   22  H   UNL     1      40.753 -16.863  -1.907  1.00  0.00     0.170 HD
ENDBRANCH   8  11
ENDBRANCH   3   7
BRANCH   4  23
HETATM   23  S   UNL     1      41.011 -16.748   5.677  1.00  0.00    -0.120 SA
BRANCH  23  24
HETATM   24  C   UNL     1      41.379 -17.463   4.041  1.00  0.00     0.182 C 
BRANCH  24  25
HETATM   25  C   UNL     1      42.818 -17.940   3.946  1.00  0.00     0.227 C 
HETATM   26  N   UNL     1      43.201 -18.885   4.868  1.00  0.00    -0.354 N 
HETATM   27  H   UNL     1      42.494 -19.358   5.433  1.00  0.00     0.162 HD
HETATM   28  O   UNL     1      43.609 -17.434   3.151  1.00  0.00    -0.273 OA
BRANCH  26  29
HETATM   29  C   UNL     1      44.536 -19.431   4.849  1.00  0.00     0.187 C 
BRANCH  29  30
HETATM   30  C   UNL     1      44.606 -20.637   3.985  1.00  0.00     0.070 A 
HETATM   31  O   UNL     1      44.662 -21.853   4.603  1.00  0.00    -0.325 OA
HETATM   32  C   UNL     1      44.691 -22.798   3.630  1.00  0.00     0.142 A 
HETATM   33  C   UNL     1      44.645 -22.210   2.388  1.00  0.00     0.027 A 
HETATM   34  C   UNL     1      44.589 -20.813   2.614  1.00  0.00     0.036 A 
ENDBRANCH  29  30
ENDBRANCH  26  29
ENDBRANCH  24  25
ENDBRANCH  23  24
ENDBRANCH   4  23
TORSDOF 7
ENDMDL
