MODEL 1
REMARK VINA RESULT:      -7.9      0.000      0.000
REMARK  4 active torsions:
REMARK  status: ('A' for Active; 'I' for Inactive)
REMARK    1  A    between atoms: C_2  and  C_3 
REMARK    2  A    between atoms: C_3  and  C_4 
REMARK    3  A    between atoms: N_7  and  C_8 
REMARK    4  A    between atoms: C_13  and  C_14 
ROOT
HETATM    1  C   UNL     1      43.236 -16.869   5.914  1.00  0.00     0.017 A 
HETATM    2  C   UNL     1      41.869 -17.005   6.150  1.00  0.00     0.033 A 
HETATM    3  C   UNL     1      41.038 -15.895   6.066  1.00  0.00     0.099 A 
HETATM    4  N   UNL     1      41.529 -14.668   5.748  1.00  0.00    -0.318 N 
HETATM    5  C   UNL     1      42.864 -14.525   5.534  1.00  0.00     0.099 A 
HETATM    6  C   UNL     1      43.734 -15.612   5.596  1.00  0.00     0.033 A 
ENDROOT
BRANCH   1   7
HETATM    7  C   UNL     1      44.073 -18.098   5.934  1.00  0.00     0.192 C 
HETATM    8  O   UNL     1      44.720 -18.339   6.948  1.00  0.00    -0.287 OA
BRANCH   7   9
HETATM    9  C   UNL     1      44.124 -19.049   4.803  1.00  0.00     0.015 A 
HETATM   10  C   UNL     1      44.680 -20.314   5.025  1.00  0.00     0.017 A 
HETATM   11  C   UNL     1      44.751 -21.240   3.983  1.00  0.00     0.025 A 
HETATM   12  C   UNL     1      44.281 -20.892   2.717  1.00  0.00     0.034 A 
HETATM   13  C   UNL     1      43.751 -19.623   2.482  1.00  0.00     0.025 A 
HETATM   14 CL   UNL     1      44.361 -22.032   1.432  1.00  0.00    -0.084 Cl
HETATM   15  C   UNL     1      43.678 -18.694   3.524  1.00  0.00     0.017 A 
ENDBRANCH   7   9
ENDBRANCH   1   7
BRANCH   4  16
HETATM   16  C   UNL     1      40.647 -13.571   5.681  1.00  0.00     0.135 A 
HETATM   17  N   UNL     1      40.319 -12.865   6.815  1.00  0.00    -0.302 N 
HETATM   18  C   UNL     1      39.454 -11.813   6.652  1.00  0.00     0.290 A 
HETATM   19  H   UNL     1      40.702 -13.017   7.738  1.00  0.00     0.171 HD
HETATM   20  O   UNL     1      39.067 -11.064   7.526  1.00  0.00    -0.260 OA
HETATM   21  S   UNL     1      39.010 -11.727   4.954  1.00  0.00    -0.022 SA
HETATM   22  C   UNL     1      40.015 -13.098   4.591  1.00  0.00     0.092 A 
BRANCH  22  23
HETATM   23  C   UNL     1      39.984 -13.638   3.224  1.00  0.00     0.281 C 
HETATM   24  O   UNL     1      39.504 -14.738   2.982  1.00  0.00    -0.301 OA
ENDBRANCH  22  23
ENDBRANCH   4  16
TORSDOF 4
ENDMDL
MODEL 2
REMARK VINA RESULT:      -7.8      3.778      5.018
REMARK  4 active torsions:
REMARK  status: ('A' for Active; 'I' for Inactive)
REMARK    1  A    between atoms: C_2  and  C_3 
REMARK    2  A    between atoms: C_3  and  C_4 
REMARK    3  A    between atoms: N_7  and  C_8 
REMARK    4  A    between atoms: C_13  and  C_14 
ROOT
HETATM    1  C   UNL     1      42.371 -16.516   3.548  1.00  0.00     0.017 A 
HETATM    2  C   UNL     1      41.277 -17.130   2.940  1.00  0.00     0.033 A 
HETATM    3  C   UNL     1      40.813 -16.663   1.717  1.00  0.00     0.099 A 
HETATM    4  N   UNL     1      41.408 -15.615   1.089  1.00  0.00    -0.318 N 
HETATM    5  C   UNL     1      42.464 -15.000   1.685  1.00  0.00     0.099 A 
HETATM    6  C   UNL     1      42.972 -15.441   2.905  1.00  0.00     0.033 A 
ENDROOT
BRANCH   1   7
HETATM    7  C   UNL     1      42.884 -17.102   4.815  1.00  0.00     0.192 C 
HETATM    8  O   UNL     1      42.761 -16.447   5.845  1.00  0.00    -0.287 OA
BRANCH   7   9
HETATM    9  C   UNL     1      43.498 -18.445   4.884  1.00  0.00     0.015 A 
HETATM   10  C   UNL     1      43.442 -19.138   6.098  1.00  0.00     0.017 A 
HETATM   11  C   UNL     1      44.013 -20.408   6.206  1.00  0.00     0.025 A 
HETATM   12  C   UNL     1      44.653 -20.973   5.104  1.00  0.00     0.034 A 
HETATM   13  C   UNL     1      44.736 -20.275   3.899  1.00  0.00     0.025 A 
HETATM   14 CL   UNL     1      45.352 -22.539   5.232  1.00  0.00    -0.084 Cl
HETATM   15  C   UNL     1      44.166 -19.004   3.787  1.00  0.00     0.017 A 
ENDBRANCH   7   9
ENDBRANCH   1   7
BRANCH   4  16
HETATM   16  C   UNL     1      40.896 -15.174  -0.148  1.00  0.00     0.135 A 
HETATM   17  N   UNL     1      41.502 -15.539  -1.327  1.00  0.00    -0.302 N 
HETATM   18  C   UNL     1      40.932 -15.062  -2.481  1.00  0.00     0.290 A 
HETATM   19  H   UNL     1      42.288 -16.168  -1.419  1.00  0.00     0.171 HD
HETATM   20  O   UNL     1      41.310 -15.292  -3.612  1.00  0.00    -0.260 OA
HETATM   21  S   UNL     1      39.551 -14.068  -2.040  1.00  0.00    -0.022 SA
HETATM   22  C   UNL     1      39.838 -14.369  -0.351  1.00  0.00     0.092 A 
BRANCH  22  23
HETATM   23  C   UNL     1      39.003 -13.659   0.630  1.00  0.00     0.281 C 
HETATM   24  O   UNL     1      38.119 -14.234   1.252  1.00  0.00    -0.301 OA
ENDBRANCH  22  23
ENDBRANCH   4  16
TORSDOF 4
ENDMDL
MODEL 3
REMARK VINA RESULT:      -7.5      2.294      2.676
REMARK  4 active torsions:
REMARK  status: ('A' for Active; 'I' for Inactive)
REMARK    1  A    between atoms: C_2  and  C_3 
REMARK    2  A    between atoms: C_3  and  C_4 
REMARK    3  A    between atoms: N_7  and  C_8 
REMARK    4  A    between atoms: C_13  and  C_14 
ROOT
HETATM    1  C   UNL     1      42.739 -16.657   2.566  1.00  0.00     0.017 A 
HETATM    2  C   UNL     1      41.367 -16.813   2.754  1.00  0.00     0.033 A 
HETATM    3  C   UNL     1      40.605 -15.747   3.214  1.00  0.00     0.099 A 
HETATM    4  N   UNL     1      41.168 -14.540   3.483  1.00  0.00    -0.318 N 
HETATM    5  C   UNL     1      42.509 -14.385   3.319  1.00  0.00     0.099 A 
HETATM    6  C   UNL     1      43.312 -15.423   2.848  1.00  0.00     0.033 A 
ENDROOT
BRANCH   1   7
HETATM    7  C   UNL     1      43.499 -17.799   1.994  1.00  0.00     0.192 C 
HETATM    8  O   UNL     1      43.785 -17.762   0.801  1.00  0.00    -0.287 OA
BRANCH   7   9
HETATM    9  C   UNL     1      43.950 -18.949   2.808  1.00  0.00     0.015 A 
HETATM   10  C   UNL     1      44.046 -20.201   2.189  1.00  0.00     0.017 A 
HETATM   11  C   UNL     1      44.464 -21.312   2.924  1.00  0.00     0.025 A 
HETATM   12  C   UNL     1      44.767 -21.172   4.277  1.00  0.00     0.034 A 
HETATM   13  C   UNL     1      44.646 -19.932   4.905  1.00  0.00     0.025 A 
HETATM   14 CL   UNL     1      45.287 -22.538   5.183  1.00  0.00    -0.084 Cl
HETATM   15  C   UNL     1      44.228 -18.817   4.173  1.00  0.00     0.017 A 
ENDBRANCH   7   9
ENDBRANCH   1   7
BRANCH   4  16
HETATM   16  C   UNL     1      40.354 -13.491   3.954  1.00  0.00     0.135 A 
HETATM   17  N   UNL     1      40.120 -13.335   5.300  1.00  0.00    -0.302 N 
HETATM   18  C   UNL     1      39.316 -12.285   5.664  1.00  0.00     0.290 A 
HETATM   19  H   UNL     1      40.533 -13.887   6.040  1.00  0.00     0.171 HD
HETATM   20  O   UNL     1      39.015 -11.977   6.800  1.00  0.00    -0.260 OA
HETATM   21  S   UNL     1      38.806 -11.453   4.203  1.00  0.00    -0.022 SA
HETATM   22  C   UNL     1      39.707 -12.568   3.219  1.00  0.00     0.092 A 
BRANCH  22  23
HETATM   23  C   UNL     1      39.584 -12.458   1.758  1.00  0.00     0.281 C 
HETATM   24  O   UNL     1      38.909 -13.250   1.113  1.00  0.00    -0.301 OA
ENDBRANCH  22  23
ENDBRANCH   4  16
TORSDOF 4
ENDMDL
MODEL 4
REMARK VINA RESULT:      -7.2      1.525      2.782
REMARK  4 active torsions:
REMARK  status: ('A' for Active; 'I' for Inactive)
REMARK    1  A    between atoms: C_2  and  C_3 
REMARK    2  A    between atoms: C_3  and  C_4 
REMARK    3  A    between atoms: N_7  and  C_8 
REMARK    4  A    between atoms: C_13  and  C_14 
ROOT
HETATM    1  C   UNL     1      42.726 -16.201   4.973  1.00  0.00     0.017 A 
HETATM    2  C   UNL     1      43.148 -15.039   4.330  1.00  0.00     0.033 A 
HETATM    3  C   UNL     1      42.239 -14.021   4.073  1.00  0.00     0.099 A 
HETATM    4  N   UNL     1      40.936 -14.128   4.442  1.00  0.00    -0.318 N 
HETATM    5  C   UNL     1      40.513 -15.267   5.053  1.00  0.00     0.099 A 
HETATM    6  C   UNL     1      41.392 -16.309   5.343  1.00  0.00     0.033 A 
ENDROOT
BRANCH   1   7
HETATM    7  C   UNL     1      43.751 -17.228   5.302  1.00  0.00     0.192 C 
HETATM    8  O   UNL     1      44.403 -17.083   6.331  1.00  0.00    -0.287 OA
BRANCH   7   9
HETATM    9  C   UNL     1      43.985 -18.422   4.461  1.00  0.00     0.015 A 
HETATM   10  C   UNL     1      43.445 -18.440   3.170  1.00  0.00     0.017 A 
HETATM   11  C   UNL     1      43.640 -19.549   2.346  1.00  0.00     0.025 A 
HETATM   12  C   UNL     1      44.361 -20.645   2.821  1.00  0.00     0.034 A 
HETATM   13  C   UNL     1      44.878 -20.644   4.117  1.00  0.00     0.025 A 
HETATM   14 CL   UNL     1      44.608 -22.011   1.807  1.00  0.00    -0.084 Cl
HETATM   15  C   UNL     1      44.685 -19.534   4.945  1.00  0.00     0.017 A 
ENDBRANCH   7   9
ENDBRANCH   1   7
BRANCH   4  16
HETATM   16  C   UNL     1      40.050 -13.071   4.153  1.00  0.00     0.135 A 
HETATM   17  N   UNL     1      39.569 -12.889   2.878  1.00  0.00    -0.302 N 
HETATM   18  C   UNL     1      38.711 -11.834   2.692  1.00  0.00     0.290 A 
HETATM   19  H   UNL     1      39.744 -13.493   2.087  1.00  0.00     0.171 HD
HETATM   20  O   UNL     1      38.171 -11.528   1.649  1.00  0.00    -0.260 OA
HETATM   21  S   UNL     1      38.520 -11.005   4.230  1.00  0.00    -0.022 SA
HETATM   22  C   UNL     1      39.595 -12.133   5.003  1.00  0.00     0.092 A 
BRANCH  22  23
HETATM   23  C   UNL     1      39.963 -11.888   6.406  1.00  0.00     0.281 C 
HETATM   24  O   UNL     1      39.197 -11.325   7.178  1.00  0.00    -0.301 OA
ENDBRANCH  22  23
ENDBRANCH   4  16
TORSDOF 4
ENDMDL
MODEL 5
REMARK VINA RESULT:      -7.2      2.414      3.164
REMARK  4 active torsions:
REMARK  status: ('A' for Active; 'I' for Inactive)
REMARK    1  A    between atoms: C_2  and  C_3 
REMARK    2  A    between atoms: C_3  and  C_4 
REMARK    3  A    between atoms: N_7  and  C_8 
REMARK    4  A    between atoms: C_13  and  C_14 
ROOT
HETATM    1  C   UNL     1      42.685 -16.886   2.587  1.00  0.00     0.017 A 
HETATM    2  C   UNL     1      43.281 -15.628   2.521  1.00  0.00     0.033 A 
HETATM    3  C   UNL     1      42.706 -14.554   3.189  1.00  0.00     0.099 A 
HETATM    4  N   UNL     1      41.569 -14.702   3.918  1.00  0.00    -0.318 N 
HETATM    5  C   UNL     1      40.972 -15.923   3.972  1.00  0.00     0.099 A 
HETATM    6  C   UNL     1      41.519 -17.032   3.329  1.00  0.00     0.033 A 
ENDROOT
BRANCH   1   7
HETATM    7  C   UNL     1      43.380 -18.023   1.926  1.00  0.00     0.192 C 
HETATM    8  O   UNL     1      43.597 -17.944   0.722  1.00  0.00    -0.287 OA
BRANCH   7   9
HETATM    9  C   UNL     1      43.846 -19.215   2.667  1.00  0.00     0.015 A 
HETATM   10  C   UNL     1      44.289 -19.046   3.984  1.00  0.00     0.017 A 
HETATM   11  C   UNL     1      44.741 -20.145   4.716  1.00  0.00     0.025 A 
HETATM   12  C   UNL     1      44.763 -21.408   4.124  1.00  0.00     0.034 A 
HETATM   13  C   UNL     1      44.349 -21.577   2.803  1.00  0.00     0.025 A 
HETATM   14 CL   UNL     1      45.314 -22.765   5.025  1.00  0.00    -0.084 Cl
HETATM   15  C   UNL     1      43.896 -20.479   2.066  1.00  0.00     0.017 A 
ENDBRANCH   7   9
ENDBRANCH   1   7
BRANCH   4  16
HETATM   16  C   UNL     1      41.021 -13.581   4.572  1.00  0.00     0.135 A 
HETATM   17  N   UNL     1      39.812 -13.059   4.174  1.00  0.00    -0.302 N 
HETATM   18  C   UNL     1      39.358 -11.968   4.870  1.00  0.00     0.290 A 
HETATM   19  H   UNL     1      39.209 -13.442   3.459  1.00  0.00     0.171 HD
HETATM   20  O   UNL     1      38.309 -11.386   4.680  1.00  0.00    -0.260 OA
HETATM   21  S   UNL     1      40.551 -11.563   6.096  1.00  0.00    -0.022 SA
HETATM   22  C   UNL     1      41.562 -12.884   5.588  1.00  0.00     0.092 A 
BRANCH  22  23
HETATM   23  C   UNL     1      42.885 -13.024   6.214  1.00  0.00     0.281 C 
HETATM   24  O   UNL     1      43.323 -14.119   6.543  1.00  0.00    -0.301 OA
ENDBRANCH  22  23
ENDBRANCH   4  16
TORSDOF 4
ENDMDL
MODEL 6
REMARK VINA RESULT:      -7.1      2.464      2.998
REMARK  4 active torsions:
REMARK  status: ('A' for Active; 'I' for Inactive)
REMARK    1  A    between atoms: C_2  and  C_3 
REMARK    2  A    between atoms: C_3  and  C_4 
REMARK    3  A    between atoms: N_7  and  C_8 
REMARK    4  A    between atoms: C_13  and  C_14 
ROOT
HETATM    1  C   UNL     1      42.660 -15.792   2.965  1.00  0.00     0.017 A 
HETATM    2  C   UNL     1      43.593 -14.764   3.087  1.00  0.00     0.033 A 
HETATM    3  C   UNL     1      43.287 -13.637   3.839  1.00  0.00     0.099 A 
HETATM    4  N   UNL     1      42.091 -13.512   4.471  1.00  0.00    -0.318 N 
HETATM    5  C   UNL     1      41.168 -14.504   4.342  1.00  0.00     0.099 A 
HETATM    6  C   UNL     1      41.436 -15.658   3.608  1.00  0.00     0.033 A 
ENDROOT
BRANCH   1   7
HETATM    7  C   UNL     1      43.063 -17.015   2.221  1.00  0.00     0.192 C 
HETATM    8  O   UNL     1      42.981 -16.998   0.997  1.00  0.00    -0.287 OA
BRANCH   7   9
HETATM    9  C   UNL     1      43.586 -18.224   2.892  1.00  0.00     0.015 A 
HETATM   10  C   UNL     1      43.845 -18.159   4.265  1.00  0.00     0.017 A 
HETATM   11  C   UNL     1      44.343 -19.278   4.936  1.00  0.00     0.025 A 
HETATM   12  C   UNL     1      44.596 -20.453   4.228  1.00  0.00     0.034 A 
HETATM   13  C   UNL     1      44.366 -20.514   2.853  1.00  0.00     0.025 A 
HETATM   14 CL   UNL     1      45.204 -21.834   5.052  1.00  0.00    -0.084 Cl
HETATM   15  C   UNL     1      43.867 -19.396   2.178  1.00  0.00     0.017 A 
ENDBRANCH   7   9
ENDBRANCH   1   7
BRANCH   4  16
HETATM   16  C   UNL     1      41.824 -12.347   5.217  1.00  0.00     0.135 A 
HETATM   17  N   UNL     1      42.064 -12.311   6.571  1.00  0.00    -0.302 N 
HETATM   18  C   UNL     1      41.775 -11.134   7.212  1.00  0.00     0.290 A 
HETATM   19  H   UNL     1      42.485 -13.051   7.117  1.00  0.00     0.171 HD
HETATM   20  O   UNL     1      41.939 -10.906   8.394  1.00  0.00    -0.260 OA
HETATM   21  S   UNL     1      41.137 -10.005   6.026  1.00  0.00    -0.022 SA
HETATM   22  C   UNL     1      41.309 -11.190   4.764  1.00  0.00     0.092 A 
BRANCH  22  23
HETATM   23  C   UNL     1      40.796 -10.857   3.427  1.00  0.00     0.281 C 
HETATM   24  O   UNL     1      39.780 -11.378   2.985  1.00  0.00    -0.301 OA
ENDBRANCH  22  23
ENDBRANCH   4  16
TORSDOF 4
ENDMDL
MODEL 7
REMARK VINA RESULT:      -7.0      2.502      3.610
REMARK  4 active torsions:
REMARK  status: ('A' for Active; 'I' for Inactive)
REMARK    1  A    between atoms: C_2  and  C_3 
REMARK    2  A    between atoms: C_3  and  C_4 
REMARK    3  A    between atoms: N_7  and  C_8 
REMARK    4  A    between atoms: C_13  and  C_14 
ROOT
HETATM    1  C   UNL     1      40.838 -15.019   3.744  1.00  0.00     0.017 A 
HETATM    2  C   UNL     1      41.784 -14.033   3.466  1.00  0.00     0.033 A 
HETATM    3  C   UNL     1      41.923 -12.947   4.320  1.00  0.00     0.099 A 
HETATM    4  N   UNL     1      41.158 -12.822   5.436  1.00  0.00    -0.318 N 
HETATM    5  C   UNL     1      40.220 -13.771   5.704  1.00  0.00     0.099 A 
HETATM    6  C   UNL     1      40.053 -14.884   4.882  1.00  0.00     0.033 A 
ENDROOT
BRANCH   1   7
HETATM    7  C   UNL     1      40.782 -16.204   2.848  1.00  0.00     0.192 C 
HETATM    8  O   UNL     1      39.864 -16.270   2.036  1.00  0.00    -0.287 OA
BRANCH   7   9
HETATM    9  C   UNL     1      41.800 -17.276   2.874  1.00  0.00     0.015 A 
HETATM   10  C   UNL     1      42.287 -17.696   4.117  1.00  0.00     0.017 A 
HETATM   11  C   UNL     1      43.251 -18.703   4.186  1.00  0.00     0.025 A 
HETATM   12  C   UNL     1      43.738 -19.275   3.011  1.00  0.00     0.034 A 
HETATM   13  C   UNL     1      43.277 -18.841   1.768  1.00  0.00     0.025 A 
HETATM   14 CL   UNL     1      44.922 -20.519   3.093  1.00  0.00    -0.084 Cl
HETATM   15  C   UNL     1      42.311 -17.833   1.695  1.00  0.00     0.017 A 
ENDBRANCH   7   9
ENDBRANCH   1   7
BRANCH   4  16
HETATM   16  C   UNL     1      41.332 -11.699   6.268  1.00  0.00     0.135 A 
HETATM   17  N   UNL     1      42.203 -11.743   7.332  1.00  0.00    -0.302 N 
HETATM   18  C   UNL     1      42.307 -10.601   8.085  1.00  0.00     0.290 A 
HETATM   19  H   UNL     1      42.808 -12.517   7.569  1.00  0.00     0.171 HD
HETATM   20  O   UNL     1      43.034 -10.443   9.044  1.00  0.00    -0.260 OA
HETATM   21  S   UNL     1      41.214  -9.400   7.414  1.00  0.00    -0.022 SA
HETATM   22  C   UNL     1      40.705 -10.512   6.178  1.00  0.00     0.092 A 
BRANCH  22  23
HETATM   23  C   UNL     1      39.617 -10.098   5.279  1.00  0.00     0.281 C 
HETATM   24  O   UNL     1      38.521 -10.643   5.308  1.00  0.00    -0.301 OA
ENDBRANCH  22  23
ENDBRANCH   4  16
TORSDOF 4
ENDMDL
MODEL 8
REMARK VINA RESULT:      -6.9      4.112      5.756
REMARK  4 active torsions:
REMARK  status: ('A' for Active; 'I' for Inactive)
REMARK    1  A    between atoms: C_2  and  C_3 
REMARK    2  A    between atoms: C_3  and  C_4 
REMARK    3  A    between atoms: N_7  and  C_8 
REMARK    4  A    between atoms: C_13  and  C_14 
ROOT
HETATM    1  C   UNL     1      43.203 -18.512   2.128  1.00  0.00     0.017 A 
HETATM    2  C   UNL     1      43.909 -17.499   1.482  1.00  0.00     0.033 A 
HETATM    3  C   UNL     1      43.235 -16.593   0.673  1.00  0.00     0.099 A 
HETATM    4  N   UNL     1      41.889 -16.665   0.499  1.00  0.00    -0.318 N 
HETATM    5  C   UNL     1      41.196 -17.662   1.113  1.00  0.00     0.099 A 
HETATM    6  C   UNL     1      41.828 -18.586   1.943  1.00  0.00     0.033 A 
ENDROOT
BRANCH   1   7
HETATM    7  C   UNL     1      43.953 -19.407   3.049  1.00  0.00     0.192 C 
HETATM    8  O   UNL     1      44.549 -20.363   2.565  1.00  0.00    -0.287 OA
BRANCH   7   9
HETATM    9  C   UNL     1      44.034 -19.168   4.506  1.00  0.00     0.015 A 
HETATM   10  C   UNL     1      44.053 -20.278   5.359  1.00  0.00     0.017 A 
HETATM   11  C   UNL     1      44.125 -20.096   6.741  1.00  0.00     0.025 A 
HETATM   12  C   UNL     1      44.162 -18.805   7.267  1.00  0.00     0.034 A 
HETATM   13  C   UNL     1      44.116 -17.695   6.423  1.00  0.00     0.025 A 
HETATM   14 CL   UNL     1      44.257 -18.577   8.969  1.00  0.00    -0.084 Cl
HETATM   15  C   UNL     1      44.043 -17.873   5.038  1.00  0.00     0.017 A 
ENDBRANCH   7   9
ENDBRANCH   1   7
BRANCH   4  16
HETATM   16  C   UNL     1      41.252 -15.727  -0.337  1.00  0.00     0.135 A 
HETATM   17  N   UNL     1      41.380 -15.805  -1.704  1.00  0.00    -0.302 N 
HETATM   18  C   UNL     1      40.723 -14.848  -2.436  1.00  0.00     0.290 A 
HETATM   19  H   UNL     1      41.863 -16.533  -2.212  1.00  0.00     0.171 HD
HETATM   20  O   UNL     1      40.701 -14.766  -3.647  1.00  0.00    -0.260 OA
HETATM   21  S   UNL     1      39.908 -13.766  -1.317  1.00  0.00    -0.022 SA
HETATM   22  C   UNL     1      40.503 -14.675   0.041  1.00  0.00     0.092 A 
BRANCH  22  23
HETATM   23  C   UNL     1      40.230 -14.161   1.392  1.00  0.00     0.281 C 
HETATM   24  O   UNL     1      40.392 -12.979   1.670  1.00  0.00    -0.301 OA
ENDBRANCH  22  23
ENDBRANCH   4  16
TORSDOF 4
ENDMDL
MODEL 9
REMARK VINA RESULT:      -6.8      4.277      5.332
REMARK  4 active torsions:
REMARK  status: ('A' for Active; 'I' for Inactive)
REMARK    1  A    between atoms: C_2  and  C_3 
REMARK    2  A    between atoms: C_3  and  C_4 
REMARK    3  A    between atoms: N_7  and  C_8 
REMARK    4  A    between atoms: C_13  and  C_14 
ROOT
HETATM    1  C   UNL     1      42.907 -17.925   1.994  1.00  0.00     0.017 A 
HETATM    2  C   UNL     1      43.499 -16.738   1.569  1.00  0.00     0.033 A 
HETATM    3  C   UNL     1      42.740 -15.785   0.902  1.00  0.00     0.099 A 
HETATM    4  N   UNL     1      41.418 -15.981   0.656  1.00  0.00    -0.318 N 
HETATM    5  C   UNL     1      40.837 -17.145   1.053  1.00  0.00     0.099 A 
HETATM    6  C   UNL     1      41.556 -18.124   1.736  1.00  0.00     0.033 A 
ENDROOT
BRANCH   1   7
HETATM    7  C   UNL     1      43.738 -18.878   2.777  1.00  0.00     0.192 C 
HETATM    8  O   UNL     1      44.347 -19.750   2.165  1.00  0.00    -0.287 OA
BRANCH   7   9
HETATM    9  C   UNL     1      43.884 -18.792   4.246  1.00  0.00     0.015 A 
HETATM   10  C   UNL     1      44.141 -19.971   4.956  1.00  0.00     0.017 A 
HETATM   11  C   UNL     1      44.282 -19.933   6.344  1.00  0.00     0.025 A 
HETATM   12  C   UNL     1      44.150 -18.721   7.020  1.00  0.00     0.034 A 
HETATM   13  C   UNL     1      43.866 -17.548   6.320  1.00  0.00     0.025 A 
HETATM   14 CL   UNL     1      44.329 -18.670   8.729  1.00  0.00    -0.084 Cl
HETATM   15  C   UNL     1      43.724 -17.581   4.930  1.00  0.00     0.017 A 
ENDBRANCH   7   9
ENDBRANCH   1   7
BRANCH   4  16
HETATM   16  C   UNL     1      40.691 -14.987  -0.030  1.00  0.00     0.135 A 
HETATM   17  N   UNL     1      40.001 -14.020   0.663  1.00  0.00    -0.302 N 
HETATM   18  C   UNL     1      39.323 -13.095  -0.090  1.00  0.00     0.290 A 
HETATM   19  H   UNL     1      39.998 -13.899   1.666  1.00  0.00     0.171 HD
HETATM   20  O   UNL     1      38.679 -12.159   0.339  1.00  0.00    -0.260 OA
HETATM   21  S   UNL     1      39.558 -13.490  -1.786  1.00  0.00    -0.022 SA
HETATM   22  C   UNL     1      40.546 -14.856  -1.361  1.00  0.00     0.092 A 
BRANCH  22  23
HETATM   23  C   UNL     1      41.003 -15.744  -2.441  1.00  0.00     0.281 C 
HETATM   24  O   UNL     1      41.473 -15.296  -3.479  1.00  0.00    -0.301 OA
ENDBRANCH  22  23
ENDBRANCH   4  16
TORSDOF 4
ENDMDL
MODEL 10
REMARK VINA RESULT:      -6.7      5.147      8.379
REMARK  4 active torsions:
REMARK  status: ('A' for Active; 'I' for Inactive)
REMARK    1  A    between atoms: C_2  and  C_3 
REMARK    2  A    between atoms: C_3  and  C_4 
REMARK    3  A    between atoms: N_7  and  C_8 
REMARK    4  A    between atoms: C_13  and  C_14 
ROOT
HETATM    1  C   UNL     1      41.873 -15.822   1.407  1.00  0.00     0.017 A 
HETATM    2  C   UNL     1      41.218 -17.050   1.338  1.00  0.00     0.033 A 
HETATM    3  C   UNL     1      41.839 -18.194   1.821  1.00  0.00     0.099 A 
HETATM    4  N   UNL     1      43.080 -18.145   2.372  1.00  0.00    -0.318 N 
HETATM    5  C   UNL     1      43.733 -16.953   2.427  1.00  0.00     0.099 A 
HETATM    6  C   UNL     1      43.144 -15.777   1.966  1.00  0.00     0.033 A 
ENDROOT
BRANCH   1   7
HETATM    7  C   UNL     1      41.136 -14.612   0.955  1.00  0.00     0.192 C 
HETATM    8  O   UNL     1      40.210 -14.206   1.650  1.00  0.00    -0.287 OA
BRANCH   7   9
HETATM    9  C   UNL     1      41.498 -13.867  -0.271  1.00  0.00     0.015 A 
HETATM   10  C   UNL     1      41.284 -14.484  -1.508  1.00  0.00     0.017 A 
HETATM   11  C   UNL     1      41.616 -13.817  -2.689  1.00  0.00     0.025 A 
HETATM   12  C   UNL     1      42.175 -12.541  -2.628  1.00  0.00     0.034 A 
HETATM   13  C   UNL     1      42.416 -11.932  -1.396  1.00  0.00     0.025 A 
HETATM   14 CL   UNL     1      42.579 -11.714  -4.080  1.00  0.00    -0.084 Cl
HETATM   15  C   UNL     1      42.085 -12.597  -0.211  1.00  0.00     0.017 A 
ENDBRANCH   7   9
ENDBRANCH   1   7
BRANCH   4  16
HETATM   16  C   UNL     1      43.671 -19.335   2.842  1.00  0.00     0.135 A 
HETATM   17  N   UNL     1      43.855 -20.407   2.000  1.00  0.00    -0.302 N 
HETATM   18  C   UNL     1      44.439 -21.521   2.547  1.00  0.00     0.290 A 
HETATM   19  H   UNL     1      43.652 -20.423   1.010  1.00  0.00     0.171 HD
HETATM   20  O   UNL     1      44.700 -22.551   1.959  1.00  0.00    -0.260 OA
HETATM   21  S   UNL     1      44.756 -21.197   4.244  1.00  0.00    -0.022 SA
HETATM   22  C   UNL     1      44.089 -19.598   4.093  1.00  0.00     0.092 A 
BRANCH  22  23
HETATM   23  C   UNL     1      43.957 -18.785   5.312  1.00  0.00     0.281 C 
HETATM   24  O   UNL     1      44.793 -17.942   5.611  1.00  0.00    -0.301 OA
ENDBRANCH  22  23
ENDBRANCH   4  16
TORSDOF 4
ENDMDL
