MODEL 1
REMARK VINA RESULT:      -7.9      0.000      0.000
REMARK  5 active torsions:
REMARK  status: ('A' for Active; 'I' for Inactive)
REMARK    1  A    between atoms: C_2  and  O_3 
REMARK    2  A    between atoms: O_3  and  C_4 
REMARK    3  A    between atoms: C_5  and  C_6 
REMARK       I    between atoms: C_6  and  N_7 
REMARK    4  A    between atoms: N_7  and  N_8 
REMARK    5  A    between atoms: C_9  and  C_10 
ROOT
HETATM    1  C   UNL     1      39.498 -15.137   1.803  1.00  0.00     0.274 C 
HETATM    2  N   UNL     1      40.061 -16.319   1.347  1.00  0.00    -0.243 N 
HETATM    3  O   UNL     1      39.491 -14.762   2.973  1.00  0.00    -0.266 OA
HETATM    4  H   UNL     1      40.020 -16.545   0.357  1.00  0.00     0.192 HD
ENDROOT
BRANCH   2   5
HETATM    5  N   UNL     1      40.813 -17.074   2.200  1.00  0.00    -0.183 NA
HETATM    6  C   UNL     1      42.040 -17.281   1.850  1.00  0.00     0.152 C 
BRANCH   6   7
HETATM    7  C   UNL     1      42.912 -18.016   2.745  1.00  0.00     0.011 A 
HETATM    8  C   UNL     1      43.357 -19.372   2.624  1.00  0.00     0.004 A 
HETATM    9  C   UNL     1      44.217 -19.626   3.694  1.00  0.00     0.043 A 
HETATM   10  C   UNL     1      43.126 -20.407   1.692  1.00  0.00     0.014 A 
HETATM   11  C   UNL     1      44.859 -20.858   3.879  1.00  0.00     0.030 A 
HETATM   12  N   UNL     1      44.281 -18.477   4.446  1.00  0.00    -0.364 N 
HETATM   13  C   UNL     1      44.614 -21.863   2.940  1.00  0.00     0.002 A 
HETATM   14  C   UNL     1      43.760 -21.645   1.863  1.00  0.00     0.001 A 
HETATM   15  H   UNL     1      44.836 -18.367   5.284  1.00  0.00     0.165 HD
HETATM   16  C   UNL     1      43.506 -17.503   3.884  1.00  0.00     0.102 A 
ENDBRANCH   6   7
ENDBRANCH   2   5
BRANCH   1  17
HETATM   17  C   UNL     1      38.957 -14.230   0.750  1.00  0.00     0.067 A 
HETATM   18  C   UNL     1      39.606 -13.959  -0.464  1.00  0.00     0.084 A 
HETATM   19  C   UNL     1      39.048 -13.024  -1.348  1.00  0.00     0.038 A 
HETATM   20  C   UNL     1      37.832 -12.402  -1.050  1.00  0.00     0.003 A 
HETATM   21  C   UNL     1      37.166 -12.702   0.134  1.00  0.00     0.001 A 
HETATM   22  C   UNL     1      37.727 -13.612   1.030  1.00  0.00     0.020 A 
BRANCH  18  23
HETATM   23  O   UNL     1      40.795 -14.589  -0.737  1.00  0.00    -0.350 OA
BRANCH  23  24
HETATM   24  C   UNL     1      41.184 -14.526  -2.116  1.00  0.00     0.171 C 
HETATM   25  C   UNL     1      40.804 -15.836  -2.781  1.00  0.00     0.034 C 
ENDBRANCH  23  24
ENDBRANCH  18  23
ENDBRANCH   1  17
TORSDOF 5
ENDMDL
MODEL 2
REMARK VINA RESULT:      -7.9      2.155      2.614
REMARK  5 active torsions:
REMARK  status: ('A' for Active; 'I' for Inactive)
REMARK    1  A    between atoms: C_2  and  O_3 
REMARK    2  A    between atoms: O_3  and  C_4 
REMARK    3  A    between atoms: C_5  and  C_6 
REMARK       I    between atoms: C_6  and  N_7 
REMARK    4  A    between atoms: N_7  and  N_8 
REMARK    5  A    between atoms: C_9  and  C_10 
ROOT
HETATM    1  C   UNL     1      41.347 -15.163  -0.167  1.00  0.00     0.274 C 
HETATM    2  N   UNL     1      41.964 -16.394  -0.319  1.00  0.00    -0.243 N 
HETATM    3  O   UNL     1      40.832 -14.752   0.870  1.00  0.00    -0.266 OA
HETATM    4  H   UNL     1      42.365 -16.648  -1.217  1.00  0.00     0.192 HD
ENDROOT
BRANCH   2   5
HETATM    5  N   UNL     1      42.180 -17.174   0.781  1.00  0.00    -0.183 NA
HETATM    6  C   UNL     1      43.410 -17.309   1.154  1.00  0.00     0.152 C 
BRANCH   6   7
HETATM    7  C   UNL     1      43.702 -18.066   2.355  1.00  0.00     0.011 A 
HETATM    8  C   UNL     1      43.928 -19.476   2.474  1.00  0.00     0.004 A 
HETATM    9  C   UNL     1      44.216 -19.741   3.814  1.00  0.00     0.043 A 
HETATM   10  C   UNL     1      43.934 -20.555   1.564  1.00  0.00     0.014 A 
HETATM   11  C   UNL     1      44.512 -21.025   4.290  1.00  0.00     0.030 A 
HETATM   12  N   UNL     1      44.153 -18.544   4.488  1.00  0.00    -0.364 N 
HETATM   13  C   UNL     1      44.514 -22.073   3.367  1.00  0.00     0.002 A 
HETATM   14  C   UNL     1      44.228 -21.845   2.024  1.00  0.00     0.001 A 
HETATM   15  H   UNL     1      44.323 -18.430   5.478  1.00  0.00     0.165 HD
HETATM   16  C   UNL     1      43.850 -17.532   3.622  1.00  0.00     0.102 A 
ENDBRANCH   6   7
ENDBRANCH   2   5
BRANCH   1  17
HETATM   17  C   UNL     1      41.421 -14.253  -1.346  1.00  0.00     0.067 A 
HETATM   18  C   UNL     1      40.846 -14.535  -2.595  1.00  0.00     0.084 A 
HETATM   19  C   UNL     1      41.048 -13.648  -3.662  1.00  0.00     0.038 A 
HETATM   20  C   UNL     1      41.773 -12.467  -3.476  1.00  0.00     0.003 A 
HETATM   21  C   UNL     1      42.307 -12.165  -2.228  1.00  0.00     0.001 A 
HETATM   22  C   UNL     1      42.133 -13.055  -1.168  1.00  0.00     0.020 A 
BRANCH  18  23
HETATM   23  O   UNL     1      40.131 -15.698  -2.750  1.00  0.00    -0.350 OA
BRANCH  23  24
HETATM   24  C   UNL     1      39.361 -15.751  -3.958  1.00  0.00     0.171 C 
HETATM   25  C   UNL     1      37.912 -15.469  -3.615  1.00  0.00     0.034 C 
ENDBRANCH  23  24
ENDBRANCH  18  23
ENDBRANCH   1  17
TORSDOF 5
ENDMDL
MODEL 3
REMARK VINA RESULT:      -7.7      2.433      8.322
REMARK  5 active torsions:
REMARK  status: ('A' for Active; 'I' for Inactive)
REMARK    1  A    between atoms: C_2  and  O_3 
REMARK    2  A    between atoms: O_3  and  C_4 
REMARK    3  A    between atoms: C_5  and  C_6 
REMARK       I    between atoms: C_6  and  N_7 
REMARK    4  A    between atoms: N_7  and  N_8 
REMARK    5  A    between atoms: C_9  and  C_10 
ROOT
HETATM    1  C   UNL     1      42.953 -18.344   1.995  1.00  0.00     0.274 C 
HETATM    2  N   UNL     1      41.882 -17.832   2.709  1.00  0.00    -0.243 N 
HETATM    3  O   UNL     1      43.474 -17.810   1.019  1.00  0.00    -0.266 OA
HETATM    4  H   UNL     1      41.517 -18.345   3.506  1.00  0.00     0.192 HD
ENDROOT
BRANCH   2   5
HETATM    5  N   UNL     1      41.445 -16.566   2.442  1.00  0.00    -0.183 NA
HETATM    6  C   UNL     1      40.827 -15.960   3.402  1.00  0.00     0.152 C 
BRANCH   6   7
HETATM    7  C   UNL     1      40.400 -14.588   3.208  1.00  0.00     0.011 A 
HETATM    8  C   UNL     1      39.362 -14.103   2.349  1.00  0.00     0.004 A 
HETATM    9  C   UNL     1      39.282 -12.721   2.530  1.00  0.00     0.043 A 
HETATM   10  C   UNL     1      38.465 -14.711   1.444  1.00  0.00     0.014 A 
HETATM   11  C   UNL     1      38.352 -11.917   1.857  1.00  0.00     0.030 A 
HETATM   12  N   UNL     1      40.243 -12.375   3.450  1.00  0.00    -0.364 N 
HETATM   13  C   UNL     1      37.475 -12.545   0.970  1.00  0.00     0.002 A 
HETATM   14  C   UNL     1      37.529 -13.920   0.763  1.00  0.00     0.001 A 
HETATM   15  H   UNL     1      40.413 -11.435   3.781  1.00  0.00     0.165 HD
HETATM   16  C   UNL     1      40.917 -13.488   3.868  1.00  0.00     0.102 A 
ENDBRANCH   6   7
ENDBRANCH   2   5
BRANCH   1  17
HETATM   17  C   UNL     1      43.557 -19.593   2.543  1.00  0.00     0.067 A 
HETATM   18  C   UNL     1      44.200 -19.676   3.787  1.00  0.00     0.084 A 
HETATM   19  C   UNL     1      44.807 -20.881   4.169  1.00  0.00     0.038 A 
HETATM   20  C   UNL     1      44.733 -22.006   3.344  1.00  0.00     0.003 A 
HETATM   21  C   UNL     1      44.059 -21.938   2.129  1.00  0.00     0.001 A 
HETATM   22  C   UNL     1      43.474 -20.736   1.730  1.00  0.00     0.020 A 
BRANCH  18  23
HETATM   23  O   UNL     1      44.252 -18.558   4.584  1.00  0.00    -0.350 OA
BRANCH  23  24
HETATM   24  C   UNL     1      44.387 -18.846   5.982  1.00  0.00     0.171 C 
HETATM   25  C   UNL     1      45.290 -17.797   6.602  1.00  0.00     0.034 C 
ENDBRANCH  23  24
ENDBRANCH  18  23
ENDBRANCH   1  17
TORSDOF 5
ENDMDL
MODEL 4
REMARK VINA RESULT:      -7.6      5.830      8.124
REMARK  5 active torsions:
REMARK  status: ('A' for Active; 'I' for Inactive)
REMARK    1  A    between atoms: C_2  and  O_3 
REMARK    2  A    between atoms: O_3  and  C_4 
REMARK    3  A    between atoms: C_5  and  C_6 
REMARK       I    between atoms: C_6  and  N_7 
REMARK    4  A    between atoms: N_7  and  N_8 
REMARK    5  A    between atoms: C_9  and  C_10 
ROOT
HETATM    1  C   UNL     1      44.950 -13.272   7.731  1.00  0.00     0.274 C 
HETATM    2  N   UNL     1      43.963 -14.192   7.417  1.00  0.00    -0.243 N 
HETATM    3  O   UNL     1      46.005 -13.128   7.117  1.00  0.00    -0.266 OA
HETATM    4  H   UNL     1      43.121 -14.238   7.983  1.00  0.00     0.192 HD
ENDROOT
BRANCH   2   5
HETATM    5  N   UNL     1      44.055 -14.901   6.254  1.00  0.00    -0.183 NA
HETATM    6  C   UNL     1      43.257 -15.911   6.135  1.00  0.00     0.152 C 
BRANCH   6   7
HETATM    7  C   UNL     1      43.255 -16.663   4.895  1.00  0.00     0.011 A 
HETATM    8  C   UNL     1      43.837 -17.947   4.644  1.00  0.00     0.004 A 
HETATM    9  C   UNL     1      43.542 -18.288   3.322  1.00  0.00     0.043 A 
HETATM   10  C   UNL     1      44.573 -18.867   5.422  1.00  0.00     0.014 A 
HETATM   11  C   UNL     1      43.942 -19.498   2.740  1.00  0.00     0.030 A 
HETATM   12  N   UNL     1      42.823 -17.246   2.784  1.00  0.00    -0.364 N 
HETATM   13  C   UNL     1      44.666 -20.390   3.534  1.00  0.00     0.002 A 
HETATM   14  C   UNL     1      44.980 -20.081   4.854  1.00  0.00     0.001 A 
HETATM   15  H   UNL     1      42.468 -17.218   1.838  1.00  0.00     0.165 HD
HETATM   16  C   UNL     1      42.641 -16.268   3.720  1.00  0.00     0.102 A 
ENDBRANCH   6   7
ENDBRANCH   2   5
BRANCH   1  17
HETATM   17  C   UNL     1      44.629 -12.334   8.845  1.00  0.00     0.067 A 
HETATM   18  C   UNL     1      43.562 -11.423   8.824  1.00  0.00     0.084 A 
HETATM   19  C   UNL     1      43.400 -10.529   9.892  1.00  0.00     0.038 A 
HETATM   20  C   UNL     1      44.262 -10.571  10.992  1.00  0.00     0.003 A 
HETATM   21  C   UNL     1      45.295 -11.502  11.033  1.00  0.00     0.001 A 
HETATM   22  C   UNL     1      45.477 -12.379   9.965  1.00  0.00     0.020 A 
BRANCH  18  23
HETATM   23  O   UNL     1      42.724 -11.407   7.736  1.00  0.00    -0.350 OA
BRANCH  23  24
HETATM   24  C   UNL     1      41.755 -10.350   7.764  1.00  0.00     0.171 C 
HETATM   25  C   UNL     1      40.372 -10.971   7.803  1.00  0.00     0.034 C 
ENDBRANCH  23  24
ENDBRANCH  18  23
ENDBRANCH   1  17
TORSDOF 5
ENDMDL
MODEL 5
REMARK VINA RESULT:      -7.6      3.722      8.545
REMARK  5 active torsions:
REMARK  status: ('A' for Active; 'I' for Inactive)
REMARK    1  A    between atoms: C_2  and  O_3 
REMARK    2  A    between atoms: O_3  and  C_4 
REMARK    3  A    between atoms: C_5  and  C_6 
REMARK       I    between atoms: C_6  and  N_7 
REMARK    4  A    between atoms: N_7  and  N_8 
REMARK    5  A    between atoms: C_9  and  C_10 
ROOT
HETATM    1  C   UNL     1      43.760 -18.180   2.755  1.00  0.00     0.274 C 
HETATM    2  N   UNL     1      43.002 -17.583   3.750  1.00  0.00    -0.243 N 
HETATM    3  O   UNL     1      44.289 -17.589   1.816  1.00  0.00    -0.266 OA
HETATM    4  H   UNL     1      42.604 -18.155   4.489  1.00  0.00     0.192 HD
ENDROOT
BRANCH   2   5
HETATM    5  N   UNL     1      42.948 -16.221   3.822  1.00  0.00    -0.183 NA
HETATM    6  C   UNL     1      41.875 -15.666   3.363  1.00  0.00     0.152 C 
BRANCH   6   7
HETATM    7  C   UNL     1      41.723 -14.229   3.474  1.00  0.00     0.011 A 
HETATM    8  C   UNL     1      40.900 -13.499   4.391  1.00  0.00     0.004 A 
HETATM    9  C   UNL     1      41.116 -12.139   4.155  1.00  0.00     0.043 A 
HETATM   10  C   UNL     1      40.003 -13.863   5.418  1.00  0.00     0.014 A 
HETATM   11  C   UNL     1      40.484 -11.129   4.891  1.00  0.00     0.030 A 
HETATM   12  N   UNL     1      42.022 -12.045   3.124  1.00  0.00    -0.364 N 
HETATM   13  C   UNL     1      39.604 -11.519   5.903  1.00  0.00     0.002 A 
HETATM   14  C   UNL     1      39.363 -12.864   6.163  1.00  0.00     0.001 A 
HETATM   15  H   UNL     1      42.370 -11.176   2.741  1.00  0.00     0.165 HD
HETATM   16  C   UNL     1      42.396 -13.291   2.711  1.00  0.00     0.102 A 
ENDBRANCH   6   7
ENDBRANCH   2   5
BRANCH   1  17
HETATM   17  C   UNL     1      44.013 -19.640   2.923  1.00  0.00     0.067 A 
HETATM   18  C   UNL     1      44.493 -20.224   4.106  1.00  0.00     0.084 A 
HETATM   19  C   UNL     1      44.776 -21.597   4.130  1.00  0.00     0.038 A 
HETATM   20  C   UNL     1      44.539 -22.391   3.004  1.00  0.00     0.003 A 
HETATM   21  C   UNL     1      44.024 -21.821   1.844  1.00  0.00     0.001 A 
HETATM   22  C   UNL     1      43.763 -20.452   1.804  1.00  0.00     0.020 A 
BRANCH  18  23
HETATM   23  O   UNL     1      44.709 -19.424   5.201  1.00  0.00    -0.350 OA
BRANCH  23  24
HETATM   24  C   UNL     1      44.054 -19.879   6.393  1.00  0.00     0.171 C 
HETATM   25  C   UNL     1      43.712 -18.670   7.242  1.00  0.00     0.034 C 
ENDBRANCH  23  24
ENDBRANCH  18  23
ENDBRANCH   1  17
TORSDOF 5
ENDMDL
MODEL 6
REMARK VINA RESULT:      -7.6      1.948      2.958
REMARK  5 active torsions:
REMARK  status: ('A' for Active; 'I' for Inactive)
REMARK    1  A    between atoms: C_2  and  O_3 
REMARK    2  A    between atoms: O_3  and  C_4 
REMARK    3  A    between atoms: C_5  and  C_6 
REMARK       I    between atoms: C_6  and  N_7 
REMARK    4  A    between atoms: N_7  and  N_8 
REMARK    5  A    between atoms: C_9  and  C_10 
ROOT
HETATM    1  C   UNL     1      41.719 -16.705   0.467  1.00  0.00     0.274 C 
HETATM    2  N   UNL     1      43.082 -16.790   0.700  1.00  0.00    -0.243 N 
HETATM    3  O   UNL     1      40.886 -17.535   0.825  1.00  0.00    -0.266 OA
HETATM    4  H   UNL     1      43.695 -16.052   0.366  1.00  0.00     0.192 HD
ENDROOT
BRANCH   2   5
HETATM    5  N   UNL     1      43.560 -17.769   1.522  1.00  0.00    -0.183 NA
HETATM    6  C   UNL     1      43.570 -17.500   2.786  1.00  0.00     0.152 C 
BRANCH   6   7
HETATM    7  C   UNL     1      43.999 -18.522   3.720  1.00  0.00     0.011 A 
HETATM    8  C   UNL     1      44.162 -19.924   3.476  1.00  0.00     0.004 A 
HETATM    9  C   UNL     1      44.637 -20.501   4.656  1.00  0.00     0.043 A 
HETATM   10  C   UNL     1      43.968 -20.761   2.356  1.00  0.00     0.014 A 
HETATM   11  C   UNL     1      44.930 -21.866   4.772  1.00  0.00     0.030 A 
HETATM   12  N   UNL     1      44.745 -19.494   5.586  1.00  0.00    -0.364 N 
HETATM   13  C   UNL     1      44.732 -22.669   3.647  1.00  0.00     0.002 A 
HETATM   14  C   UNL     1      44.256 -22.128   2.456  1.00  0.00     0.001 A 
HETATM   15  H   UNL     1      45.070 -19.618   6.535  1.00  0.00     0.165 HD
HETATM   16  C   UNL     1      44.369 -18.302   5.035  1.00  0.00     0.102 A 
ENDBRANCH   6   7
ENDBRANCH   2   5
BRANCH   1  17
HETATM   17  C   UNL     1      41.251 -15.448  -0.184  1.00  0.00     0.067 A 
HETATM   18  C   UNL     1      41.042 -14.239   0.498  1.00  0.00     0.084 A 
HETATM   19  C   UNL     1      40.520 -13.138  -0.196  1.00  0.00     0.038 A 
HETATM   20  C   UNL     1      40.254 -13.224  -1.566  1.00  0.00     0.003 A 
HETATM   21  C   UNL     1      40.500 -14.408  -2.252  1.00  0.00     0.001 A 
HETATM   22  C   UNL     1      40.996 -15.515  -1.564  1.00  0.00     0.020 A 
BRANCH  18  23
HETATM   23  O   UNL     1      41.320 -14.178   1.842  1.00  0.00    -0.350 OA
BRANCH  23  24
HETATM   24  C   UNL     1      42.509 -13.442   2.158  1.00  0.00     0.171 C 
HETATM   25  C   UNL     1      42.809 -13.628   3.633  1.00  0.00     0.034 C 
ENDBRANCH  23  24
ENDBRANCH  18  23
ENDBRANCH   1  17
TORSDOF 5
ENDMDL
MODEL 7
REMARK VINA RESULT:      -7.5      2.350      8.428
REMARK  5 active torsions:
REMARK  status: ('A' for Active; 'I' for Inactive)
REMARK    1  A    between atoms: C_2  and  O_3 
REMARK    2  A    between atoms: O_3  and  C_4 
REMARK    3  A    between atoms: C_5  and  C_6 
REMARK       I    between atoms: C_6  and  N_7 
REMARK    4  A    between atoms: N_7  and  N_8 
REMARK    5  A    between atoms: C_9  and  C_10 
ROOT
HETATM    1  C   UNL     1      43.569 -18.411   2.018  1.00  0.00     0.274 C 
HETATM    2  N   UNL     1      42.273 -17.963   2.222  1.00  0.00    -0.243 N 
HETATM    3  O   UNL     1      44.425 -17.825   1.361  1.00  0.00    -0.266 OA
HETATM    4  H   UNL     1      41.633 -18.517   2.784  1.00  0.00     0.192 HD
ENDROOT
BRANCH   2   5
HETATM    5  N   UNL     1      41.929 -16.706   1.816  1.00  0.00    -0.183 NA
HETATM    6  C   UNL     1      41.392 -16.610   0.644  1.00  0.00     0.152 C 
BRANCH   6   7
HETATM    7  C   UNL     1      40.939 -15.313   0.182  1.00  0.00     0.011 A 
HETATM    8  C   UNL     1      40.726 -14.885  -1.168  1.00  0.00     0.004 A 
HETATM    9  C   UNL     1      40.246 -13.574  -1.120  1.00  0.00     0.043 A 
HETATM   10  C   UNL     1      40.878 -15.494  -2.433  1.00  0.00     0.014 A 
HETATM   11  C   UNL     1      39.908 -12.845  -2.267  1.00  0.00     0.030 A 
HETATM   12  N   UNL     1      40.184 -13.213   0.205  1.00  0.00    -0.364 N 
HETATM   13  C   UNL     1      40.065 -13.473  -3.504  1.00  0.00     0.002 A 
HETATM   14  C   UNL     1      40.544 -14.777  -3.589  1.00  0.00     0.001 A 
HETATM   15  H   UNL     1      39.866 -12.315   0.543  1.00  0.00     0.165 HD
HETATM   16  C   UNL     1      40.593 -14.249   0.995  1.00  0.00     0.102 A 
ENDBRANCH   6   7
ENDBRANCH   2   5
BRANCH   1  17
HETATM   17  C   UNL     1      43.945 -19.655   2.750  1.00  0.00     0.067 A 
HETATM   18  C   UNL     1      44.307 -19.692   4.105  1.00  0.00     0.084 A 
HETATM   19  C   UNL     1      44.724 -20.904   4.674  1.00  0.00     0.038 A 
HETATM   20  C   UNL     1      44.735 -22.077   3.915  1.00  0.00     0.003 A 
HETATM   21  C   UNL     1      44.336 -22.051   2.583  1.00  0.00     0.001 A 
HETATM   22  C   UNL     1      43.943 -20.845   2.003  1.00  0.00     0.020 A 
BRANCH  18  23
HETATM   23  O   UNL     1      44.279 -18.526   4.832  1.00  0.00    -0.350 OA
BRANCH  23  24
HETATM   24  C   UNL     1      45.190 -18.509   5.940  1.00  0.00     0.171 C 
HETATM   25  C   UNL     1      44.411 -18.166   7.194  1.00  0.00     0.034 C 
ENDBRANCH  23  24
ENDBRANCH  18  23
ENDBRANCH   1  17
TORSDOF 5
ENDMDL
MODEL 8
REMARK VINA RESULT:      -7.3      3.135      3.626
REMARK  5 active torsions:
REMARK  status: ('A' for Active; 'I' for Inactive)
REMARK    1  A    between atoms: C_2  and  O_3 
REMARK    2  A    between atoms: O_3  and  C_4 
REMARK    3  A    between atoms: C_5  and  C_6 
REMARK       I    between atoms: C_6  and  N_7 
REMARK    4  A    between atoms: N_7  and  N_8 
REMARK    5  A    between atoms: C_9  and  C_10 
ROOT
HETATM    1  C   UNL     1      40.621 -15.413   5.190  1.00  0.00     0.274 C 
HETATM    2  N   UNL     1      40.801 -16.284   4.127  1.00  0.00    -0.243 N 
HETATM    3  O   UNL     1      40.876 -15.667   6.364  1.00  0.00    -0.266 OA
HETATM    4  H   UNL     1      40.563 -15.985   3.186  1.00  0.00     0.192 HD
ENDROOT
BRANCH   2   5
HETATM    5  N   UNL     1      41.458 -17.464   4.333  1.00  0.00    -0.183 NA
HETATM    6  C   UNL     1      42.716 -17.476   4.039  1.00  0.00     0.152 C 
BRANCH   6   7
HETATM    7  C   UNL     1      43.487 -18.676   4.301  1.00  0.00     0.011 A 
HETATM    8  C   UNL     1      43.698 -19.793   3.430  1.00  0.00     0.004 A 
HETATM    9  C   UNL     1      44.543 -20.686   4.093  1.00  0.00     0.043 A 
HETATM   10  C   UNL     1      43.266 -20.126   2.128  1.00  0.00     0.014 A 
HETATM   11  C   UNL     1      44.979 -21.889   3.522  1.00  0.00     0.030 A 
HETATM   12  N   UNL     1      44.822 -20.142   5.325  1.00  0.00    -0.364 N 
HETATM   13  C   UNL     1      44.539 -22.190   2.232  1.00  0.00     0.002 A 
HETATM   14  C   UNL     1      43.694 -21.325   1.543  1.00  0.00     0.001 A 
HETATM   15  H   UNL     1      45.417 -20.569   6.022  1.00  0.00     0.165 HD
HETATM   16  C   UNL     1      44.198 -18.935   5.459  1.00  0.00     0.102 A 
ENDBRANCH   6   7
ENDBRANCH   2   5
BRANCH   1  17
HETATM   17  C   UNL     1      40.176 -14.037   4.829  1.00  0.00     0.067 A 
HETATM   18  C   UNL     1      40.540 -13.377   3.645  1.00  0.00     0.084 A 
HETATM   19  C   UNL     1      40.132 -12.050   3.444  1.00  0.00     0.038 A 
HETATM   20  C   UNL     1      39.330 -11.402   4.388  1.00  0.00     0.003 A 
HETATM   21  C   UNL     1      38.933 -12.070   5.542  1.00  0.00     0.001 A 
HETATM   22  C   UNL     1      39.354 -13.380   5.761  1.00  0.00     0.020 A 
BRANCH  18  23
HETATM   23  O   UNL     1      41.321 -14.038   2.729  1.00  0.00    -0.350 OA
BRANCH  23  24
HETATM   24  C   UNL     1      42.579 -13.400   2.469  1.00  0.00     0.171 C 
HETATM   25  C   UNL     1      43.579 -13.872   3.507  1.00  0.00     0.034 C 
ENDBRANCH  23  24
ENDBRANCH  18  23
ENDBRANCH   1  17
TORSDOF 5
ENDMDL
MODEL 9
REMARK VINA RESULT:      -7.2      2.114      8.260
REMARK  5 active torsions:
REMARK  status: ('A' for Active; 'I' for Inactive)
REMARK    1  A    between atoms: C_2  and  O_3 
REMARK    2  A    between atoms: O_3  and  C_4 
REMARK    3  A    between atoms: C_5  and  C_6 
REMARK       I    between atoms: C_6  and  N_7 
REMARK    4  A    between atoms: N_7  and  N_8 
REMARK    5  A    between atoms: C_9  and  C_10 
ROOT
HETATM    1  C   UNL     1      43.542 -18.046   1.760  1.00  0.00     0.274 C 
HETATM    2  N   UNL     1      42.185 -17.913   1.512  1.00  0.00    -0.243 N 
HETATM    3  O   UNL     1      44.434 -17.456   1.154  1.00  0.00    -0.266 OA
HETATM    4  H   UNL     1      41.519 -18.442   2.067  1.00  0.00     0.192 HD
ENDROOT
BRANCH   2   5
HETATM    5  N   UNL     1      41.755 -16.946   0.649  1.00  0.00    -0.183 NA
HETATM    6  C   UNL     1      41.178 -15.920   1.182  1.00  0.00     0.152 C 
BRANCH   6   7
HETATM    7  C   UNL     1      40.760 -14.826   0.328  1.00  0.00     0.011 A 
HETATM    8  C   UNL     1      39.497 -14.151   0.316  1.00  0.00     0.004 A 
HETATM    9  C   UNL     1      39.574 -13.138  -0.643  1.00  0.00     0.043 A 
HETATM   10  C   UNL     1      38.296 -14.291   1.043  1.00  0.00     0.014 A 
HETATM   11  C   UNL     1      38.516 -12.258  -0.907  1.00  0.00     0.030 A 
HETATM   12  N   UNL     1      40.828 -13.203  -1.203  1.00  0.00    -0.364 N 
HETATM   13  C   UNL     1      37.341 -12.419  -0.170  1.00  0.00     0.002 A 
HETATM   14  C   UNL     1      37.228 -13.420   0.790  1.00  0.00     0.001 A 
HETATM   15  H   UNL     1      41.168 -12.584  -1.926  1.00  0.00     0.165 HD
HETATM   16  C   UNL     1      41.549 -14.208  -0.626  1.00  0.00     0.102 A 
ENDBRANCH   6   7
ENDBRANCH   2   5
BRANCH   1  17
HETATM   17  C   UNL     1      43.905 -18.904   2.924  1.00  0.00     0.067 A 
HETATM   18  C   UNL     1      43.847 -18.482   4.261  1.00  0.00     0.084 A 
HETATM   19  C   UNL     1      44.292 -19.343   5.274  1.00  0.00     0.038 A 
HETATM   20  C   UNL     1      44.745 -20.629   4.966  1.00  0.00     0.003 A 
HETATM   21  C   UNL     1      44.763 -21.064   3.645  1.00  0.00     0.001 A 
HETATM   22  C   UNL     1      44.346 -20.205   2.629  1.00  0.00     0.020 A 
BRANCH  18  23
HETATM   23  O   UNL     1      43.390 -17.217   4.539  1.00  0.00    -0.350 OA
BRANCH  23  24
HETATM   24  C   UNL     1      42.398 -17.170   5.574  1.00  0.00     0.171 C 
HETATM   25  C   UNL     1      41.074 -17.618   4.987  1.00  0.00     0.034 C 
ENDBRANCH  23  24
ENDBRANCH  18  23
ENDBRANCH   1  17
TORSDOF 5
ENDMDL
MODEL 10
REMARK VINA RESULT:      -7.1      2.206      7.719
REMARK  5 active torsions:
REMARK  status: ('A' for Active; 'I' for Inactive)
REMARK    1  A    between atoms: C_2  and  O_3 
REMARK    2  A    between atoms: O_3  and  C_4 
REMARK    3  A    between atoms: C_5  and  C_6 
REMARK       I    between atoms: C_6  and  N_7 
REMARK    4  A    between atoms: N_7  and  N_8 
REMARK    5  A    between atoms: C_9  and  C_10 
ROOT
HETATM    1  C   UNL     1      42.144 -16.455   3.864  1.00  0.00     0.274 C 
HETATM    2  N   UNL     1      42.478 -16.179   2.548  1.00  0.00    -0.243 N 
HETATM    3  O   UNL     1      41.055 -16.222   4.383  1.00  0.00    -0.266 OA
HETATM    4  H   UNL     1      43.406 -16.409   2.205  1.00  0.00     0.192 HD
ENDROOT
BRANCH   2   5
HETATM    5  N   UNL     1      41.504 -15.764   1.685  1.00  0.00    -0.183 NA
HETATM    6  C   UNL     1      41.624 -14.564   1.221  1.00  0.00     0.152 C 
BRANCH   6   7
HETATM    7  C   UNL     1      40.663 -14.088   0.245  1.00  0.00     0.011 A 
HETATM    8  C   UNL     1      40.424 -14.593  -1.073  1.00  0.00     0.004 A 
HETATM    9  C   UNL     1      39.376 -13.850  -1.621  1.00  0.00     0.043 A 
HETATM   10  C   UNL     1      40.985 -15.629  -1.851  1.00  0.00     0.014 A 
HETATM   11  C   UNL     1      38.861 -14.089  -2.902  1.00  0.00     0.030 A 
HETATM   12  N   UNL     1      39.003 -12.918  -0.681  1.00  0.00    -0.364 N 
HETATM   13  C   UNL     1      39.433 -15.122  -3.648  1.00  0.00     0.002 A 
HETATM   14  C   UNL     1      40.481 -15.880  -3.134  1.00  0.00     0.001 A 
HETATM   15  H   UNL     1      38.261 -12.243  -0.802  1.00  0.00     0.165 HD
HETATM   16  C   UNL     1      39.765 -13.055   0.444  1.00  0.00     0.102 A 
ENDBRANCH   6   7
ENDBRANCH   2   5
BRANCH   1  17
HETATM   17  C   UNL     1      43.180 -17.183   4.654  1.00  0.00     0.067 A 
HETATM   18  C   UNL     1      43.652 -18.465   4.338  1.00  0.00     0.084 A 
HETATM   19  C   UNL     1      44.567 -19.092   5.197  1.00  0.00     0.038 A 
HETATM   20  C   UNL     1      45.043 -18.430   6.332  1.00  0.00     0.003 A 
HETATM   21  C   UNL     1      44.608 -17.142   6.624  1.00  0.00     0.001 A 
HETATM   22  C   UNL     1      43.680 -16.521   5.788  1.00  0.00     0.020 A 
BRANCH  18  23
HETATM   23  O   UNL     1      43.175 -19.091   3.212  1.00  0.00    -0.350 OA
BRANCH  23  24
HETATM   24  C   UNL     1      44.198 -19.668   2.389  1.00  0.00     0.171 C 
HETATM   25  C   UNL     1      43.728 -21.034   1.929  1.00  0.00     0.034 C 
ENDBRANCH  23  24
ENDBRANCH  18  23
ENDBRANCH   1  17
TORSDOF 5
ENDMDL
