MODEL 1
REMARK VINA RESULT:      -8.1      0.000      0.000
REMARK  2 active torsions:
REMARK  status: ('A' for Active; 'I' for Inactive)
REMARK    1  A    between atoms: C_9  and  N_10 
REMARK    2  A    between atoms: N_10  and  C_11 
ROOT
HETATM    1  C   UNL     1      42.838 -19.052   1.751  1.00  0.00     0.050 C 
HETATM    2  C   UNL     1      43.463 -19.492   3.038  1.00  0.00    -0.032 A 
HETATM    3  C   UNL     1      43.297 -18.818   4.325  1.00  0.00     0.053 A 
HETATM    4  C   UNL     1      44.062 -19.441   5.300  1.00  0.00     0.114 A 
HETATM    5  N   UNL     1      44.185 -19.081   6.586  1.00  0.00    -0.226 NA
HETATM    6  C   UNL     1      43.477 -17.996   6.896  1.00  0.00     0.125 A 
HETATM    7  C   UNL     1      43.548 -17.502   8.309  1.00  0.00     0.093 C 
HETATM    8  N   UNL     1      42.689 -17.308   6.056  1.00  0.00    -0.215 NA
HETATM    9  C   UNL     1      42.557 -17.688   4.763  1.00  0.00     0.143 A 
HETATM   10  S   UNL     1      44.896 -20.804   4.729  1.00  0.00    -0.074 SA
HETATM   11  C   UNL     1      44.293 -20.602   3.146  1.00  0.00    -0.012 A 
HETATM   12  C   UNL     1      44.706 -21.566   2.081  1.00  0.00     0.057 C 
ENDROOT
BRANCH   9  13
HETATM   13  N   UNL     1      41.673 -16.996   3.919  1.00  0.00    -0.340 N 
HETATM   14  H   UNL     1      40.723 -17.326   3.979  1.00  0.00     0.167 HD
BRANCH  13  15
HETATM   15  C   UNL     1      41.827 -15.816   3.169  1.00  0.00     0.036 A 
HETATM   16  C   UNL     1      41.209 -15.598   1.933  1.00  0.00     0.069 A 
HETATM   17  C   UNL     1      41.399 -14.404   1.234  1.00  0.00     0.104 A 
HETATM   18  C   UNL     1      42.243 -13.416   1.747  1.00  0.00     0.102 A 
HETATM   19  O   UNL     1      40.728 -14.270   0.044  1.00  0.00    -0.346 OA
HETATM   20  O   UNL     1      42.506 -12.237   1.100  1.00  0.00    -0.346 OA
HETATM   21  C   UNL     1      42.856 -13.604   2.980  1.00  0.00     0.042 A 
HETATM   22  C   UNL     1      42.107 -12.299  -0.275  1.00  0.00     0.202 C 
HETATM   23  C   UNL     1      40.722 -12.911  -0.404  1.00  0.00     0.202 C 
HETATM   24  C   UNL     1      42.647 -14.795   3.684  1.00  0.00     0.032 A 
ENDBRANCH  13  15
ENDBRANCH   9  13
TORSDOF 2
ENDMDL
MODEL 2
REMARK VINA RESULT:      -7.9      3.937      7.482
REMARK  2 active torsions:
REMARK  status: ('A' for Active; 'I' for Inactive)
REMARK    1  A    between atoms: C_9  and  N_10 
REMARK    2  A    between atoms: N_10  and  C_11 
ROOT
HETATM    1  C   UNL     1      42.677 -15.270   5.163  1.00  0.00     0.050 C 
HETATM    2  C   UNL     1      41.629 -14.925   4.150  1.00  0.00    -0.032 A 
HETATM    3  C   UNL     1      41.683 -15.280   2.733  1.00  0.00     0.053 A 
HETATM    4  C   UNL     1      40.591 -14.752   2.059  1.00  0.00     0.114 A 
HETATM    5  N   UNL     1      40.325 -14.844   0.748  1.00  0.00    -0.226 NA
HETATM    6  C   UNL     1      41.253 -15.522   0.073  1.00  0.00     0.125 A 
HETATM    7  C   UNL     1      41.057 -15.680  -1.405  1.00  0.00     0.093 C 
HETATM    8  N   UNL     1      42.346 -16.093   0.600  1.00  0.00    -0.215 NA
HETATM    9  C   UNL     1      42.599 -16.009   1.928  1.00  0.00     0.143 A 
HETATM   10  S   UNL     1      39.515 -13.922   3.075  1.00  0.00    -0.074 SA
HETATM   11  C   UNL     1      40.478 -14.207   4.453  1.00  0.00    -0.012 A 
HETATM   12  C   UNL     1      40.034 -13.670   5.776  1.00  0.00     0.057 C 
ENDROOT
BRANCH   9  13
HETATM   13  N   UNL     1      43.711 -16.673   2.471  1.00  0.00    -0.340 N 
HETATM   14  H   UNL     1      44.443 -16.050   2.769  1.00  0.00     0.167 HD
BRANCH  13  15
HETATM   15  C   UNL     1      43.904 -18.013   2.852  1.00  0.00     0.036 A 
HETATM   16  C   UNL     1      44.122 -18.418   4.173  1.00  0.00     0.069 A 
HETATM   17  C   UNL     1      44.306 -19.766   4.492  1.00  0.00     0.104 A 
HETATM   18  C   UNL     1      44.309 -20.732   3.484  1.00  0.00     0.102 A 
HETATM   19  O   UNL     1      44.484 -20.069   5.819  1.00  0.00    -0.346 OA
HETATM   20  O   UNL     1      44.520 -22.066   3.717  1.00  0.00    -0.346 OA
HETATM   21  C   UNL     1      44.079 -20.355   2.166  1.00  0.00     0.042 A 
HETATM   22  C   UNL     1      45.071 -22.284   5.022  1.00  0.00     0.202 C 
HETATM   23  C   UNL     1      44.321 -21.470   6.062  1.00  0.00     0.202 C 
HETATM   24  C   UNL     1      43.878 -19.006   1.855  1.00  0.00     0.032 A 
ENDBRANCH  13  15
ENDBRANCH   9  13
TORSDOF 2
ENDMDL
MODEL 3
REMARK VINA RESULT:      -7.9      1.424      2.097
REMARK  2 active torsions:
REMARK  status: ('A' for Active; 'I' for Inactive)
REMARK    1  A    between atoms: C_9  and  N_10 
REMARK    2  A    between atoms: N_10  and  C_11 
ROOT
HETATM    1  C   UNL     1      44.023 -18.636   1.511  1.00  0.00     0.050 C 
HETATM    2  C   UNL     1      44.064 -19.221   2.889  1.00  0.00    -0.032 A 
HETATM    3  C   UNL     1      43.835 -18.475   4.124  1.00  0.00     0.053 A 
HETATM    4  C   UNL     1      44.013 -19.298   5.228  1.00  0.00     0.114 A 
HETATM    5  N   UNL     1      43.919 -18.953   6.520  1.00  0.00    -0.226 NA
HETATM    6  C   UNL     1      43.627 -17.665   6.698  1.00  0.00     0.125 A 
HETATM    7  C   UNL     1      43.505 -17.170   8.107  1.00  0.00     0.093 C 
HETATM    8  N   UNL     1      43.418 -16.767   5.724  1.00  0.00    -0.215 NA
HETATM    9  C   UNL     1      43.499 -17.127   4.420  1.00  0.00     0.143 A 
HETATM   10  S   UNL     1      44.379 -20.902   4.814  1.00  0.00    -0.074 SA
HETATM   11  C   UNL     1      44.344 -20.559   3.144  1.00  0.00    -0.012 A 
HETATM   12  C   UNL     1      44.621 -21.657   2.168  1.00  0.00     0.057 C 
ENDROOT
BRANCH   9  13
HETATM   13  N   UNL     1      43.206 -16.189   3.417  1.00  0.00    -0.340 N 
HETATM   14  H   UNL     1      44.019 -15.876   2.912  1.00  0.00     0.167 HD
BRANCH  13  15
HETATM   15  C   UNL     1      41.985 -15.764   2.864  1.00  0.00     0.036 A 
HETATM   16  C   UNL     1      41.731 -14.444   2.472  1.00  0.00     0.069 A 
HETATM   17  C   UNL     1      40.497 -14.081   1.926  1.00  0.00     0.104 A 
HETATM   18  C   UNL     1      39.480 -15.029   1.795  1.00  0.00     0.102 A 
HETATM   19  O   UNL     1      40.352 -12.771   1.545  1.00  0.00    -0.346 OA
HETATM   20  O   UNL     1      38.234 -14.737   1.304  1.00  0.00    -0.346 OA
HETATM   21  C   UNL     1      39.715 -16.349   2.164  1.00  0.00     0.042 A 
HETATM   22  C   UNL     1      38.004 -13.324   1.281  1.00  0.00     0.202 C 
HETATM   23  C   UNL     1      39.206 -12.594   0.706  1.00  0.00     0.202 C 
HETATM   24  C   UNL     1      40.958 -16.710   2.693  1.00  0.00     0.032 A 
ENDBRANCH  13  15
ENDBRANCH   9  13
TORSDOF 2
ENDMDL
MODEL 4
REMARK VINA RESULT:      -7.8      2.551      3.163
REMARK  2 active torsions:
REMARK  status: ('A' for Active; 'I' for Inactive)
REMARK    1  A    between atoms: C_9  and  N_10 
REMARK    2  A    between atoms: N_10  and  C_11 
ROOT
HETATM    1  C   UNL     1      43.744 -18.771   1.658  1.00  0.00     0.050 C 
HETATM    2  C   UNL     1      44.005 -19.572   2.896  1.00  0.00    -0.032 A 
HETATM    3  C   UNL     1      43.965 -19.047   4.259  1.00  0.00     0.053 A 
HETATM    4  C   UNL     1      44.321 -20.032   5.169  1.00  0.00     0.114 A 
HETATM    5  N   UNL     1      44.427 -19.907   6.500  1.00  0.00    -0.226 NA
HETATM    6  C   UNL     1      44.155 -18.676   6.933  1.00  0.00     0.125 A 
HETATM    7  C   UNL     1      44.250 -18.424   8.407  1.00  0.00     0.093 C 
HETATM    8  N   UNL     1      43.788 -17.639   6.166  1.00  0.00    -0.215 NA
HETATM    9  C   UNL     1      43.668 -17.778   4.824  1.00  0.00     0.143 A 
HETATM   10  S   UNL     1      44.631 -21.534   4.442  1.00  0.00    -0.074 SA
HETATM   11  C   UNL     1      44.333 -20.923   2.878  1.00  0.00    -0.012 A 
HETATM   12  C   UNL     1      44.464 -21.837   1.702  1.00  0.00     0.057 C 
ENDROOT
BRANCH   9  13
HETATM   13  N   UNL     1      43.214 -16.699   4.048  1.00  0.00    -0.340 N 
HETATM   14  H   UNL     1      43.488 -16.758   3.081  1.00  0.00     0.167 HD
BRANCH  13  15
HETATM   15  C   UNL     1      42.293 -15.672   4.325  1.00  0.00     0.036 A 
HETATM   16  C   UNL     1      42.590 -14.562   5.124  1.00  0.00     0.069 A 
HETATM   17  C   UNL     1      41.633 -13.572   5.362  1.00  0.00     0.104 A 
HETATM   18  C   UNL     1      40.347 -13.694   4.832  1.00  0.00     0.102 A 
HETATM   19  O   UNL     1      42.026 -12.507   6.134  1.00  0.00    -0.346 OA
HETATM   20  O   UNL     1      39.348 -12.783   5.054  1.00  0.00    -0.346 OA
HETATM   21  C   UNL     1      40.035 -14.781   4.023  1.00  0.00     0.042 A 
HETATM   22  C   UNL     1      39.672 -11.914   6.147  1.00  0.00     0.202 C 
HETATM   23  C   UNL     1      41.103 -11.417   6.030  1.00  0.00     0.202 C 
HETATM   24  C   UNL     1      41.002 -15.760   3.773  1.00  0.00     0.032 A 
ENDBRANCH  13  15
ENDBRANCH   9  13
TORSDOF 2
ENDMDL
MODEL 5
REMARK VINA RESULT:      -7.8      1.934      3.653
REMARK  2 active torsions:
REMARK  status: ('A' for Active; 'I' for Inactive)
REMARK    1  A    between atoms: C_9  and  N_10 
REMARK    2  A    between atoms: N_10  and  C_11 
ROOT
HETATM    1  C   UNL     1      43.013 -15.817   5.462  1.00  0.00     0.050 C 
HETATM    2  C   UNL     1      43.443 -17.247   5.569  1.00  0.00    -0.032 A 
HETATM    3  C   UNL     1      43.677 -18.141   4.437  1.00  0.00     0.053 A 
HETATM    4  C   UNL     1      43.998 -19.415   4.882  1.00  0.00     0.114 A 
HETATM    5  N   UNL     1      44.243 -20.499   4.131  1.00  0.00    -0.226 NA
HETATM    6  C   UNL     1      44.146 -20.262   2.823  1.00  0.00     0.125 A 
HETATM    7  C   UNL     1      44.395 -21.409   1.892  1.00  0.00     0.093 C 
HETATM    8  N   UNL     1      43.856 -19.080   2.260  1.00  0.00    -0.215 NA
HETATM    9  C   UNL     1      43.625 -17.986   3.026  1.00  0.00     0.143 A 
HETATM   10  S   UNL     1      44.078 -19.533   6.573  1.00  0.00    -0.074 SA
HETATM   11  C   UNL     1      43.657 -17.893   6.782  1.00  0.00    -0.012 A 
HETATM   12  C   UNL     1      43.544 -17.341   8.166  1.00  0.00     0.057 C 
ENDROOT
BRANCH   9  13
HETATM   13  N   UNL     1      43.394 -16.743   2.414  1.00  0.00    -0.340 N 
HETATM   14  H   UNL     1      44.239 -16.255   2.168  1.00  0.00     0.167 HD
BRANCH  13  15
HETATM   15  C   UNL     1      42.220 -16.155   1.909  1.00  0.00     0.036 A 
HETATM   16  C   UNL     1      42.158 -15.485   0.681  1.00  0.00     0.069 A 
HETATM   17  C   UNL     1      40.962 -14.921   0.230  1.00  0.00     0.104 A 
HETATM   18  C   UNL     1      39.811 -14.988   1.019  1.00  0.00     0.102 A 
HETATM   19  O   UNL     1      40.991 -14.311  -0.999  1.00  0.00    -0.346 OA
HETATM   20  O   UNL     1      38.615 -14.426   0.659  1.00  0.00    -0.346 OA
HETATM   21  C   UNL     1      39.847 -15.661   2.235  1.00  0.00     0.042 A 
HETATM   22  C   UNL     1      38.782 -13.493  -0.416  1.00  0.00     0.202 C 
HETATM   23  C   UNL     1      39.671 -14.079  -1.500  1.00  0.00     0.202 C 
HETATM   24  C   UNL     1      41.042 -16.239   2.673  1.00  0.00     0.032 A 
ENDBRANCH  13  15
ENDBRANCH   9  13
TORSDOF 2
ENDMDL
MODEL 6
REMARK VINA RESULT:      -7.5      3.412      5.131
REMARK  2 active torsions:
REMARK  status: ('A' for Active; 'I' for Inactive)
REMARK    1  A    between atoms: C_9  and  N_10 
REMARK    2  A    between atoms: N_10  and  C_11 
ROOT
HETATM    1  C   UNL     1      41.974 -17.774   5.563  1.00  0.00     0.050 C 
HETATM    2  C   UNL     1      42.511 -17.930   4.174  1.00  0.00    -0.032 A 
HETATM    3  C   UNL     1      42.024 -17.208   3.000  1.00  0.00     0.053 A 
HETATM    4  C   UNL     1      42.689 -17.634   1.859  1.00  0.00     0.114 A 
HETATM    5  N   UNL     1      42.484 -17.221   0.600  1.00  0.00    -0.226 NA
HETATM    6  C   UNL     1      41.519 -16.308   0.499  1.00  0.00     0.125 A 
HETATM    7  C   UNL     1      41.203 -15.782  -0.868  1.00  0.00     0.093 C 
HETATM    8  N   UNL     1      40.809 -15.802   1.518  1.00  0.00    -0.215 NA
HETATM    9  C   UNL     1      41.033 -16.213   2.789  1.00  0.00     0.143 A 
HETATM   10  S   UNL     1      43.884 -18.797   2.175  1.00  0.00    -0.074 SA
HETATM   11  C   UNL     1      43.542 -18.803   3.846  1.00  0.00    -0.012 A 
HETATM   12  C   UNL     1      44.320 -19.709   4.745  1.00  0.00     0.057 C 
ENDROOT
BRANCH   9  13
HETATM   13  N   UNL     1      40.328 -15.619   3.849  1.00  0.00    -0.340 N 
HETATM   14  H   UNL     1      39.562 -16.180   4.184  1.00  0.00     0.167 HD
BRANCH  13  15
HETATM   15  C   UNL     1      40.613 -14.497   4.648  1.00  0.00     0.036 A 
HETATM   16  C   UNL     1      39.663 -13.860   5.454  1.00  0.00     0.069 A 
HETATM   17  C   UNL     1      40.006 -12.749   6.228  1.00  0.00     0.104 A 
HETATM   18  C   UNL     1      41.302 -12.232   6.181  1.00  0.00     0.102 A 
HETATM   19  O   UNL     1      39.014 -12.210   7.009  1.00  0.00    -0.346 OA
HETATM   20  O   UNL     1      41.700 -11.124   6.883  1.00  0.00    -0.346 OA
HETATM   21  C   UNL     1      42.266 -12.858   5.398  1.00  0.00     0.042 A 
HETATM   22  C   UNL     1      40.573 -10.385   7.368  1.00  0.00     0.202 C 
HETATM   23  C   UNL     1      39.549 -11.317   7.992  1.00  0.00     0.202 C 
HETATM   24  C   UNL     1      41.922 -13.981   4.640  1.00  0.00     0.032 A 
ENDBRANCH  13  15
ENDBRANCH   9  13
TORSDOF 2
ENDMDL
MODEL 7
REMARK VINA RESULT:      -7.4      3.924      6.988
REMARK  2 active torsions:
REMARK  status: ('A' for Active; 'I' for Inactive)
REMARK    1  A    between atoms: C_9  and  N_10 
REMARK    2  A    between atoms: N_10  and  C_11 
ROOT
HETATM    1  C   UNL     1      41.346 -15.681  -0.638  1.00  0.00     0.050 C 
HETATM    2  C   UNL     1      40.497 -14.845   0.270  1.00  0.00    -0.032 A 
HETATM    3  C   UNL     1      40.680 -14.725   1.715  1.00  0.00     0.053 A 
HETATM    4  C   UNL     1      39.685 -13.931   2.265  1.00  0.00     0.114 A 
HETATM    5  N   UNL     1      39.513 -13.627   3.561  1.00  0.00    -0.226 NA
HETATM    6  C   UNL     1      40.426 -14.187   4.354  1.00  0.00     0.125 A 
HETATM    7  C   UNL     1      40.323 -13.918   5.825  1.00  0.00     0.093 C 
HETATM    8  N   UNL     1      41.444 -14.963   3.953  1.00  0.00    -0.215 NA
HETATM    9  C   UNL     1      41.619 -15.251   2.641  1.00  0.00     0.143 A 
HETATM   10  S   UNL     1      38.613 -13.303   1.110  1.00  0.00    -0.074 SA
HETATM   11  C   UNL     1      39.415 -14.092  -0.172  1.00  0.00    -0.012 A 
HETATM   12  C   UNL     1      38.899 -13.928  -1.566  1.00  0.00     0.057 C 
ENDROOT
BRANCH   9  13
HETATM   13  N   UNL     1      42.732 -16.007   2.236  1.00  0.00    -0.340 N 
HETATM   14  H   UNL     1      43.408 -15.474   1.713  1.00  0.00     0.167 HD
BRANCH  13  15
HETATM   15  C   UNL     1      43.164 -17.297   2.591  1.00  0.00     0.036 A 
HETATM   16  C   UNL     1      43.536 -17.658   3.892  1.00  0.00     0.069 A 
HETATM   17  C   UNL     1      43.956 -18.957   4.185  1.00  0.00     0.104 A 
HETATM   18  C   UNL     1      44.045 -19.913   3.171  1.00  0.00     0.102 A 
HETATM   19  O   UNL     1      44.273 -19.224   5.494  1.00  0.00    -0.346 OA
HETATM   20  O   UNL     1      44.484 -21.195   3.378  1.00  0.00    -0.346 OA
HETATM   21  C   UNL     1      43.666 -19.582   1.875  1.00  0.00     0.042 A 
HETATM   22  C   UNL     1      45.152 -21.318   4.639  1.00  0.00     0.202 C 
HETATM   23  C   UNL     1      44.355 -20.632   5.736  1.00  0.00     0.202 C 
HETATM   24  C   UNL     1      43.229 -18.284   1.591  1.00  0.00     0.032 A 
ENDBRANCH  13  15
ENDBRANCH   9  13
TORSDOF 2
ENDMDL
MODEL 8
REMARK VINA RESULT:      -7.2      4.013      7.569
REMARK  2 active torsions:
REMARK  status: ('A' for Active; 'I' for Inactive)
REMARK    1  A    between atoms: C_9  and  N_10 
REMARK    2  A    between atoms: N_10  and  C_11 
ROOT
HETATM    1  C   UNL     1      40.179 -14.776   5.547  1.00  0.00     0.050 C 
HETATM    2  C   UNL     1      39.987 -13.770   4.455  1.00  0.00    -0.032 A 
HETATM    3  C   UNL     1      40.005 -14.071   3.025  1.00  0.00     0.053 A 
HETATM    4  C   UNL     1      39.867 -12.908   2.282  1.00  0.00     0.114 A 
HETATM    5  N   UNL     1      39.872 -12.793   0.946  1.00  0.00    -0.226 NA
HETATM    6  C   UNL     1      40.040 -13.957   0.321  1.00  0.00     0.125 A 
HETATM    7  C   UNL     1      40.068 -13.943  -1.177  1.00  0.00     0.093 C 
HETATM    8  N   UNL     1      40.174 -15.153   0.915  1.00  0.00    -0.215 NA
HETATM    9  C   UNL     1      40.151 -15.262   2.265  1.00  0.00     0.143 A 
HETATM   10  S   UNL     1      39.662 -11.522   3.240  1.00  0.00    -0.074 SA
HETATM   11  C   UNL     1      39.782 -12.415   4.689  1.00  0.00    -0.012 A 
HETATM   12  C   UNL     1      39.682 -11.699   5.997  1.00  0.00     0.057 C 
ENDROOT
BRANCH   9  13
HETATM   13  N   UNL     1      40.221 -16.531   2.863  1.00  0.00    -0.340 N 
HETATM   14  H   UNL     1      39.319 -16.944   3.032  1.00  0.00     0.167 HD
BRANCH  13  15
HETATM   15  C   UNL     1      41.304 -17.402   3.081  1.00  0.00     0.036 A 
HETATM   16  C   UNL     1      41.770 -17.752   4.354  1.00  0.00     0.069 A 
HETATM   17  C   UNL     1      42.851 -18.625   4.508  1.00  0.00     0.104 A 
HETATM   18  C   UNL     1      43.508 -19.136   3.387  1.00  0.00     0.102 A 
HETATM   19  O   UNL     1      43.217 -18.932   5.795  1.00  0.00    -0.346 OA
HETATM   20  O   UNL     1      44.596 -19.966   3.462  1.00  0.00    -0.346 OA
HETATM   21  C   UNL     1      43.052 -18.813   2.114  1.00  0.00     0.042 A 
HETATM   22  C   UNL     1      45.169 -19.952   4.775  1.00  0.00     0.202 C 
HETATM   23  C   UNL     1      44.086 -20.070   5.834  1.00  0.00     0.202 C 
HETATM   24  C   UNL     1      41.959 -17.954   1.965  1.00  0.00     0.032 A 
ENDBRANCH  13  15
ENDBRANCH   9  13
TORSDOF 2
ENDMDL
MODEL 9
REMARK VINA RESULT:      -7.1      1.839      3.499
REMARK  2 active torsions:
REMARK  status: ('A' for Active; 'I' for Inactive)
REMARK    1  A    between atoms: C_9  and  N_10 
REMARK    2  A    between atoms: N_10  and  C_11 
ROOT
HETATM    1  C   UNL     1      41.289 -16.345   6.134  1.00  0.00     0.050 C 
HETATM    2  C   UNL     1      42.400 -17.332   5.951  1.00  0.00    -0.032 A 
HETATM    3  C   UNL     1      42.687 -18.052   4.712  1.00  0.00     0.053 A 
HETATM    4  C   UNL     1      43.737 -18.939   4.899  1.00  0.00     0.114 A 
HETATM    5  N   UNL     1      44.252 -19.788   3.998  1.00  0.00    -0.226 NA
HETATM    6  C   UNL     1      43.640 -19.730   2.816  1.00  0.00     0.125 A 
HETATM    7  C   UNL     1      44.133 -20.643   1.735  1.00  0.00     0.093 C 
HETATM    8  N   UNL     1      42.625 -18.913   2.498  1.00  0.00    -0.215 NA
HETATM    9  C   UNL     1      42.121 -18.047   3.410  1.00  0.00     0.143 A 
HETATM   10  S   UNL     1      44.395 -18.878   6.462  1.00  0.00    -0.074 SA
HETATM   11  C   UNL     1      43.285 -17.684   6.964  1.00  0.00    -0.012 A 
HETATM   12  C   UNL     1      43.348 -17.175   8.368  1.00  0.00     0.057 C 
ENDROOT
BRANCH   9  13
HETATM   13  N   UNL     1      41.106 -17.151   3.035  1.00  0.00    -0.340 N 
HETATM   14  H   UNL     1      40.181 -17.543   3.106  1.00  0.00     0.167 HD
BRANCH  13  15
HETATM   15  C   UNL     1      41.129 -15.769   2.777  1.00  0.00     0.036 A 
HETATM   16  C   UNL     1      39.982 -14.968   2.749  1.00  0.00     0.069 A 
HETATM   17  C   UNL     1      40.067 -13.598   2.487  1.00  0.00     0.104 A 
HETATM   18  C   UNL     1      41.304 -13.010   2.214  1.00  0.00     0.102 A 
HETATM   19  O   UNL     1      38.891 -12.890   2.510  1.00  0.00    -0.346 OA
HETATM   20  O   UNL     1      41.460 -11.682   1.913  1.00  0.00    -0.346 OA
HETATM   21  C   UNL     1      42.459 -13.784   2.251  1.00  0.00     0.042 A 
HETATM   22  C   UNL     1      40.206 -11.077   1.575  1.00  0.00     0.202 C 
HETATM   23  C   UNL     1      39.131 -11.480   2.570  1.00  0.00     0.202 C 
HETATM   24  C   UNL     1      42.369 -15.151   2.531  1.00  0.00     0.032 A 
ENDBRANCH  13  15
ENDBRANCH   9  13
TORSDOF 2
ENDMDL
MODEL 10
REMARK VINA RESULT:      -7.0      3.426      5.939
REMARK  2 active torsions:
REMARK  status: ('A' for Active; 'I' for Inactive)
REMARK    1  A    between atoms: C_9  and  N_10 
REMARK    2  A    between atoms: N_10  and  C_11 
ROOT
HETATM    1  C   UNL     1      40.028 -13.178   1.935  1.00  0.00     0.050 C 
HETATM    2  C   UNL     1      40.634 -14.281   2.746  1.00  0.00    -0.032 A 
HETATM    3  C   UNL     1      41.431 -15.379   2.205  1.00  0.00     0.053 A 
HETATM    4  C   UNL     1      41.783 -16.266   3.213  1.00  0.00     0.114 A 
HETATM    5  N   UNL     1      42.482 -17.403   3.085  1.00  0.00    -0.226 NA
HETATM    6  C   UNL     1      42.843 -17.657   1.828  1.00  0.00     0.125 A 
HETATM    7  C   UNL     1      43.624 -18.909   1.571  1.00  0.00     0.093 C 
HETATM    8  N   UNL     1      42.580 -16.882   0.765  1.00  0.00    -0.215 NA
HETATM    9  C   UNL     1      41.887 -15.726   0.905  1.00  0.00     0.143 A 
HETATM   10  S   UNL     1      41.242 -15.784   4.747  1.00  0.00    -0.074 SA
HETATM   11  C   UNL     1      40.488 -14.386   4.125  1.00  0.00    -0.012 A 
HETATM   12  C   UNL     1      39.766 -13.470   5.060  1.00  0.00     0.057 C 
ENDROOT
BRANCH   9  13
HETATM   13  N   UNL     1      41.685 -14.894  -0.208  1.00  0.00    -0.340 N 
HETATM   14  H   UNL     1      42.424 -14.224  -0.347  1.00  0.00     0.167 HD
BRANCH  13  15
HETATM   15  C   UNL     1      40.758 -14.956  -1.264  1.00  0.00     0.036 A 
HETATM   16  C   UNL     1      39.644 -14.116  -1.365  1.00  0.00     0.069 A 
HETATM   17  C   UNL     1      38.757 -14.223  -2.440  1.00  0.00     0.104 A 
HETATM   18  C   UNL     1      38.952 -15.202  -3.417  1.00  0.00     0.102 A 
HETATM   19  O   UNL     1      37.710 -13.336  -2.468  1.00  0.00    -0.346 OA
HETATM   20  O   UNL     1      38.104 -15.390  -4.477  1.00  0.00    -0.346 OA
HETATM   21  C   UNL     1      40.060 -16.038  -3.344  1.00  0.00     0.042 A 
HETATM   22  C   UNL     1      36.854 -14.722  -4.267  1.00  0.00     0.202 C 
HETATM   23  C   UNL     1      37.080 -13.310  -3.753  1.00  0.00     0.202 C 
HETATM   24  C   UNL     1      40.954 -15.913  -2.276  1.00  0.00     0.032 A 
ENDBRANCH  13  15
ENDBRANCH   9  13
TORSDOF 2
ENDMDL
