MODEL 1
REMARK VINA RESULT:      -8.8      0.000      0.000
REMARK  9 active torsions:
REMARK  status: ('A' for Active; 'I' for Inactive)
REMARK    1  A    between atoms: O_2  and  C_3 
REMARK    2  A    between atoms: C_5  and  C_15 
REMARK    3  A    between atoms: C_8  and  C_9 
REMARK       I    between atoms: C_15  and  N_17 
REMARK    4  A    between atoms: N_17  and  C_18 
REMARK    5  A    between atoms: C_18  and  C_19 
REMARK    6  A    between atoms: C_23  and  C_25 
REMARK       I    between atoms: C_25  and  N_27 
REMARK    7  A    between atoms: N_27  and  C_28 
REMARK    8  A    between atoms: C_28  and  C_29 
REMARK    9  A    between atoms: C_29  and  O_32 
ROOT
HETATM    1  C   UNL     1      43.225 -14.543   3.220  1.00  0.00     0.252 C 
HETATM    2  O   UNL     1      44.151 -13.807   3.541  1.00  0.00    -0.268 OA
HETATM    3  N   UNL     1      41.970 -14.078   2.892  1.00  0.00    -0.353 N 
HETATM    4  H   UNL     1      41.336 -14.685   2.390  1.00  0.00     0.163 HD
ENDROOT
BRANCH   3   5
HETATM    5  C   UNL     1      41.704 -12.659   2.836  1.00  0.00     0.161 C 
BRANCH   5   6
HETATM    6  C   UNL     1      41.018 -12.199   4.097  1.00  0.00    -0.040 A 
HETATM    7  C   UNL     1      39.630 -12.324   4.248  1.00  0.00     0.009 A 
HETATM    8  C   UNL     1      39.007 -11.906   5.425  1.00  0.00     0.002 A 
HETATM    9  C   UNL     1      39.764 -11.355   6.459  1.00  0.00     0.017 A 
HETATM   10  C   UNL     1      41.148 -11.207   6.318  1.00  0.00     0.032 A 
HETATM   11  C   UNL     1      41.772 -11.639   5.142  1.00  0.00     0.026 A 
BRANCH  10  12
HETATM   12  C   UNL     1      41.910 -10.608   7.447  1.00  0.00     0.251 C 
HETATM   13  O   UNL     1      41.953  -9.390   7.582  1.00  0.00    -0.268 OA
HETATM   14  N   UNL     1      42.572 -11.484   8.280  1.00  0.00    -0.354 N 
HETATM   15  H   UNL     1      42.601 -12.472   8.070  1.00  0.00     0.162 HD
BRANCH  14  16
HETATM   16  C   UNL     1      43.386 -11.020   9.396  1.00  0.00     0.159 C 
BRANCH  16  17
HETATM   17  C   UNL     1      44.551 -11.976   9.737  1.00  0.00     0.066 C 
HETATM   18  C   UNL     1      45.287 -12.487   8.495  1.00  0.00     0.047 C 
HETATM   19  C   UNL     1      45.539 -11.270  10.668  1.00  0.00     0.047 C 
BRANCH  17  20
HETATM   20  O   UNL     1      44.029 -13.106  10.454  1.00  0.00    -0.389 OA
HETATM   21  H   UNL     1      44.771 -13.483  10.959  1.00  0.00     0.210 HD
ENDBRANCH  17  20
ENDBRANCH  16  17
ENDBRANCH  14  16
ENDBRANCH  10  12
ENDBRANCH   5   6
ENDBRANCH   3   5
BRANCH   1  22
HETATM   22  C   UNL     1      43.432 -16.014   3.136  1.00  0.00     0.034 A 
HETATM   23  C   UNL     1      43.329 -16.844   4.261  1.00  0.00     0.054 A 
HETATM   24  C   UNL     1      43.531 -18.228   4.146  1.00  0.00     0.080 A 
HETATM   25  C   UNL     1      43.823 -18.794   2.884  1.00  0.00     0.010 A 
HETATM   26  C   UNL     1      43.950 -17.941   1.772  1.00  0.00     0.016 A 
HETATM   27  C   UNL     1      43.762 -16.565   1.897  1.00  0.00     0.018 A 
BRANCH  24  28
HETATM   28  O   UNL     1      43.409 -19.090   5.208  1.00  0.00    -0.355 OA
HETATM   29  C   UNL     1      44.248 -18.866   6.335  1.00  0.00     0.210 C 
ENDBRANCH  24  28
BRANCH  25  30
HETATM   30  C   UNL     1      44.027 -20.228   2.702  1.00  0.00     0.013 A 
HETATM   31  C   UNL     1      44.698 -21.186   3.497  1.00  0.00     0.152 A 
HETATM   32  N   UNL     1      44.666 -22.414   2.972  1.00  0.00    -0.187 NA
HETATM   33  N   UNL     1      43.958 -22.252   1.844  1.00  0.00    -0.289 N 
HETATM   34  H   UNL     1      43.788 -23.066   1.263  1.00  0.00     0.188 HD
HETATM   35  C   UNL     1      43.557 -20.965   1.634  1.00  0.00     0.123 A 
ENDBRANCH  25  30
ENDBRANCH   1  22
TORSDOF 9
ENDMDL
MODEL 2
REMARK VINA RESULT:      -8.7      3.570     10.451
REMARK  9 active torsions:
REMARK  status: ('A' for Active; 'I' for Inactive)
REMARK    1  A    between atoms: O_2  and  C_3 
REMARK    2  A    between atoms: C_5  and  C_15 
REMARK    3  A    between atoms: C_8  and  C_9 
REMARK       I    between atoms: C_15  and  N_17 
REMARK    4  A    between atoms: N_17  and  C_18 
REMARK    5  A    between atoms: C_18  and  C_19 
REMARK    6  A    between atoms: C_23  and  C_25 
REMARK       I    between atoms: C_25  and  N_27 
REMARK    7  A    between atoms: N_27  and  C_28 
REMARK    8  A    between atoms: C_28  and  C_29 
REMARK    9  A    between atoms: C_29  and  O_32 
ROOT
HETATM    1  C   UNL     1      44.946 -12.631   8.566  1.00  0.00     0.252 C 
HETATM    2  O   UNL     1      46.121 -12.444   8.273  1.00  0.00    -0.268 OA
HETATM    3  N   UNL     1      44.115 -13.469   7.855  1.00  0.00    -0.353 N 
HETATM    4  H   UNL     1      43.255 -13.786   8.282  1.00  0.00     0.163 HD
ENDROOT
BRANCH   3   5
HETATM    5  C   UNL     1      44.625 -14.245   6.749  1.00  0.00     0.161 C 
BRANCH   5   6
HETATM    6  C   UNL     1      43.787 -15.479   6.537  1.00  0.00    -0.040 A 
HETATM    7  C   UNL     1      43.584 -16.399   7.574  1.00  0.00     0.009 A 
HETATM    8  C   UNL     1      42.795 -17.532   7.370  1.00  0.00     0.002 A 
HETATM    9  C   UNL     1      42.207 -17.759   6.125  1.00  0.00     0.017 A 
HETATM   10  C   UNL     1      42.415 -16.861   5.073  1.00  0.00     0.032 A 
HETATM   11  C   UNL     1      43.195 -15.717   5.285  1.00  0.00     0.026 A 
BRANCH  10  12
HETATM   12  C   UNL     1      41.770 -17.150   3.763  1.00  0.00     0.251 C 
HETATM   13  O   UNL     1      42.161 -18.093   3.082  1.00  0.00    -0.268 OA
HETATM   14  N   UNL     1      40.766 -16.295   3.364  1.00  0.00    -0.354 N 
HETATM   15  H   UNL     1      40.550 -15.468   3.903  1.00  0.00     0.162 HD
BRANCH  14  16
HETATM   16  C   UNL     1      40.087 -16.448   2.085  1.00  0.00     0.159 C 
BRANCH  16  17
HETATM   17  C   UNL     1      40.648 -15.518   0.984  1.00  0.00     0.066 C 
HETATM   18  C   UNL     1      41.445 -14.340   1.548  1.00  0.00     0.047 C 
HETATM   19  C   UNL     1      41.527 -16.327   0.028  1.00  0.00     0.047 C 
BRANCH  17  20
HETATM   20  O   UNL     1      39.553 -15.000   0.214  1.00  0.00    -0.389 OA
HETATM   21  H   UNL     1      39.733 -14.053   0.076  1.00  0.00     0.210 HD
ENDBRANCH  17  20
ENDBRANCH  16  17
ENDBRANCH  14  16
ENDBRANCH  10  12
ENDBRANCH   5   6
ENDBRANCH   3   5
BRANCH   1  22
HETATM   22  C   UNL     1      44.356 -11.964   9.758  1.00  0.00     0.034 A 
HETATM   23  C   UNL     1      43.633 -10.766   9.659  1.00  0.00     0.054 A 
HETATM   24  C   UNL     1      43.091 -10.165  10.805  1.00  0.00     0.080 A 
HETATM   25  C   UNL     1      43.260 -10.778  12.068  1.00  0.00     0.010 A 
HETATM   26  C   UNL     1      44.012 -11.963  12.151  1.00  0.00     0.016 A 
HETATM   27  C   UNL     1      44.560 -12.548  11.009  1.00  0.00     0.018 A 
BRANCH  24  28
HETATM   28  O   UNL     1      42.347  -9.011  10.760  1.00  0.00    -0.355 OA
HETATM   29  C   UNL     1      41.117  -9.051  10.046  1.00  0.00     0.210 C 
ENDBRANCH  24  28
BRANCH  25  30
HETATM   30  C   UNL     1      42.705 -10.205  13.291  1.00  0.00     0.013 A 
HETATM   31  C   UNL     1      41.485 -10.444  13.967  1.00  0.00     0.152 A 
HETATM   32  N   UNL     1      41.345  -9.699  15.068  1.00  0.00    -0.187 NA
HETATM   33  N   UNL     1      42.483  -8.990  15.112  1.00  0.00    -0.289 N 
HETATM   34  H   UNL     1      42.617  -8.344  15.882  1.00  0.00     0.188 HD
HETATM   35  C   UNL     1      43.327  -9.252  14.072  1.00  0.00     0.123 A 
ENDBRANCH  25  30
ENDBRANCH   1  22
TORSDOF 9
ENDMDL
MODEL 3
REMARK VINA RESULT:      -8.4      3.410      6.585
REMARK  9 active torsions:
REMARK  status: ('A' for Active; 'I' for Inactive)
REMARK    1  A    between atoms: O_2  and  C_3 
REMARK    2  A    between atoms: C_5  and  C_15 
REMARK    3  A    between atoms: C_8  and  C_9 
REMARK       I    between atoms: C_15  and  N_17 
REMARK    4  A    between atoms: N_17  and  C_18 
REMARK    5  A    between atoms: C_18  and  C_19 
REMARK    6  A    between atoms: C_23  and  C_25 
REMARK       I    between atoms: C_25  and  N_27 
REMARK    7  A    between atoms: N_27  and  C_28 
REMARK    8  A    between atoms: C_28  and  C_29 
REMARK    9  A    between atoms: C_29  and  O_32 
ROOT
HETATM    1  C   UNL     1      43.050 -14.539   3.404  1.00  0.00     0.252 C 
HETATM    2  O   UNL     1      43.955 -13.743   3.180  1.00  0.00    -0.268 OA
HETATM    3  N   UNL     1      41.773 -14.153   3.748  1.00  0.00    -0.353 N 
HETATM    4  H   UNL     1      41.018 -14.820   3.663  1.00  0.00     0.163 HD
ENDROOT
BRANCH   3   5
HETATM    5  C   UNL     1      41.413 -12.755   3.787  1.00  0.00     0.161 C 
BRANCH   5   6
HETATM    6  C   UNL     1      40.238 -12.485   2.883  1.00  0.00    -0.040 A 
HETATM    7  C   UNL     1      39.170 -11.685   3.310  1.00  0.00     0.009 A 
HETATM    8  C   UNL     1      38.092 -11.431   2.459  1.00  0.00     0.002 A 
HETATM    9  C   UNL     1      38.070 -11.980   1.177  1.00  0.00     0.017 A 
HETATM   10  C   UNL     1      39.120 -12.796   0.741  1.00  0.00     0.032 A 
HETATM   11  C   UNL     1      40.206 -13.037   1.591  1.00  0.00     0.026 A 
BRANCH  10  12
HETATM   12  C   UNL     1      39.047 -13.362  -0.634  1.00  0.00     0.251 C 
HETATM   13  O   UNL     1      38.021 -13.916  -1.016  1.00  0.00    -0.268 OA
HETATM   14  N   UNL     1      40.182 -13.258  -1.408  1.00  0.00    -0.354 N 
HETATM   15  H   UNL     1      41.039 -12.892  -1.017  1.00  0.00     0.162 HD
BRANCH  14  16
HETATM   16  C   UNL     1      40.250 -13.809  -2.754  1.00  0.00     0.159 C 
BRANCH  16  17
HETATM   17  C   UNL     1      40.849 -15.233  -2.798  1.00  0.00     0.066 C 
HETATM   18  C   UNL     1      41.190 -15.780  -1.410  1.00  0.00     0.047 C 
HETATM   19  C   UNL     1      39.872 -16.179  -3.500  1.00  0.00     0.047 C 
BRANCH  17  20
HETATM   20  O   UNL     1      42.050 -15.206  -3.585  1.00  0.00    -0.389 OA
HETATM   21  H   UNL     1      41.848 -14.686  -4.383  1.00  0.00     0.210 HD
ENDBRANCH  17  20
ENDBRANCH  16  17
ENDBRANCH  14  16
ENDBRANCH  10  12
ENDBRANCH   5   6
ENDBRANCH   3   5
BRANCH   1  22
HETATM   22  C   UNL     1      43.292 -16.001   3.278  1.00  0.00     0.034 A 
HETATM   23  C   UNL     1      43.174 -16.872   4.371  1.00  0.00     0.054 A 
HETATM   24  C   UNL     1      43.410 -18.246   4.216  1.00  0.00     0.080 A 
HETATM   25  C   UNL     1      43.754 -18.762   2.945  1.00  0.00     0.010 A 
HETATM   26  C   UNL     1      43.896 -17.870   1.867  1.00  0.00     0.016 A 
HETATM   27  C   UNL     1      43.673 -16.502   2.032  1.00  0.00     0.018 A 
BRANCH  24  28
HETATM   28  O   UNL     1      43.275 -19.146   5.245  1.00  0.00    -0.355 OA
HETATM   29  C   UNL     1      43.378 -18.645   6.572  1.00  0.00     0.210 C 
ENDBRANCH  24  28
BRANCH  25  30
HETATM   30  C   UNL     1      43.995 -20.184   2.723  1.00  0.00     0.013 A 
HETATM   31  C   UNL     1      43.558 -21.060   1.701  1.00  0.00     0.152 A 
HETATM   32  N   UNL     1      43.998 -22.311   1.863  1.00  0.00    -0.187 NA
HETATM   33  N   UNL     1      44.735 -22.240   2.982  1.00  0.00    -0.289 N 
HETATM   34  H   UNL     1      45.191 -23.084   3.310  1.00  0.00     0.188 HD
HETATM   35  C   UNL     1      44.762 -20.994   3.537  1.00  0.00     0.123 A 
ENDBRANCH  25  30
ENDBRANCH   1  22
TORSDOF 9
ENDMDL
MODEL 4
REMARK VINA RESULT:      -8.2      2.846      5.825
REMARK  9 active torsions:
REMARK  status: ('A' for Active; 'I' for Inactive)
REMARK    1  A    between atoms: O_2  and  C_3 
REMARK    2  A    between atoms: C_5  and  C_15 
REMARK    3  A    between atoms: C_8  and  C_9 
REMARK       I    between atoms: C_15  and  N_17 
REMARK    4  A    between atoms: N_17  and  C_18 
REMARK    5  A    between atoms: C_18  and  C_19 
REMARK    6  A    between atoms: C_23  and  C_25 
REMARK       I    between atoms: C_25  and  N_27 
REMARK    7  A    between atoms: N_27  and  C_28 
REMARK    8  A    between atoms: C_28  and  C_29 
REMARK    9  A    between atoms: C_29  and  O_32 
ROOT
HETATM    1  C   UNL     1      43.001 -14.595   4.500  1.00  0.00     0.252 C 
HETATM    2  O   UNL     1      43.829 -13.737   4.219  1.00  0.00    -0.268 OA
HETATM    3  N   UNL     1      41.807 -14.317   5.128  1.00  0.00    -0.353 N 
HETATM    4  H   UNL     1      41.064 -15.001   5.098  1.00  0.00     0.163 HD
ENDROOT
BRANCH   3   5
HETATM    5  C   UNL     1      41.434 -12.953   5.422  1.00  0.00     0.161 C 
BRANCH   5   6
HETATM    6  C   UNL     1      40.353 -12.485   4.482  1.00  0.00    -0.040 A 
HETATM    7  C   UNL     1      39.559 -11.373   4.793  1.00  0.00     0.009 A 
HETATM    8  C   UNL     1      38.569 -10.941   3.909  1.00  0.00     0.002 A 
HETATM    9  C   UNL     1      38.361 -11.618   2.707  1.00  0.00     0.017 A 
HETATM   10  C   UNL     1      39.133 -12.742   2.389  1.00  0.00     0.032 A 
HETATM   11  C   UNL     1      40.134 -13.165   3.271  1.00  0.00     0.026 A 
BRANCH  10  12
HETATM   12  C   UNL     1      38.868 -13.434   1.098  1.00  0.00     0.251 C 
HETATM   13  O   UNL     1      37.821 -14.050   0.935  1.00  0.00    -0.268 OA
HETATM   14  N   UNL     1      39.862 -13.368   0.145  1.00  0.00    -0.354 N 
HETATM   15  H   UNL     1      40.753 -12.944   0.360  1.00  0.00     0.162 HD
BRANCH  14  16
HETATM   16  C   UNL     1      39.740 -14.039  -1.142  1.00  0.00     0.159 C 
BRANCH  16  17
HETATM   17  C   UNL     1      40.943 -14.954  -1.466  1.00  0.00     0.066 C 
HETATM   18  C   UNL     1      41.250 -15.954  -0.349  1.00  0.00     0.047 C 
HETATM   19  C   UNL     1      40.679 -15.704  -2.774  1.00  0.00     0.047 C 
BRANCH  17  20
HETATM   20  O   UNL     1      42.104 -14.135  -1.676  1.00  0.00    -0.389 OA
HETATM   21  H   UNL     1      42.840 -14.572  -1.212  1.00  0.00     0.210 HD
ENDBRANCH  17  20
ENDBRANCH  16  17
ENDBRANCH  14  16
ENDBRANCH  10  12
ENDBRANCH   5   6
ENDBRANCH   3   5
BRANCH   1  22
HETATM   22  C   UNL     1      43.244 -16.017   4.135  1.00  0.00     0.034 A 
HETATM   23  C   UNL     1      43.219 -17.045   5.088  1.00  0.00     0.054 A 
HETATM   24  C   UNL     1      43.453 -18.375   4.708  1.00  0.00     0.080 A 
HETATM   25  C   UNL     1      43.699 -18.686   3.351  1.00  0.00     0.010 A 
HETATM   26  C   UNL     1      43.749 -17.639   2.414  1.00  0.00     0.016 A 
HETATM   27  C   UNL     1      43.530 -16.317   2.801  1.00  0.00     0.018 A 
BRANCH  24  28
HETATM   28  O   UNL     1      43.406 -19.423   5.595  1.00  0.00    -0.355 OA
HETATM   29  C   UNL     1      44.109 -19.276   6.822  1.00  0.00     0.210 C 
ENDBRANCH  24  28
BRANCH  25  30
HETATM   30  C   UNL     1      43.933 -20.053   2.896  1.00  0.00     0.013 A 
HETATM   31  C   UNL     1      44.753 -21.084   3.412  1.00  0.00     0.152 A 
HETATM   32  N   UNL     1      44.695 -22.208   2.690  1.00  0.00    -0.187 NA
HETATM   33  N   UNL     1      43.823 -21.907   1.716  1.00  0.00    -0.289 N 
HETATM   34  H   UNL     1      43.603 -22.623   1.032  1.00  0.00     0.188 HD
HETATM   35  C   UNL     1      43.342 -20.632   1.791  1.00  0.00     0.123 A 
ENDBRANCH  25  30
ENDBRANCH   1  22
TORSDOF 9
ENDMDL
MODEL 5
REMARK VINA RESULT:      -8.2      1.692      2.134
REMARK  9 active torsions:
REMARK  status: ('A' for Active; 'I' for Inactive)
REMARK    1  A    between atoms: O_2  and  C_3 
REMARK    2  A    between atoms: C_5  and  C_15 
REMARK    3  A    between atoms: C_8  and  C_9 
REMARK       I    between atoms: C_15  and  N_17 
REMARK    4  A    between atoms: N_17  and  C_18 
REMARK    5  A    between atoms: C_18  and  C_19 
REMARK    6  A    between atoms: C_23  and  C_25 
REMARK       I    between atoms: C_25  and  N_27 
REMARK    7  A    between atoms: N_27  and  C_28 
REMARK    8  A    between atoms: C_28  and  C_29 
REMARK    9  A    between atoms: C_29  and  O_32 
ROOT
HETATM    1  C   UNL     1      43.347 -14.444   3.390  1.00  0.00     0.252 C 
HETATM    2  O   UNL     1      44.332 -13.727   3.515  1.00  0.00    -0.268 OA
HETATM    3  N   UNL     1      42.058 -13.958   3.353  1.00  0.00    -0.353 N 
HETATM    4  H   UNL     1      41.321 -14.547   2.991  1.00  0.00     0.163 HD
ENDROOT
BRANCH   3   5
HETATM    5  C   UNL     1      41.809 -12.536   3.383  1.00  0.00     0.161 C 
BRANCH   5   6
HETATM    6  C   UNL     1      41.006 -12.165   4.604  1.00  0.00    -0.040 A 
HETATM    7  C   UNL     1      39.610 -12.287   4.612  1.00  0.00     0.009 A 
HETATM    8  C   UNL     1      38.877 -11.953   5.751  1.00  0.00     0.002 A 
HETATM    9  C   UNL     1      39.532 -11.488   6.892  1.00  0.00     0.017 A 
HETATM   10  C   UNL     1      40.924 -11.342   6.895  1.00  0.00     0.032 A 
HETATM   11  C   UNL     1      41.658 -11.691   5.755  1.00  0.00     0.026 A 
BRANCH  10  12
HETATM   12  C   UNL     1      41.575 -10.836   8.134  1.00  0.00     0.251 C 
HETATM   13  O   UNL     1      42.620 -10.196   8.062  1.00  0.00    -0.268 OA
HETATM   14  N   UNL     1      40.967 -11.157   9.328  1.00  0.00    -0.354 N 
HETATM   15  H   UNL     1      40.170 -11.777   9.349  1.00  0.00     0.162 HD
BRANCH  14  16
HETATM   16  C   UNL     1      41.529 -10.756  10.611  1.00  0.00     0.159 C 
BRANCH  16  17
HETATM   17  C   UNL     1      40.481 -10.710  11.746  1.00  0.00     0.066 C 
HETATM   18  C   UNL     1      41.047 -10.166  13.059  1.00  0.00     0.047 C 
HETATM   19  C   UNL     1      39.286  -9.862  11.307  1.00  0.00     0.047 C 
BRANCH  17  20
HETATM   20  O   UNL     1      39.992 -12.041  11.978  1.00  0.00    -0.389 OA
HETATM   21  H   UNL     1      40.518 -12.634  11.413  1.00  0.00     0.210 HD
ENDBRANCH  17  20
ENDBRANCH  16  17
ENDBRANCH  14  16
ENDBRANCH  10  12
ENDBRANCH   5   6
ENDBRANCH   3   5
BRANCH   1  22
HETATM   22  C   UNL     1      43.507 -15.916   3.237  1.00  0.00     0.034 A 
HETATM   23  C   UNL     1      43.322 -16.800   4.309  1.00  0.00     0.054 A 
HETATM   24  C   UNL     1      43.483 -18.182   4.128  1.00  0.00     0.080 A 
HETATM   25  C   UNL     1      43.816 -18.691   2.851  1.00  0.00     0.010 A 
HETATM   26  C   UNL     1      44.025 -17.786   1.795  1.00  0.00     0.016 A 
HETATM   27  C   UNL     1      43.878 -16.412   1.986  1.00  0.00     0.018 A 
BRANCH  24  28
HETATM   28  O   UNL     1      43.280 -19.094   5.135  1.00  0.00    -0.355 OA
HETATM   29  C   UNL     1      44.118 -19.002   6.281  1.00  0.00     0.210 C 
ENDBRANCH  24  28
BRANCH  25  30
HETATM   30  C   UNL     1      43.979 -20.120   2.602  1.00  0.00     0.013 A 
HETATM   31  C   UNL     1      44.818 -21.086   3.205  1.00  0.00     0.152 A 
HETATM   32  N   UNL     1      44.672 -22.305   2.678  1.00  0.00    -0.187 NA
HETATM   33  N   UNL     1      43.726 -22.130   1.744  1.00  0.00    -0.289 N 
HETATM   34  H   UNL     1      43.431 -22.935   1.203  1.00  0.00     0.188 HD
HETATM   35  C   UNL     1      43.281 -20.843   1.655  1.00  0.00     0.123 A 
ENDBRANCH  25  30
ENDBRANCH   1  22
TORSDOF 9
ENDMDL
MODEL 6
REMARK VINA RESULT:      -8.0      5.403      8.836
REMARK  9 active torsions:
REMARK  status: ('A' for Active; 'I' for Inactive)
REMARK    1  A    between atoms: O_2  and  C_3 
REMARK    2  A    between atoms: C_5  and  C_15 
REMARK    3  A    between atoms: C_8  and  C_9 
REMARK       I    between atoms: C_15  and  N_17 
REMARK    4  A    between atoms: N_17  and  C_18 
REMARK    5  A    between atoms: C_18  and  C_19 
REMARK    6  A    between atoms: C_23  and  C_25 
REMARK       I    between atoms: C_25  and  N_27 
REMARK    7  A    between atoms: N_27  and  C_28 
REMARK    8  A    between atoms: C_28  and  C_29 
REMARK    9  A    between atoms: C_29  and  O_32 
ROOT
HETATM    1  C   UNL     1      42.696 -14.991   2.240  1.00  0.00     0.252 C 
HETATM    2  O   UNL     1      42.905 -14.125   3.081  1.00  0.00    -0.268 OA
HETATM    3  N   UNL     1      42.138 -14.728   1.008  1.00  0.00    -0.353 N 
HETATM    4  H   UNL     1      42.230 -15.412   0.269  1.00  0.00     0.163 HD
ENDROOT
BRANCH   3   5
HETATM    5  C   UNL     1      41.837 -13.371   0.613  1.00  0.00     0.161 C 
BRANCH   5   6
HETATM    6  C   UNL     1      41.661 -13.282  -0.881  1.00  0.00    -0.040 A 
HETATM    7  C   UNL     1      42.511 -12.485  -1.660  1.00  0.00     0.009 A 
HETATM    8  C   UNL     1      42.346 -12.419  -3.045  1.00  0.00     0.002 A 
HETATM    9  C   UNL     1      41.327 -13.144  -3.663  1.00  0.00     0.017 A 
HETATM   10  C   UNL     1      40.458 -13.931  -2.898  1.00  0.00     0.032 A 
HETATM   11  C   UNL     1      40.634 -14.006  -1.511  1.00  0.00     0.026 A 
BRANCH  10  12
HETATM   12  C   UNL     1      39.384 -14.681  -3.604  1.00  0.00     0.251 C 
HETATM   13  O   UNL     1      39.635 -15.755  -4.140  1.00  0.00    -0.268 OA
HETATM   14  N   UNL     1      38.140 -14.089  -3.645  1.00  0.00    -0.354 N 
HETATM   15  H   UNL     1      38.002 -13.155  -3.286  1.00  0.00     0.162 HD
BRANCH  14  16
HETATM   16  C   UNL     1      37.017 -14.704  -4.340  1.00  0.00     0.159 C 
BRANCH  16  17
HETATM   17  C   UNL     1      36.077 -13.673  -5.005  1.00  0.00     0.066 C 
HETATM   18  C   UNL     1      34.600 -13.921  -4.688  1.00  0.00     0.047 C 
HETATM   19  C   UNL     1      36.470 -12.261  -4.564  1.00  0.00     0.047 C 
BRANCH  17  20
HETATM   20  O   UNL     1      36.254 -13.735  -6.429  1.00  0.00    -0.389 OA
HETATM   21  H   UNL     1      35.379 -13.929  -6.810  1.00  0.00     0.210 HD
ENDBRANCH  17  20
ENDBRANCH  16  17
ENDBRANCH  14  16
ENDBRANCH  10  12
ENDBRANCH   5   6
ENDBRANCH   3   5
BRANCH   1  22
HETATM   22  C   UNL     1      43.077 -16.404   2.509  1.00  0.00     0.034 A 
HETATM   23  C   UNL     1      42.893 -16.998   3.766  1.00  0.00     0.054 A 
HETATM   24  C   UNL     1      43.265 -18.333   3.984  1.00  0.00     0.080 A 
HETATM   25  C   UNL     1      43.812 -19.093   2.925  1.00  0.00     0.010 A 
HETATM   26  C   UNL     1      44.015 -18.472   1.679  1.00  0.00     0.016 A 
HETATM   27  C   UNL     1      43.657 -17.140   1.474  1.00  0.00     0.018 A 
BRANCH  24  28
HETATM   28  O   UNL     1      43.076 -18.972   5.185  1.00  0.00    -0.355 OA
HETATM   29  C   UNL     1      43.423 -18.263   6.368  1.00  0.00     0.210 C 
ENDBRANCH  24  28
BRANCH  25  30
HETATM   30  C   UNL     1      44.202 -20.490   3.090  1.00  0.00     0.013 A 
HETATM   31  C   UNL     1      44.075 -21.606   2.230  1.00  0.00     0.152 A 
HETATM   32  N   UNL     1      44.557 -22.733   2.763  1.00  0.00    -0.187 NA
HETATM   33  N   UNL     1      45.010 -22.341   3.963  1.00  0.00    -0.289 N 
HETATM   34  H   UNL     1      45.440 -23.036   4.564  1.00  0.00     0.188 HD
HETATM   35  C   UNL     1      44.819 -21.013   4.210  1.00  0.00     0.123 A 
ENDBRANCH  25  30
ENDBRANCH   1  22
TORSDOF 9
ENDMDL
MODEL 7
REMARK VINA RESULT:      -7.9      3.667      6.686
REMARK  9 active torsions:
REMARK  status: ('A' for Active; 'I' for Inactive)
REMARK    1  A    between atoms: O_2  and  C_3 
REMARK    2  A    between atoms: C_5  and  C_15 
REMARK    3  A    between atoms: C_8  and  C_9 
REMARK       I    between atoms: C_15  and  N_17 
REMARK    4  A    between atoms: N_17  and  C_18 
REMARK    5  A    between atoms: C_18  and  C_19 
REMARK    6  A    between atoms: C_23  and  C_25 
REMARK       I    between atoms: C_25  and  N_27 
REMARK    7  A    between atoms: N_27  and  C_28 
REMARK    8  A    between atoms: C_28  and  C_29 
REMARK    9  A    between atoms: C_29  and  O_32 
ROOT
HETATM    1  C   UNL     1      40.157 -15.007   3.782  1.00  0.00     0.252 C 
HETATM    2  O   UNL     1      39.842 -14.265   4.704  1.00  0.00    -0.268 OA
HETATM    3  N   UNL     1      40.667 -16.273   3.971  1.00  0.00    -0.353 N 
HETATM    4  H   UNL     1      40.660 -16.927   3.200  1.00  0.00     0.163 HD
ENDROOT
BRANCH   3   5
HETATM    5  C   UNL     1      40.784 -16.826   5.301  1.00  0.00     0.161 C 
BRANCH   5   6
HETATM    6  C   UNL     1      42.214 -16.771   5.773  1.00  0.00    -0.040 A 
HETATM    7  C   UNL     1      42.984 -17.937   5.876  1.00  0.00     0.009 A 
HETATM    8  C   UNL     1      44.311 -17.873   6.303  1.00  0.00     0.002 A 
HETATM    9  C   UNL     1      44.879 -16.644   6.637  1.00  0.00     0.017 A 
HETATM   10  C   UNL     1      44.119 -15.471   6.557  1.00  0.00     0.032 A 
HETATM   11  C   UNL     1      42.792 -15.537   6.115  1.00  0.00     0.026 A 
BRANCH  10  12
HETATM   12  C   UNL     1      44.769 -14.185   6.929  1.00  0.00     0.251 C 
HETATM   13  O   UNL     1      45.586 -13.669   6.174  1.00  0.00    -0.268 OA
HETATM   14  N   UNL     1      44.432 -13.652   8.154  1.00  0.00    -0.354 N 
HETATM   15  H   UNL     1      43.839 -14.164   8.792  1.00  0.00     0.162 HD
BRANCH  14  16
HETATM   16  C   UNL     1      45.031 -12.420   8.650  1.00  0.00     0.159 C 
BRANCH  16  17
HETATM   17  C   UNL     1      44.420 -11.943   9.987  1.00  0.00     0.066 C 
HETATM   18  C   UNL     1      45.397 -11.117  10.828  1.00  0.00     0.047 C 
HETATM   19  C   UNL     1      43.156 -11.126   9.711  1.00  0.00     0.047 C 
BRANCH  17  20
HETATM   20  O   UNL     1      44.022 -13.092  10.750  1.00  0.00    -0.389 OA
HETATM   21  H   UNL     1      43.067 -12.999  10.916  1.00  0.00     0.210 HD
ENDBRANCH  17  20
ENDBRANCH  16  17
ENDBRANCH  14  16
ENDBRANCH  10  12
ENDBRANCH   5   6
ENDBRANCH   3   5
BRANCH   1  22
HETATM   22  C   UNL     1      39.968 -14.571   2.371  1.00  0.00     0.034 A 
HETATM   23  C   UNL     1      41.019 -14.045   1.607  1.00  0.00     0.054 A 
HETATM   24  C   UNL     1      40.803 -13.644   0.280  1.00  0.00     0.080 A 
HETATM   25  C   UNL     1      39.521 -13.786  -0.298  1.00  0.00     0.010 A 
HETATM   26  C   UNL     1      38.473 -14.289   0.492  1.00  0.00     0.016 A 
HETATM   27  C   UNL     1      38.691 -14.673   1.816  1.00  0.00     0.018 A 
BRANCH  24  28
HETATM   28  O   UNL     1      41.805 -13.154  -0.522  1.00  0.00    -0.355 OA
HETATM   29  C   UNL     1      42.324 -11.867  -0.212  1.00  0.00     0.210 C 
ENDBRANCH  24  28
BRANCH  25  30
HETATM   30  C   UNL     1      39.244 -13.400  -1.678  1.00  0.00     0.013 A 
HETATM   31  C   UNL     1      38.935 -12.146  -2.256  1.00  0.00     0.152 A 
HETATM   32  N   UNL     1      38.739 -12.214  -3.576  1.00  0.00    -0.187 NA
HETATM   33  N   UNL     1      38.937 -13.511  -3.854  1.00  0.00    -0.289 N 
HETATM   34  H   UNL     1      38.851 -13.814  -4.819  1.00  0.00     0.188 HD
HETATM   35  C   UNL     1      39.237 -14.263  -2.756  1.00  0.00     0.123 A 
ENDBRANCH  25  30
ENDBRANCH   1  22
TORSDOF 9
ENDMDL
MODEL 8
REMARK VINA RESULT:      -7.9      2.850      6.243
REMARK  9 active torsions:
REMARK  status: ('A' for Active; 'I' for Inactive)
REMARK    1  A    between atoms: O_2  and  C_3 
REMARK    2  A    between atoms: C_5  and  C_15 
REMARK    3  A    between atoms: C_8  and  C_9 
REMARK       I    between atoms: C_15  and  N_17 
REMARK    4  A    between atoms: N_17  and  C_18 
REMARK    5  A    between atoms: C_18  and  C_19 
REMARK    6  A    between atoms: C_23  and  C_25 
REMARK       I    between atoms: C_25  and  N_27 
REMARK    7  A    between atoms: N_27  and  C_28 
REMARK    8  A    between atoms: C_28  and  C_29 
REMARK    9  A    between atoms: C_29  and  O_32 
ROOT
HETATM    1  C   UNL     1      43.602 -15.557   5.971  1.00  0.00     0.252 C 
HETATM    2  O   UNL     1      44.207 -15.189   6.971  1.00  0.00    -0.268 OA
HETATM    3  N   UNL     1      42.733 -14.748   5.273  1.00  0.00    -0.353 N 
HETATM    4  H   UNL     1      42.471 -15.003   4.331  1.00  0.00     0.163 HD
ENDROOT
BRANCH   3   5
HETATM    5  C   UNL     1      42.550 -13.366   5.654  1.00  0.00     0.161 C 
BRANCH   5   6
HETATM    6  C   UNL     1      41.921 -12.586   4.528  1.00  0.00    -0.040 A 
HETATM    7  C   UNL     1      41.009 -11.554   4.789  1.00  0.00     0.009 A 
HETATM    8  C   UNL     1      40.442 -10.829   3.740  1.00  0.00     0.002 A 
HETATM    9  C   UNL     1      40.778 -11.131   2.420  1.00  0.00     0.017 A 
HETATM   10  C   UNL     1      41.673 -12.170   2.141  1.00  0.00     0.032 A 
HETATM   11  C   UNL     1      42.251 -12.887   3.196  1.00  0.00     0.026 A 
BRANCH  10  12
HETATM   12  C   UNL     1      41.995 -12.458   0.716  1.00  0.00     0.251 C 
HETATM   13  O   UNL     1      42.705 -11.687   0.079  1.00  0.00    -0.268 OA
HETATM   14  N   UNL     1      41.430 -13.590   0.170  1.00  0.00    -0.354 N 
HETATM   15  H   UNL     1      40.764 -14.138   0.697  1.00  0.00     0.162 HD
BRANCH  14  16
HETATM   16  C   UNL     1      41.634 -13.957  -1.224  1.00  0.00     0.159 C 
BRANCH  16  17
HETATM   17  C   UNL     1      40.333 -14.392  -1.935  1.00  0.00     0.066 C 
HETATM   18  C   UNL     1      39.072 -13.851  -1.256  1.00  0.00     0.047 C 
HETATM   19  C   UNL     1      40.369 -13.938  -3.396  1.00  0.00     0.047 C 
BRANCH  17  20
HETATM   20  O   UNL     1      40.266 -15.827  -1.941  1.00  0.00    -0.389 OA
HETATM   21  H   UNL     1      39.574 -16.071  -2.581  1.00  0.00     0.210 HD
ENDBRANCH  17  20
ENDBRANCH  16  17
ENDBRANCH  14  16
ENDBRANCH  10  12
ENDBRANCH   5   6
ENDBRANCH   3   5
BRANCH   1  22
HETATM   22  C   UNL     1      43.810 -16.929   5.433  1.00  0.00     0.034 A 
HETATM   23  C   UNL     1      43.624 -17.232   4.077  1.00  0.00     0.054 A 
HETATM   24  C   UNL     1      43.829 -18.537   3.604  1.00  0.00     0.080 A 
HETATM   25  C   UNL     1      44.243 -19.552   4.497  1.00  0.00     0.010 A 
HETATM   26  C   UNL     1      44.396 -19.236   5.859  1.00  0.00     0.016 A 
HETATM   27  C   UNL     1      44.177 -17.939   6.324  1.00  0.00     0.018 A 
BRANCH  24  28
HETATM   28  O   UNL     1      43.694 -18.880   2.281  1.00  0.00    -0.355 OA
HETATM   29  C   UNL     1      43.897 -17.857   1.314  1.00  0.00     0.210 C 
ENDBRANCH  24  28
BRANCH  25  30
HETATM   30  C   UNL     1      44.486 -20.923   4.058  1.00  0.00     0.013 A 
HETATM   31  C   UNL     1      44.434 -21.519   2.777  1.00  0.00     0.152 A 
HETATM   32  N   UNL     1      44.721 -22.824   2.796  1.00  0.00    -0.187 NA
HETATM   33  N   UNL     1      44.976 -23.067   4.090  1.00  0.00    -0.289 N 
HETATM   34  H   UNL     1      45.233 -24.011   4.359  1.00  0.00     0.188 HD
HETATM   35  C   UNL     1      44.846 -21.967   4.887  1.00  0.00     0.123 A 
ENDBRANCH  25  30
ENDBRANCH   1  22
TORSDOF 9
ENDMDL
MODEL 9
REMARK VINA RESULT:      -7.7      1.696      2.079
REMARK  9 active torsions:
REMARK  status: ('A' for Active; 'I' for Inactive)
REMARK    1  A    between atoms: O_2  and  C_3 
REMARK    2  A    between atoms: C_5  and  C_15 
REMARK    3  A    between atoms: C_8  and  C_9 
REMARK       I    between atoms: C_15  and  N_17 
REMARK    4  A    between atoms: N_17  and  C_18 
REMARK    5  A    between atoms: C_18  and  C_19 
REMARK    6  A    between atoms: C_23  and  C_25 
REMARK       I    between atoms: C_25  and  N_27 
REMARK    7  A    between atoms: N_27  and  C_28 
REMARK    8  A    between atoms: C_28  and  C_29 
REMARK    9  A    between atoms: C_29  and  O_32 
ROOT
HETATM    1  C   UNL     1      42.795 -14.034   3.602  1.00  0.00     0.252 C 
HETATM    2  O   UNL     1      43.438 -13.529   2.689  1.00  0.00    -0.268 OA
HETATM    3  N   UNL     1      41.726 -13.412   4.208  1.00  0.00    -0.353 N 
HETATM    4  H   UNL     1      41.081 -13.965   4.757  1.00  0.00     0.163 HD
ENDROOT
BRANCH   3   5
HETATM    5  C   UNL     1      41.253 -12.133   3.730  1.00  0.00     0.161 C 
BRANCH   5   6
HETATM    6  C   UNL     1      40.662 -11.332   4.861  1.00  0.00    -0.040 A 
HETATM    7  C   UNL     1      39.631 -10.410   4.628  1.00  0.00     0.009 A 
HETATM    8  C   UNL     1      39.082  -9.682   5.685  1.00  0.00     0.002 A 
HETATM    9  C   UNL     1      39.561  -9.864   6.982  1.00  0.00     0.017 A 
HETATM   10  C   UNL     1      40.602 -10.766   7.230  1.00  0.00     0.032 A 
HETATM   11  C   UNL     1      41.141 -11.505   6.170  1.00  0.00     0.026 A 
BRANCH  10  12
HETATM   12  C   UNL     1      41.081 -10.920   8.630  1.00  0.00     0.251 C 
HETATM   13  O   UNL     1      40.275 -10.970   9.553  1.00  0.00    -0.268 OA
HETATM   14  N   UNL     1      42.446 -10.961   8.817  1.00  0.00    -0.354 N 
HETATM   15  H   UNL     1      43.076 -10.806   8.042  1.00  0.00     0.162 HD
BRANCH  14  16
HETATM   16  C   UNL     1      43.039 -11.067  10.142  1.00  0.00     0.159 C 
BRANCH  16  17
HETATM   17  C   UNL     1      44.314 -11.941  10.169  1.00  0.00     0.066 C 
HETATM   18  C   UNL     1      45.583 -11.156   9.826  1.00  0.00     0.047 C 
HETATM   19  C   UNL     1      44.464 -12.588  11.548  1.00  0.00     0.047 C 
BRANCH  17  20
HETATM   20  O   UNL     1      44.166 -13.005   9.217  1.00  0.00    -0.389 OA
HETATM   21  H   UNL     1      44.018 -13.820   9.730  1.00  0.00     0.210 HD
ENDBRANCH  17  20
ENDBRANCH  16  17
ENDBRANCH  14  16
ENDBRANCH  10  12
ENDBRANCH   5   6
ENDBRANCH   3   5
BRANCH   1  22
HETATM   22  C   UNL     1      43.133 -15.399   4.088  1.00  0.00     0.034 A 
HETATM   23  C   UNL     1      43.558 -15.636   5.403  1.00  0.00     0.054 A 
HETATM   24  C   UNL     1      43.869 -16.937   5.828  1.00  0.00     0.080 A 
HETATM   25  C   UNL     1      43.737 -18.021   4.930  1.00  0.00     0.010 A 
HETATM   26  C   UNL     1      43.337 -17.760   3.607  1.00  0.00     0.016 A 
HETATM   27  C   UNL     1      43.043 -16.462   3.188  1.00  0.00     0.018 A 
BRANCH  24  28
HETATM   28  O   UNL     1      44.257 -17.228   7.113  1.00  0.00    -0.355 OA
HETATM   29  C   UNL     1      43.322 -16.974   8.155  1.00  0.00     0.210 C 
ENDBRANCH  24  28
BRANCH  25  30
HETATM   30  C   UNL     1      44.032 -19.396   5.321  1.00  0.00     0.013 A 
HETATM   31  C   UNL     1      43.620 -20.160   6.438  1.00  0.00     0.152 A 
HETATM   32  N   UNL     1      44.122 -21.399   6.436  1.00  0.00    -0.187 NA
HETATM   33  N   UNL     1      44.845 -21.440   5.308  1.00  0.00    -0.289 N 
HETATM   34  H   UNL     1      45.327 -22.302   5.078  1.00  0.00     0.188 HD
HETATM   35  C   UNL     1      44.829 -20.269   4.608  1.00  0.00     0.123 A 
ENDBRANCH  25  30
ENDBRANCH   1  22
TORSDOF 9
ENDMDL
MODEL 10
REMARK VINA RESULT:      -7.7      3.049      9.638
REMARK  9 active torsions:
REMARK  status: ('A' for Active; 'I' for Inactive)
REMARK    1  A    between atoms: O_2  and  C_3 
REMARK    2  A    between atoms: C_5  and  C_15 
REMARK    3  A    between atoms: C_8  and  C_9 
REMARK       I    between atoms: C_15  and  N_17 
REMARK    4  A    between atoms: N_17  and  C_18 
REMARK    5  A    between atoms: C_18  and  C_19 
REMARK    6  A    between atoms: C_23  and  C_25 
REMARK       I    between atoms: C_25  and  N_27 
REMARK    7  A    between atoms: N_27  and  C_28 
REMARK    8  A    between atoms: C_28  and  C_29 
REMARK    9  A    between atoms: C_29  and  O_32 
ROOT
HETATM    1  C   UNL     1      41.576  -9.830   7.370  1.00  0.00     0.252 C 
HETATM    2  O   UNL     1      41.954  -8.890   6.681  1.00  0.00    -0.268 OA
HETATM    3  N   UNL     1      40.989 -10.962   6.848  1.00  0.00    -0.353 N 
HETATM    4  H   UNL     1      40.940 -11.798   7.415  1.00  0.00     0.163 HD
ENDROOT
BRANCH   3   5
HETATM    5  C   UNL     1      40.858 -11.129   5.419  1.00  0.00     0.161 C 
BRANCH   5   6
HETATM    6  C   UNL     1      41.715 -12.272   4.940  1.00  0.00    -0.040 A 
HETATM    7  C   UNL     1      42.028 -12.417   3.581  1.00  0.00     0.009 A 
HETATM    8  C   UNL     1      42.833 -13.472   3.149  1.00  0.00     0.002 A 
HETATM    9  C   UNL     1      43.328 -14.396   4.070  1.00  0.00     0.017 A 
HETATM   10  C   UNL     1      43.010 -14.277   5.428  1.00  0.00     0.032 A 
HETATM   11  C   UNL     1      42.214 -13.210   5.860  1.00  0.00     0.026 A 
BRANCH  10  12
HETATM   12  C   UNL     1      43.557 -15.291   6.369  1.00  0.00     0.251 C 
HETATM   13  O   UNL     1      44.704 -15.183   6.790  1.00  0.00    -0.268 OA
HETATM   14  N   UNL     1      42.731 -16.344   6.695  1.00  0.00    -0.354 N 
HETATM   15  H   UNL     1      41.835 -16.454   6.241  1.00  0.00     0.162 HD
BRANCH  14  16
HETATM   16  C   UNL     1      43.165 -17.422   7.573  1.00  0.00     0.159 C 
BRANCH  16  17
HETATM   17  C   UNL     1      43.846 -18.585   6.816  1.00  0.00     0.066 C 
HETATM   18  C   UNL     1      43.733 -19.923   7.551  1.00  0.00     0.047 C 
HETATM   19  C   UNL     1      43.240 -18.712   5.417  1.00  0.00     0.047 C 
BRANCH  17  20
HETATM   20  O   UNL     1      45.238 -18.275   6.646  1.00  0.00    -0.389 OA
HETATM   21  H   UNL     1      45.279 -17.415   6.193  1.00  0.00     0.210 HD
ENDBRANCH  17  20
ENDBRANCH  16  17
ENDBRANCH  14  16
ENDBRANCH  10  12
ENDBRANCH   5   6
ENDBRANCH   3   5
BRANCH   1  22
HETATM   22  C   UNL     1      41.770  -9.802   8.846  1.00  0.00     0.034 A 
HETATM   23  C   UNL     1      42.693 -10.639   9.490  1.00  0.00     0.054 A 
HETATM   24  C   UNL     1      42.849 -10.585  10.884  1.00  0.00     0.080 A 
HETATM   25  C   UNL     1      42.085  -9.670  11.643  1.00  0.00     0.010 A 
HETATM   26  C   UNL     1      41.145  -8.860  10.982  1.00  0.00     0.016 A 
HETATM   27  C   UNL     1      40.984  -8.929   9.598  1.00  0.00     0.018 A 
BRANCH  24  28
HETATM   28  O   UNL     1      43.761 -11.358  11.561  1.00  0.00    -0.355 OA
HETATM   29  C   UNL     1      44.357 -12.440  10.856  1.00  0.00     0.210 C 
ENDBRANCH  24  28
BRANCH  25  30
HETATM   30  C   UNL     1      42.218  -9.561  13.093  1.00  0.00     0.013 A 
HETATM   31  C   UNL     1      41.659 -10.325  14.145  1.00  0.00     0.152 A 
HETATM   32  N   UNL     1      42.026  -9.892  15.355  1.00  0.00    -0.187 NA
HETATM   33  N   UNL     1      42.836  -8.858  15.084  1.00  0.00    -0.289 N 
HETATM   34  H   UNL     1      43.256  -8.361  15.862  1.00  0.00     0.188 HD
HETATM   35  C   UNL     1      42.980  -8.615  13.749  1.00  0.00     0.123 A 
ENDBRANCH  25  30
ENDBRANCH   1  22
TORSDOF 9
ENDMDL
