MODEL 1
REMARK VINA RESULT:      -9.7      0.000      0.000
REMARK  6 active torsions:
REMARK  status: ('A' for Active; 'I' for Inactive)
REMARK    1  A    between atoms: O_2  and  C_3 
REMARK    2  A    between atoms: C_5  and  C_6 
REMARK    3  A    between atoms: C_12  and  C_13 
REMARK       I    between atoms: C_13  and  N_14 
REMARK    4  A    between atoms: N_14  and  C_15 
REMARK    5  A    between atoms: C_15  and  C_16 
REMARK    6  A    between atoms: C_23  and  C_24 
ROOT
HETATM    1  C   UNL     1      42.480 -17.582   5.126  1.00  0.00     0.118 C 
HETATM    2  N   UNL     1      43.333 -16.460   5.501  1.00  0.00    -0.365 N 
HETATM    3  C   UNL     1      42.827 -15.202   5.487  1.00  0.00     0.138 A 
HETATM    4  N   UNL     1      41.670 -14.940   4.781  1.00  0.00    -0.240 N 
HETATM    5  N   UNL     1      41.233 -13.681   4.909  1.00  0.00    -0.181 NA
HETATM    6  C   UNL     1      42.205 -13.090   5.607  1.00  0.00     0.160 A 
HETATM    7  C   UNL     1      43.224 -13.986   6.017  1.00  0.00     0.096 A 
HETATM    8  C   UNL     1      40.898 -15.937   4.057  1.00  0.00     0.221 C 
HETATM    9  C   UNL     1      41.725 -17.220   3.842  1.00  0.00     0.066 C 
HETATM   10  H   UNL     1      44.261 -16.696   5.852  1.00  0.00     0.161 HD
ENDROOT
BRANCH   7  11
HETATM   11  C   UNL     1      44.369 -13.619   6.831  1.00  0.00     0.257 C 
HETATM   12  N   UNL     1      44.083 -13.201   8.110  1.00  0.00    -0.352 N 
HETATM   13  H   UNL     1      43.125 -12.961   8.315  1.00  0.00     0.163 HD
HETATM   14  O   UNL     1      45.509 -13.632   6.379  1.00  0.00    -0.267 OA
BRANCH  12  15
HETATM   15  C   UNL     1      45.122 -12.634   8.933  1.00  0.00     0.161 C 
BRANCH  15  16
HETATM   16  C   UNL     1      44.546 -11.912  10.120  1.00  0.00    -0.041 A 
HETATM   17  C   UNL     1      44.067 -12.637  11.221  1.00  0.00     0.009 A 
HETATM   18  C   UNL     1      43.538 -11.976  12.330  1.00  0.00     0.001 A 
HETATM   19  C   UNL     1      43.472 -10.584  12.344  1.00  0.00     0.000 A 
HETATM   20  C   UNL     1      43.929  -9.854  11.249  1.00  0.00     0.001 A 
HETATM   21  C   UNL     1      44.461 -10.513  10.139  1.00  0.00     0.009 A 
ENDBRANCH  15  16
ENDBRANCH  12  15
ENDBRANCH   7  11
BRANCH   1  22
HETATM   22  C   UNL     1      43.304 -18.847   5.004  1.00  0.00    -0.033 A 
HETATM   23  C   UNL     1      43.741 -19.271   3.733  1.00  0.00     0.046 A 
HETATM   24  C   UNL     1      44.511 -20.428   3.589  1.00  0.00     0.068 A 
HETATM   25  C   UNL     1      44.847 -21.169   4.721  1.00  0.00     0.037 A 
HETATM   26  C   UNL     1      44.409 -20.775   5.984  1.00  0.00     0.003 A 
HETATM   27  C   UNL     1      43.635 -19.624   6.125  1.00  0.00     0.009 A 
BRANCH  24  28
HETATM   28  O   UNL     1      44.994 -20.930   2.412  1.00  0.00    -0.356 OA
HETATM   29  C   UNL     1      44.175 -21.863   1.720  1.00  0.00     0.210 C 
ENDBRANCH  24  28
ENDBRANCH   1  22
BRANCH   8  30
HETATM   30  C   UNL     1      40.416 -15.419   2.717  1.00  0.00     0.409 C 
HETATM   31  F   UNL     1      41.360 -14.702   2.069  1.00  0.00    -0.169 F 
HETATM   32  F   UNL     1      40.112 -16.473   1.910  1.00  0.00    -0.169 F 
HETATM   33  F   UNL     1      39.293 -14.676   2.794  1.00  0.00    -0.169 F 
ENDBRANCH   8  30
TORSDOF 6
ENDMDL
MODEL 2
REMARK VINA RESULT:      -9.7      1.235      1.863
REMARK  6 active torsions:
REMARK  status: ('A' for Active; 'I' for Inactive)
REMARK    1  A    between atoms: O_2  and  C_3 
REMARK    2  A    between atoms: C_5  and  C_6 
REMARK    3  A    between atoms: C_12  and  C_13 
REMARK       I    between atoms: C_13  and  N_14 
REMARK    4  A    between atoms: N_14  and  C_15 
REMARK    5  A    between atoms: C_15  and  C_16 
REMARK    6  A    between atoms: C_23  and  C_24 
ROOT
HETATM    1  C   UNL     1      42.157 -17.471   3.634  1.00  0.00     0.118 C 
HETATM    2  N   UNL     1      42.952 -16.533   4.419  1.00  0.00    -0.365 N 
HETATM    3  C   UNL     1      42.465 -15.293   4.674  1.00  0.00     0.138 A 
HETATM    4  N   UNL     1      41.431 -14.796   3.906  1.00  0.00    -0.240 N 
HETATM    5  N   UNL     1      40.990 -13.596   4.307  1.00  0.00    -0.181 NA
HETATM    6  C   UNL     1      41.849 -13.262   5.272  1.00  0.00     0.160 A 
HETATM    7  C   UNL     1      42.786 -14.285   5.566  1.00  0.00     0.096 A 
HETATM    8  C   UNL     1      40.771 -15.524   2.834  1.00  0.00     0.221 C 
HETATM    9  C   UNL     1      41.611 -16.741   2.401  1.00  0.00     0.066 C 
HETATM   10  H   UNL     1      43.813 -16.900   4.823  1.00  0.00     0.161 HD
ENDROOT
BRANCH   7  11
HETATM   11  C   UNL     1      43.795 -14.206   6.607  1.00  0.00     0.257 C 
HETATM   12  N   UNL     1      43.709 -13.117   7.442  1.00  0.00    -0.352 N 
HETATM   13  H   UNL     1      43.120 -12.354   7.148  1.00  0.00     0.163 HD
HETATM   14  O   UNL     1      44.698 -15.034   6.691  1.00  0.00    -0.267 OA
BRANCH  12  15
HETATM   15  C   UNL     1      44.767 -12.842   8.382  1.00  0.00     0.161 C 
BRANCH  15  16
HETATM   16  C   UNL     1      44.337 -11.831   9.409  1.00  0.00    -0.041 A 
HETATM   17  C   UNL     1      43.198 -11.044   9.187  1.00  0.00     0.009 A 
HETATM   18  C   UNL     1      42.786 -10.109  10.137  1.00  0.00     0.001 A 
HETATM   19  C   UNL     1      43.515  -9.944  11.313  1.00  0.00     0.000 A 
HETATM   20  C   UNL     1      44.658 -10.708  11.537  1.00  0.00     0.001 A 
HETATM   21  C   UNL     1      45.071 -11.646  10.588  1.00  0.00     0.009 A 
ENDBRANCH  15  16
ENDBRANCH  12  15
ENDBRANCH   7  11
BRANCH   1  22
HETATM   22  C   UNL     1      42.980 -18.696   3.294  1.00  0.00    -0.033 A 
HETATM   23  C   UNL     1      43.830 -19.253   4.270  1.00  0.00     0.046 A 
HETATM   24  C   UNL     1      44.596 -20.388   3.991  1.00  0.00     0.068 A 
HETATM   25  C   UNL     1      44.513 -20.972   2.727  1.00  0.00     0.037 A 
HETATM   26  C   UNL     1      43.691 -20.425   1.744  1.00  0.00     0.003 A 
HETATM   27  C   UNL     1      42.934 -19.288   2.023  1.00  0.00     0.009 A 
BRANCH  24  28
HETATM   28  O   UNL     1      45.447 -21.016   4.858  1.00  0.00    -0.356 OA
HETATM   29  C   UNL     1      45.151 -22.367   5.192  1.00  0.00     0.210 C 
ENDBRANCH  24  28
ENDBRANCH   1  22
BRANCH   8  30
HETATM   30  C   UNL     1      40.504 -14.643   1.630  1.00  0.00     0.409 C 
HETATM   31  F   UNL     1      41.542 -13.826   1.346  1.00  0.00    -0.169 F 
HETATM   32  F   UNL     1      40.318 -15.426   0.532  1.00  0.00    -0.169 F 
HETATM   33  F   UNL     1      39.389 -13.893   1.743  1.00  0.00    -0.169 F 
ENDBRANCH   8  30
TORSDOF 6
ENDMDL
MODEL 3
REMARK VINA RESULT:      -8.8      2.207      8.789
REMARK  6 active torsions:
REMARK  status: ('A' for Active; 'I' for Inactive)
REMARK    1  A    between atoms: O_2  and  C_3 
REMARK    2  A    between atoms: C_5  and  C_6 
REMARK    3  A    between atoms: C_12  and  C_13 
REMARK       I    between atoms: C_13  and  N_14 
REMARK    4  A    between atoms: N_14  and  C_15 
REMARK    5  A    between atoms: C_15  and  C_16 
REMARK    6  A    between atoms: C_23  and  C_24 
ROOT
HETATM    1  C   UNL     1      43.231 -12.229   7.120  1.00  0.00     0.118 C 
HETATM    2  N   UNL     1      43.367 -13.677   7.008  1.00  0.00    -0.365 N 
HETATM    3  C   UNL     1      42.798 -14.323   5.959  1.00  0.00     0.138 A 
HETATM    4  N   UNL     1      41.807 -13.697   5.230  1.00  0.00    -0.240 N 
HETATM    5  N   UNL     1      41.383 -14.407   4.177  1.00  0.00    -0.181 NA
HETATM    6  C   UNL     1      42.025 -15.569   4.313  1.00  0.00     0.160 A 
HETATM    7  C   UNL     1      42.940 -15.579   5.395  1.00  0.00     0.096 A 
HETATM    8  C   UNL     1      41.328 -12.345   5.472  1.00  0.00     0.221 C 
HETATM    9  C   UNL     1      41.768 -11.850   6.864  1.00  0.00     0.066 C 
HETATM   10  H   UNL     1      43.975 -14.128   7.690  1.00  0.00     0.161 HD
ENDROOT
BRANCH   7  11
HETATM   11  C   UNL     1      43.806 -16.694   5.734  1.00  0.00     0.257 C 
HETATM   12  N   UNL     1      43.919 -17.675   4.778  1.00  0.00    -0.352 N 
HETATM   13  H   UNL     1      43.240 -17.675   4.032  1.00  0.00     0.163 HD
HETATM   14  O   UNL     1      44.353 -16.773   6.830  1.00  0.00    -0.267 OA
BRANCH  12  15
HETATM   15  C   UNL     1      44.596 -18.911   5.087  1.00  0.00     0.161 C 
BRANCH  15  16
HETATM   16  C   UNL     1      44.385 -19.934   4.006  1.00  0.00    -0.041 A 
HETATM   17  C   UNL     1      44.780 -21.264   4.209  1.00  0.00     0.009 A 
HETATM   18  C   UNL     1      44.580 -22.223   3.214  1.00  0.00     0.001 A 
HETATM   19  C   UNL     1      43.996 -21.858   2.003  1.00  0.00     0.000 A 
HETATM   20  C   UNL     1      43.616 -20.535   1.783  1.00  0.00     0.001 A 
HETATM   21  C   UNL     1      43.811 -19.575   2.778  1.00  0.00     0.009 A 
ENDBRANCH  15  16
ENDBRANCH  12  15
ENDBRANCH   7  11
BRANCH   1  22
HETATM   22  C   UNL     1      43.750 -11.759   8.463  1.00  0.00    -0.033 A 
HETATM   23  C   UNL     1      43.004 -10.823   9.206  1.00  0.00     0.046 A 
HETATM   24  C   UNL     1      43.450 -10.376  10.453  1.00  0.00     0.068 A 
HETATM   25  C   UNL     1      44.652 -10.867  10.962  1.00  0.00     0.037 A 
HETATM   26  C   UNL     1      45.412 -11.780  10.234  1.00  0.00     0.003 A 
HETATM   27  C   UNL     1      44.967 -12.219   8.987  1.00  0.00     0.009 A 
BRANCH  24  28
HETATM   28  O   UNL     1      42.809  -9.479  11.262  1.00  0.00    -0.356 OA
HETATM   29  C   UNL     1      41.543  -9.001  10.824  1.00  0.00     0.210 C 
ENDBRANCH  24  28
ENDBRANCH   1  22
BRANCH   8  30
HETATM   30  C   UNL     1      39.820 -12.249   5.358  1.00  0.00     0.409 C 
HETATM   31  F   UNL     1      39.189 -13.302   5.923  1.00  0.00    -0.169 F 
HETATM   32  F   UNL     1      39.389 -11.140   6.022  1.00  0.00    -0.169 F 
HETATM   33  F   UNL     1      39.379 -12.116   4.091  1.00  0.00    -0.169 F 
ENDBRANCH   8  30
TORSDOF 6
ENDMDL
MODEL 4
REMARK VINA RESULT:      -8.8      4.366      8.361
REMARK  6 active torsions:
REMARK  status: ('A' for Active; 'I' for Inactive)
REMARK    1  A    between atoms: O_2  and  C_3 
REMARK    2  A    between atoms: C_5  and  C_6 
REMARK    3  A    between atoms: C_12  and  C_13 
REMARK       I    between atoms: C_13  and  N_14 
REMARK    4  A    between atoms: N_14  and  C_15 
REMARK    5  A    between atoms: C_15  and  C_16 
REMARK    6  A    between atoms: C_23  and  C_24 
ROOT
HETATM    1  C   UNL     1      43.427 -17.451   3.038  1.00  0.00     0.118 C 
HETATM    2  N   UNL     1      42.697 -17.048   1.841  1.00  0.00    -0.365 N 
HETATM    3  C   UNL     1      42.167 -15.802   1.770  1.00  0.00     0.138 A 
HETATM    4  N   UNL     1      41.987 -15.070   2.927  1.00  0.00    -0.240 N 
HETATM    5  N   UNL     1      41.528 -13.830   2.715  1.00  0.00    -0.181 NA
HETATM    6  C   UNL     1      41.285 -13.815   1.403  1.00  0.00     0.160 A 
HETATM    7  C   UNL     1      41.678 -15.008   0.746  1.00  0.00     0.096 A 
HETATM    8  C   UNL     1      42.364 -15.519   4.258  1.00  0.00     0.221 C 
HETATM    9  C   UNL     1      42.616 -17.040   4.271  1.00  0.00     0.066 C 
HETATM   10  H   UNL     1      42.705 -17.708   1.064  1.00  0.00     0.161 HD
ENDROOT
BRANCH   7  11
HETATM   11  C   UNL     1      41.577 -15.236  -0.684  1.00  0.00     0.257 C 
HETATM   12  N   UNL     1      41.714 -14.122  -1.478  1.00  0.00    -0.352 N 
HETATM   13  H   UNL     1      41.644 -13.222  -1.028  1.00  0.00     0.163 HD
HETATM   14  O   UNL     1      41.329 -16.347  -1.142  1.00  0.00    -0.267 OA
BRANCH  12  15
HETATM   15  C   UNL     1      41.441 -14.204  -2.892  1.00  0.00     0.161 C 
BRANCH  15  16
HETATM   16  C   UNL     1      39.963 -14.284  -3.159  1.00  0.00    -0.041 A 
HETATM   17  C   UNL     1      39.428 -15.393  -3.829  1.00  0.00     0.009 A 
HETATM   18  C   UNL     1      38.056 -15.479  -4.073  1.00  0.00     0.001 A 
HETATM   19  C   UNL     1      37.210 -14.453  -3.660  1.00  0.00     0.000 A 
HETATM   20  C   UNL     1      37.733 -13.338  -3.009  1.00  0.00     0.001 A 
HETATM   21  C   UNL     1      39.104 -13.250  -2.760  1.00  0.00     0.009 A 
ENDBRANCH  15  16
ENDBRANCH  12  15
ENDBRANCH   7  11
BRANCH   1  22
HETATM   22  C   UNL     1      43.736 -18.933   2.986  1.00  0.00    -0.033 A 
HETATM   23  C   UNL     1      44.225 -19.581   4.138  1.00  0.00     0.046 A 
HETATM   24  C   UNL     1      44.511 -20.949   4.126  1.00  0.00     0.068 A 
HETATM   25  C   UNL     1      44.309 -21.676   2.953  1.00  0.00     0.037 A 
HETATM   26  C   UNL     1      43.843 -21.049   1.799  1.00  0.00     0.003 A 
HETATM   27  C   UNL     1      43.565 -19.683   1.813  1.00  0.00     0.009 A 
BRANCH  24  28
HETATM   28  O   UNL     1      44.981 -21.681   5.181  1.00  0.00    -0.356 OA
HETATM   29  C   UNL     1      44.320 -21.517   6.429  1.00  0.00     0.210 C 
ENDBRANCH  24  28
ENDBRANCH   1  22
BRANCH   8  30
HETATM   30  C   UNL     1      41.312 -15.174   5.292  1.00  0.00     0.409 C 
HETATM   31  F   UNL     1      41.314 -16.029   6.338  1.00  0.00    -0.169 F 
HETATM   32  F   UNL     1      41.572 -13.939   5.804  1.00  0.00    -0.169 F 
HETATM   33  F   UNL     1      40.061 -15.111   4.793  1.00  0.00    -0.169 F 
ENDBRANCH   8  30
TORSDOF 6
ENDMDL
MODEL 5
REMARK VINA RESULT:      -8.8      4.618      7.854
REMARK  6 active torsions:
REMARK  status: ('A' for Active; 'I' for Inactive)
REMARK    1  A    between atoms: O_2  and  C_3 
REMARK    2  A    between atoms: C_5  and  C_6 
REMARK    3  A    between atoms: C_12  and  C_13 
REMARK       I    between atoms: C_13  and  N_14 
REMARK    4  A    between atoms: N_14  and  C_15 
REMARK    5  A    between atoms: C_15  and  C_16 
REMARK    6  A    between atoms: C_23  and  C_24 
ROOT
HETATM    1  C   UNL     1      43.125 -16.561   3.177  1.00  0.00     0.118 C 
HETATM    2  N   UNL     1      42.455 -16.099   1.967  1.00  0.00    -0.365 N 
HETATM    3  C   UNL     1      41.859 -14.881   1.956  1.00  0.00     0.138 A 
HETATM    4  N   UNL     1      41.562 -14.256   3.150  1.00  0.00    -0.240 N 
HETATM    5  N   UNL     1      41.048 -13.028   3.004  1.00  0.00    -0.181 NA
HETATM    6  C   UNL     1      40.891 -12.918   1.684  1.00  0.00     0.160 A 
HETATM    7  C   UNL     1      41.395 -14.032   0.965  1.00  0.00     0.096 A 
HETATM    8  C   UNL     1      41.875 -14.792   4.466  1.00  0.00     0.221 C 
HETATM    9  C   UNL     1      42.212 -16.294   4.378  1.00  0.00     0.066 C 
HETATM   10  H   UNL     1      42.551 -16.692   1.143  1.00  0.00     0.161 HD
ENDROOT
BRANCH   7  11
HETATM   11  C   UNL     1      41.402 -14.147  -0.482  1.00  0.00     0.257 C 
HETATM   12  N   UNL     1      42.396 -13.454  -1.132  1.00  0.00    -0.352 N 
HETATM   13  H   UNL     1      42.892 -12.752  -0.604  1.00  0.00     0.163 HD
HETATM   14  O   UNL     1      40.538 -14.779  -1.081  1.00  0.00    -0.267 OA
BRANCH  12  15
HETATM   15  C   UNL     1      42.380 -13.344  -2.570  1.00  0.00     0.161 C 
BRANCH  15  16
HETATM   16  C   UNL     1      42.465 -11.909  -3.009  1.00  0.00    -0.041 A 
HETATM   17  C   UNL     1      42.275 -11.572  -4.357  1.00  0.00     0.009 A 
HETATM   18  C   UNL     1      42.344 -10.242  -4.772  1.00  0.00     0.001 A 
HETATM   19  C   UNL     1      42.614  -9.237  -3.846  1.00  0.00     0.000 A 
HETATM   20  C   UNL     1      42.821  -9.560  -2.506  1.00  0.00     0.001 A 
HETATM   21  C   UNL     1      42.750 -10.891  -2.088  1.00  0.00     0.009 A 
ENDBRANCH  15  16
ENDBRANCH  12  15
ENDBRANCH   7  11
BRANCH   1  22
HETATM   22  C   UNL     1      43.521 -18.015   3.032  1.00  0.00    -0.033 A 
HETATM   23  C   UNL     1      44.187 -18.662   4.091  1.00  0.00     0.046 A 
HETATM   24  C   UNL     1      44.558 -20.006   3.992  1.00  0.00     0.068 A 
HETATM   25  C   UNL     1      44.263 -20.710   2.825  1.00  0.00     0.037 A 
HETATM   26  C   UNL     1      43.620 -20.082   1.760  1.00  0.00     0.003 A 
HETATM   27  C   UNL     1      43.258 -18.739   1.859  1.00  0.00     0.009 A 
BRANCH  24  28
HETATM   28  O   UNL     1      45.199 -20.736   4.954  1.00  0.00    -0.356 OA
HETATM   29  C   UNL     1      44.915 -22.128   5.009  1.00  0.00     0.210 C 
ENDBRANCH  24  28
ENDBRANCH   1  22
BRANCH   8  30
HETATM   30  C   UNL     1      40.739 -14.588   5.447  1.00  0.00     0.409 C 
HETATM   31  F   UNL     1      39.525 -14.693   4.864  1.00  0.00    -0.169 F 
HETATM   32  F   UNL     1      40.792 -15.556   6.404  1.00  0.00    -0.169 F 
HETATM   33  F   UNL     1      40.796 -13.413   6.106  1.00  0.00    -0.169 F 
ENDBRANCH   8  30
TORSDOF 6
ENDMDL
MODEL 6
REMARK VINA RESULT:      -8.4      4.744      8.661
REMARK  6 active torsions:
REMARK  status: ('A' for Active; 'I' for Inactive)
REMARK    1  A    between atoms: O_2  and  C_3 
REMARK    2  A    between atoms: C_5  and  C_6 
REMARK    3  A    between atoms: C_12  and  C_13 
REMARK       I    between atoms: C_13  and  N_14 
REMARK    4  A    between atoms: N_14  and  C_15 
REMARK    5  A    between atoms: C_15  and  C_16 
REMARK    6  A    between atoms: C_23  and  C_24 
ROOT
HETATM    1  C   UNL     1      39.315 -14.112   0.840  1.00  0.00     0.118 C 
HETATM    2  N   UNL     1      40.381 -15.081   1.068  1.00  0.00    -0.365 N 
HETATM    3  C   UNL     1      40.681 -15.458   2.336  1.00  0.00     0.138 A 
HETATM    4  N   UNL     1      40.263 -14.679   3.396  1.00  0.00    -0.240 N 
HETATM    5  N   UNL     1      40.555 -15.199   4.596  1.00  0.00    -0.181 NA
HETATM    6  C   UNL     1      41.292 -16.269   4.293  1.00  0.00     0.160 A 
HETATM    7  C   UNL     1      41.396 -16.502   2.899  1.00  0.00     0.096 A 
HETATM    8  C   UNL     1      39.469 -13.467   3.271  1.00  0.00     0.221 C 
HETATM    9  C   UNL     1      39.490 -12.947   1.820  1.00  0.00     0.066 C 
HETATM   10  H   UNL     1      40.793 -15.504   0.237  1.00  0.00     0.161 HD
ENDROOT
BRANCH   7  11
HETATM   11  C   UNL     1      42.092 -17.626   2.298  1.00  0.00     0.257 C 
HETATM   12  N   UNL     1      43.330 -17.911   2.823  1.00  0.00    -0.352 N 
HETATM   13  H   UNL     1      43.759 -17.208   3.406  1.00  0.00     0.163 HD
HETATM   14  O   UNL     1      41.620 -18.240   1.346  1.00  0.00    -0.267 OA
BRANCH  12  15
HETATM   15  C   UNL     1      44.183 -18.878   2.177  1.00  0.00     0.161 C 
BRANCH  15  16
HETATM   16  C   UNL     1      44.375 -20.098   3.036  1.00  0.00    -0.041 A 
HETATM   17  C   UNL     1      44.577 -19.961   4.417  1.00  0.00     0.009 A 
HETATM   18  C   UNL     1      44.747 -21.087   5.224  1.00  0.00     0.001 A 
HETATM   19  C   UNL     1      44.728 -22.359   4.656  1.00  0.00     0.000 A 
HETATM   20  C   UNL     1      44.545 -22.507   3.282  1.00  0.00     0.001 A 
HETATM   21  C   UNL     1      44.371 -21.381   2.474  1.00  0.00     0.009 A 
ENDBRANCH  15  16
ENDBRANCH  12  15
ENDBRANCH   7  11
BRANCH   1  22
HETATM   22  C   UNL     1      39.303 -13.682  -0.612  1.00  0.00    -0.033 A 
HETATM   23  C   UNL     1      39.645 -14.612  -1.614  1.00  0.00     0.046 A 
HETATM   24  C   UNL     1      39.635 -14.249  -2.964  1.00  0.00     0.068 A 
HETATM   25  C   UNL     1      39.283 -12.947  -3.317  1.00  0.00     0.037 A 
HETATM   26  C   UNL     1      38.959 -12.009  -2.338  1.00  0.00     0.003 A 
HETATM   27  C   UNL     1      38.976 -12.371  -0.992  1.00  0.00     0.009 A 
BRANCH  24  28
HETATM   28  O   UNL     1      39.941 -15.065  -4.017  1.00  0.00    -0.356 OA
HETATM   29  C   UNL     1      39.042 -16.132  -4.293  1.00  0.00     0.210 C 
ENDBRANCH  24  28
ENDBRANCH   1  22
BRANCH   8  30
HETATM   30  C   UNL     1      39.952 -12.374   4.204  1.00  0.00     0.409 C 
HETATM   31  F   UNL     1      41.293 -12.385   4.364  1.00  0.00    -0.169 F 
HETATM   32  F   UNL     1      39.636 -11.159   3.675  1.00  0.00    -0.169 F 
HETATM   33  F   UNL     1      39.375 -12.408   5.422  1.00  0.00    -0.169 F 
ENDBRANCH   8  30
TORSDOF 6
ENDMDL
MODEL 7
REMARK VINA RESULT:      -8.3      2.259      3.019
REMARK  6 active torsions:
REMARK  status: ('A' for Active; 'I' for Inactive)
REMARK    1  A    between atoms: O_2  and  C_3 
REMARK    2  A    between atoms: C_5  and  C_6 
REMARK    3  A    between atoms: C_12  and  C_13 
REMARK       I    between atoms: C_13  and  N_14 
REMARK    4  A    between atoms: N_14  and  C_15 
REMARK    5  A    between atoms: C_15  and  C_16 
REMARK    6  A    between atoms: C_23  and  C_24 
ROOT
HETATM    1  C   UNL     1      41.577 -15.974   5.305  1.00  0.00     0.118 C 
HETATM    2  N   UNL     1      41.434 -14.706   6.011  1.00  0.00    -0.365 N 
HETATM    3  C   UNL     1      40.835 -13.660   5.389  1.00  0.00     0.138 A 
HETATM    4  N   UNL     1      40.707 -13.666   4.015  1.00  0.00    -0.240 N 
HETATM    5  N   UNL     1      40.031 -12.615   3.531  1.00  0.00    -0.181 NA
HETATM    6  C   UNL     1      39.837 -11.854   4.610  1.00  0.00     0.160 A 
HETATM    7  C   UNL     1      40.297 -12.455   5.809  1.00  0.00     0.096 A 
HETATM    8  C   UNL     1      41.140 -14.749   3.147  1.00  0.00     0.221 C 
HETATM    9  C   UNL     1      42.102 -15.696   3.892  1.00  0.00     0.066 C 
HETATM   10  H   UNL     1      41.714 -14.699   6.991  1.00  0.00     0.161 HD
ENDROOT
BRANCH   7  11
HETATM   11  C   UNL     1      40.161 -11.870   7.131  1.00  0.00     0.257 C 
HETATM   12  N   UNL     1      41.266 -11.203   7.605  1.00  0.00    -0.352 N 
HETATM   13  H   UNL     1      42.140 -11.356   7.127  1.00  0.00     0.163 HD
HETATM   14  O   UNL     1      39.141 -12.016   7.797  1.00  0.00    -0.267 OA
BRANCH  12  15
HETATM   15  C   UNL     1      41.305 -10.753   8.975  1.00  0.00     0.161 C 
BRANCH  15  16
HETATM   16  C   UNL     1      42.688 -10.880   9.552  1.00  0.00    -0.041 A 
HETATM   17  C   UNL     1      43.711 -11.477   8.802  1.00  0.00     0.009 A 
HETATM   18  C   UNL     1      45.000 -11.591   9.326  1.00  0.00     0.001 A 
HETATM   19  C   UNL     1      45.274 -11.120  10.608  1.00  0.00     0.000 A 
HETATM   20  C   UNL     1      44.261 -10.539  11.369  1.00  0.00     0.001 A 
HETATM   21  C   UNL     1      42.972 -10.421  10.846  1.00  0.00     0.009 A 
ENDBRANCH  15  16
ENDBRANCH  12  15
ENDBRANCH   7  11
BRANCH   1  22
HETATM   22  C   UNL     1      42.458 -16.916   6.101  1.00  0.00    -0.033 A 
HETATM   23  C   UNL     1      43.046 -18.024   5.458  1.00  0.00     0.046 A 
HETATM   24  C   UNL     1      43.870 -18.907   6.162  1.00  0.00     0.068 A 
HETATM   25  C   UNL     1      44.109 -18.683   7.517  1.00  0.00     0.037 A 
HETATM   26  C   UNL     1      43.522 -17.602   8.173  1.00  0.00     0.003 A 
HETATM   27  C   UNL     1      42.694 -16.727   7.471  1.00  0.00     0.009 A 
BRANCH  24  28
HETATM   28  O   UNL     1      44.497 -20.006   5.644  1.00  0.00    -0.356 OA
HETATM   29  C   UNL     1      44.510 -20.138   4.228  1.00  0.00     0.210 C 
ENDBRANCH  24  28
ENDBRANCH   1  22
BRANCH   8  30
HETATM   30  C   UNL     1      41.814 -14.236   1.891  1.00  0.00     0.409 C 
HETATM   31  F   UNL     1      42.716 -13.263   2.147  1.00  0.00    -0.169 F 
HETATM   32  F   UNL     1      42.501 -15.253   1.301  1.00  0.00    -0.169 F 
HETATM   33  F   UNL     1      40.951 -13.784   0.958  1.00  0.00    -0.169 F 
ENDBRANCH   8  30
TORSDOF 6
ENDMDL
MODEL 8
REMARK VINA RESULT:      -8.3      5.163      9.760
REMARK  6 active torsions:
REMARK  status: ('A' for Active; 'I' for Inactive)
REMARK    1  A    between atoms: O_2  and  C_3 
REMARK    2  A    between atoms: C_5  and  C_6 
REMARK    3  A    between atoms: C_12  and  C_13 
REMARK       I    between atoms: C_13  and  N_14 
REMARK    4  A    between atoms: N_14  and  C_15 
REMARK    5  A    between atoms: C_15  and  C_16 
REMARK    6  A    between atoms: C_23  and  C_24 
ROOT
HETATM    1  C   UNL     1      40.936 -10.351  10.076  1.00  0.00     0.118 C 
HETATM    2  N   UNL     1      42.180 -10.814   9.471  1.00  0.00    -0.365 N 
HETATM    3  C   UNL     1      43.077 -11.495  10.227  1.00  0.00     0.138 A 
HETATM    4  N   UNL     1      43.002 -11.425  11.603  1.00  0.00    -0.240 N 
HETATM    5  N   UNL     1      43.894 -12.201  12.233  1.00  0.00    -0.181 NA
HETATM    6  C   UNL     1      44.642 -12.676  11.235  1.00  0.00     0.160 A 
HETATM    7  C   UNL     1      44.176 -12.291   9.953  1.00  0.00     0.096 A 
HETATM    8  C   UNL     1      41.987 -10.689  12.341  1.00  0.00     0.221 C 
HETATM    9  C   UNL     1      41.258  -9.690  11.421  1.00  0.00     0.066 C 
HETATM   10  H   UNL     1      42.270 -10.680   8.465  1.00  0.00     0.161 HD
ENDROOT
BRANCH   7  11
HETATM   11  C   UNL     1      44.770 -12.713   8.697  1.00  0.00     0.257 C 
HETATM   12  N   UNL     1      43.975 -13.494   7.893  1.00  0.00    -0.352 N 
HETATM   13  H   UNL     1      43.154 -13.903   8.311  1.00  0.00     0.163 HD
HETATM   14  O   UNL     1      45.929 -12.430   8.407  1.00  0.00    -0.267 OA
BRANCH  12  15
HETATM   15  C   UNL     1      44.531 -14.123   6.719  1.00  0.00     0.161 C 
BRANCH  15  16
HETATM   16  C   UNL     1      43.857 -15.436   6.433  1.00  0.00    -0.041 A 
HETATM   17  C   UNL     1      43.628 -16.352   7.470  1.00  0.00     0.009 A 
HETATM   18  C   UNL     1      42.995 -17.569   7.215  1.00  0.00     0.001 A 
HETATM   19  C   UNL     1      42.596 -17.887   5.919  1.00  0.00     0.000 A 
HETATM   20  C   UNL     1      42.833 -16.993   4.876  1.00  0.00     0.001 A 
HETATM   21  C   UNL     1      43.464 -15.773   5.130  1.00  0.00     0.009 A 
ENDBRANCH  15  16
ENDBRANCH  12  15
ENDBRANCH   7  11
BRANCH   1  22
HETATM   22  C   UNL     1      40.198  -9.439   9.118  1.00  0.00    -0.033 A 
HETATM   23  C   UNL     1      39.747  -9.948   7.884  1.00  0.00     0.046 A 
HETATM   24  C   UNL     1      39.055  -9.136   6.981  1.00  0.00     0.068 A 
HETATM   25  C   UNL     1      38.812  -7.803   7.313  1.00  0.00     0.037 A 
HETATM   26  C   UNL     1      39.266  -7.277   8.521  1.00  0.00     0.003 A 
HETATM   27  C   UNL     1      39.962  -8.088   9.416  1.00  0.00     0.009 A 
BRANCH  24  28
HETATM   28  O   UNL     1      38.567  -9.521   5.764  1.00  0.00    -0.356 OA
HETATM   29  C   UNL     1      39.231 -10.595   5.110  1.00  0.00     0.210 C 
ENDBRANCH  24  28
ENDBRANCH   1  22
BRANCH   8  30
HETATM   30  C   UNL     1      42.573  -9.947  13.525  1.00  0.00     0.409 C 
HETATM   31  F   UNL     1      43.836  -9.525  13.299  1.00  0.00    -0.169 F 
HETATM   32  F   UNL     1      41.832  -8.829  13.767  1.00  0.00    -0.169 F 
HETATM   33  F   UNL     1      42.557 -10.656  14.672  1.00  0.00    -0.169 F 
ENDBRANCH   8  30
TORSDOF 6
ENDMDL
MODEL 9
REMARK VINA RESULT:      -8.2      2.378      2.806
REMARK  6 active torsions:
REMARK  status: ('A' for Active; 'I' for Inactive)
REMARK    1  A    between atoms: O_2  and  C_3 
REMARK    2  A    between atoms: C_5  and  C_6 
REMARK    3  A    between atoms: C_12  and  C_13 
REMARK       I    between atoms: C_13  and  N_14 
REMARK    4  A    between atoms: N_14  and  C_15 
REMARK    5  A    between atoms: C_15  and  C_16 
REMARK    6  A    between atoms: C_23  and  C_24 
ROOT
HETATM    1  C   UNL     1      42.135 -17.207   3.709  1.00  0.00     0.118 C 
HETATM    2  N   UNL     1      42.496 -15.952   4.360  1.00  0.00    -0.365 N 
HETATM    3  C   UNL     1      41.803 -14.824   4.066  1.00  0.00     0.138 A 
HETATM    4  N   UNL     1      41.040 -14.773   2.917  1.00  0.00    -0.240 N 
HETATM    5  N   UNL     1      40.346 -13.635   2.780  1.00  0.00    -0.181 NA
HETATM    6  C   UNL     1      40.778 -12.890   3.799  1.00  0.00     0.160 A 
HETATM    7  C   UNL     1      41.676 -13.577   4.654  1.00  0.00     0.096 A 
HETATM    8  C   UNL     1      40.878 -15.873   1.980  1.00  0.00     0.221 C 
HETATM    9  C   UNL     1      41.957 -16.949   2.209  1.00  0.00     0.066 C 
HETATM   10  H   UNL     1      43.205 -16.009   5.090  1.00  0.00     0.161 HD
ENDROOT
BRANCH   7  11
HETATM   11  C   UNL     1      42.253 -13.021   5.865  1.00  0.00     0.257 C 
HETATM   12  N   UNL     1      41.558 -11.980   6.435  1.00  0.00    -0.352 N 
HETATM   13  H   UNL     1      40.849 -11.534   5.873  1.00  0.00     0.163 HD
HETATM   14  O   UNL     1      43.323 -13.424   6.310  1.00  0.00    -0.267 OA
BRANCH  12  15
HETATM   15  C   UNL     1      42.139 -11.234   7.523  1.00  0.00     0.161 C 
BRANCH  15  16
HETATM   16  C   UNL     1      41.082 -10.737   8.471  1.00  0.00    -0.041 A 
HETATM   17  C   UNL     1      41.446 -10.209   9.718  1.00  0.00     0.009 A 
HETATM   18  C   UNL     1      40.472  -9.738  10.600  1.00  0.00     0.001 A 
HETATM   19  C   UNL     1      39.126  -9.802  10.248  1.00  0.00     0.000 A 
HETATM   20  C   UNL     1      38.750 -10.341   9.019  1.00  0.00     0.001 A 
HETATM   21  C   UNL     1      39.723 -10.810   8.133  1.00  0.00     0.009 A 
ENDBRANCH  15  16
ENDBRANCH  12  15
ENDBRANCH   7  11
BRANCH   1  22
HETATM   22  C   UNL     1      43.168 -18.270   4.020  1.00  0.00    -0.033 A 
HETATM   23  C   UNL     1      43.482 -19.238   3.046  1.00  0.00     0.046 A 
HETATM   24  C   UNL     1      44.436 -20.228   3.298  1.00  0.00     0.068 A 
HETATM   25  C   UNL     1      45.082 -20.252   4.534  1.00  0.00     0.037 A 
HETATM   26  C   UNL     1      44.772 -19.313   5.516  1.00  0.00     0.003 A 
HETATM   27  C   UNL     1      43.814 -18.332   5.264  1.00  0.00     0.009 A 
BRANCH  24  28
HETATM   28  O   UNL     1      44.825 -21.210   2.430  1.00  0.00    -0.356 OA
HETATM   29  C   UNL     1      43.824 -21.759   1.582  1.00  0.00     0.210 C 
ENDBRANCH  24  28
ENDBRANCH   1  22
BRANCH   8  30
HETATM   30  C   UNL     1      40.931 -15.405   0.540  1.00  0.00     0.409 C 
HETATM   31  F   UNL     1      39.794 -14.787   0.153  1.00  0.00    -0.169 F 
HETATM   32  F   UNL     1      41.933 -14.492   0.400  1.00  0.00    -0.169 F 
HETATM   33  F   UNL     1      41.204 -16.390  -0.340  1.00  0.00    -0.169 F 
ENDBRANCH   8  30
TORSDOF 6
ENDMDL
MODEL 10
REMARK VINA RESULT:      -8.2      3.607      8.719
REMARK  6 active torsions:
REMARK  status: ('A' for Active; 'I' for Inactive)
REMARK    1  A    between atoms: O_2  and  C_3 
REMARK    2  A    between atoms: C_5  and  C_6 
REMARK    3  A    between atoms: C_12  and  C_13 
REMARK       I    between atoms: C_13  and  N_14 
REMARK    4  A    between atoms: N_14  and  C_15 
REMARK    5  A    between atoms: C_15  and  C_16 
REMARK    6  A    between atoms: C_23  and  C_24 
ROOT
HETATM    1  C   UNL     1      40.560 -12.421   3.373  1.00  0.00     0.118 C 
HETATM    2  N   UNL     1      40.835 -13.768   3.862  1.00  0.00    -0.365 N 
HETATM    3  C   UNL     1      40.712 -14.823   3.017  1.00  0.00     0.138 A 
HETATM    4  N   UNL     1      39.988 -14.681   1.851  1.00  0.00    -0.240 N 
HETATM    5  N   UNL     1      40.007 -15.769   1.069  1.00  0.00    -0.181 NA
HETATM    6  C   UNL     1      40.648 -16.670   1.815  1.00  0.00     0.160 A 
HETATM    7  C   UNL     1      41.134 -16.141   3.038  1.00  0.00     0.096 A 
HETATM    8  C   UNL     1      39.354 -13.448   1.413  1.00  0.00     0.221 C 
HETATM    9  C   UNL     1      39.251 -12.443   2.578  1.00  0.00     0.066 C 
HETATM   10  H   UNL     1      41.204 -13.839   4.809  1.00  0.00     0.161 HD
ENDROOT
BRANCH   7  11
HETATM   11  C   UNL     1      41.912 -16.888   4.010  1.00  0.00     0.257 C 
HETATM   12  N   UNL     1      43.189 -17.221   3.625  1.00  0.00    -0.352 N 
HETATM   13  H   UNL     1      43.415 -17.134   2.645  1.00  0.00     0.163 HD
HETATM   14  O   UNL     1      41.431 -17.243   5.082  1.00  0.00    -0.267 OA
BRANCH  12  15
HETATM   15  C   UNL     1      43.976 -18.121   4.431  1.00  0.00     0.161 C 
BRANCH  15  16
HETATM   16  C   UNL     1      44.095 -19.472   3.783  1.00  0.00    -0.041 A 
HETATM   17  C   UNL     1      44.663 -20.544   4.487  1.00  0.00     0.009 A 
HETATM   18  C   UNL     1      44.770 -21.804   3.896  1.00  0.00     0.001 A 
HETATM   19  C   UNL     1      44.321 -22.001   2.592  1.00  0.00     0.000 A 
HETATM   20  C   UNL     1      43.770 -20.940   1.876  1.00  0.00     0.001 A 
HETATM   21  C   UNL     1      43.659 -19.679   2.466  1.00  0.00     0.009 A 
ENDBRANCH  15  16
ENDBRANCH  12  15
ENDBRANCH   7  11
BRANCH   1  22
HETATM   22  C   UNL     1      40.548 -11.440   4.528  1.00  0.00    -0.033 A 
HETATM   23  C   UNL     1      39.678 -11.658   5.614  1.00  0.00     0.046 A 
HETATM   24  C   UNL     1      39.649 -10.777   6.698  1.00  0.00     0.068 A 
HETATM   25  C   UNL     1      40.496  -9.669   6.698  1.00  0.00     0.037 A 
HETATM   26  C   UNL     1      41.351  -9.428   5.625  1.00  0.00     0.003 A 
HETATM   27  C   UNL     1      41.372 -10.305   4.541  1.00  0.00     0.009 A 
BRANCH  24  28
HETATM   28  O   UNL     1      38.854 -10.890   7.805  1.00  0.00    -0.356 OA
HETATM   29  C   UNL     1      39.421 -11.517   8.949  1.00  0.00     0.210 C 
ENDBRANCH  24  28
ENDBRANCH   1  22
BRANCH   8  30
HETATM   30  C   UNL     1      37.975 -13.692   0.836  1.00  0.00     0.409 C 
HETATM   31  F   UNL     1      37.395 -14.807   1.332  1.00  0.00    -0.169 F 
HETATM   32  F   UNL     1      37.158 -12.653   1.166  1.00  0.00    -0.169 F 
HETATM   33  F   UNL     1      37.955 -13.764  -0.511  1.00  0.00    -0.169 F 
ENDBRANCH   8  30
TORSDOF 6
ENDMDL
