MODEL 1
REMARK VINA RESULT:      -8.7      0.000      0.000
REMARK  9 active torsions:
REMARK  status: ('A' for Active; 'I' for Inactive)
REMARK    1  A    between atoms: C_4  and  N_5 
REMARK    2  A    between atoms: C_6  and  S_7 
REMARK    3  A    between atoms: S_7  and  C_8 
REMARK    4  A    between atoms: C_8  and  C_9 
REMARK       I    between atoms: C_9  and  N_10 
REMARK    5  A    between atoms: N_10  and  C_11 
REMARK    6  A    between atoms: C_12  and  C_13 
REMARK       I    between atoms: C_13  and  N_14 
REMARK    7  A    between atoms: N_14  and  C_15 
REMARK    8  A    between atoms: C_26  and  C_27 
REMARK    9  A    between atoms: C_27  and  N_28 
ROOT
HETATM    1  S   UNL     1      40.574 -15.558   1.695  1.00  0.00    -0.080 SA
ENDROOT
BRANCH   1   2
HETATM    2  C   UNL     1      41.239 -14.151   0.943  1.00  0.00     0.196 C 
HETATM    3  N   UNL     1      40.990 -13.714  -0.348  1.00  0.00    -0.274 N 
HETATM    4  C   UNL     1      41.605 -12.470  -0.384  1.00  0.00     0.161 C 
HETATM    5  N   UNL     1      42.369 -12.313   0.675  1.00  0.00    -0.132 NA
HETATM    6  N   UNL     1      42.145 -13.375   1.496  1.00  0.00    -0.122 NA
BRANCH   3   7
HETATM    7  C   UNL     1      40.314 -14.333  -1.431  1.00  0.00     0.043 A 
HETATM    8  C   UNL     1      40.938 -15.282  -2.243  1.00  0.00     0.030 A 
HETATM    9  C   UNL     1      40.238 -15.851  -3.311  1.00  0.00     0.002 A 
HETATM   10  C   UNL     1      38.923 -15.470  -3.576  1.00  0.00     0.000 A 
HETATM   11  C   UNL     1      38.298 -14.521  -2.773  1.00  0.00     0.002 A 
HETATM   12  C   UNL     1      38.987 -13.953  -1.701  1.00  0.00     0.030 A 
ENDBRANCH   3   7
BRANCH   4  13
HETATM   13  C   UNL     1      41.280 -11.381  -1.339  1.00  0.00     0.315 C 
BRANCH  13  14
HETATM   14  N   UNL     1      42.296 -11.320  -2.459  1.00  0.00    -0.064 N 
HETATM   15  H   UNL     1      43.099 -11.877  -2.125  1.00  0.00     0.280 HD
HETATM   16  C   UNL     1      42.860  -9.931  -2.732  1.00  0.00     0.235 C 
HETATM   17  C   UNL     1      42.400  -9.623  -4.144  1.00  0.00     0.029 C 
HETATM   18  C   UNL     1      42.408 -10.979  -4.819  1.00  0.00     0.029 C 
HETATM   19  C   UNL     1      41.804 -11.886  -3.766  1.00  0.00     0.235 C 
ENDBRANCH  13  14
ENDBRANCH   4  13
ENDBRANCH   1   2
BRANCH   1  20
HETATM   20  C   UNL     1      40.364 -15.011   3.408  1.00  0.00     0.185 C 
BRANCH  20  21
HETATM   21  C   UNL     1      41.561 -15.365   4.283  1.00  0.00     0.231 C 
HETATM   22  N   UNL     1      41.607 -16.704   4.633  1.00  0.00    -0.326 N 
HETATM   23  H   UNL     1      40.761 -17.238   4.470  1.00  0.00     0.169 HD
HETATM   24  O   UNL     1      42.333 -14.504   4.696  1.00  0.00    -0.272 OA
BRANCH  22  25
HETATM   25  C   UNL     1      42.562 -17.313   5.473  1.00  0.00     0.050 A 
HETATM   26  C   UNL     1      43.732 -17.971   5.066  1.00  0.00     0.058 A 
HETATM   27  C   UNL     1      44.635 -18.459   6.028  1.00  0.00     0.019 A 
HETATM   28  C   UNL     1      44.369 -18.317   7.389  1.00  0.00     0.001 A 
HETATM   29  C   UNL     1      43.182 -17.722   7.799  1.00  0.00     0.002 A 
HETATM   30  C   UNL     1      42.281 -17.236   6.848  1.00  0.00     0.030 A 
BRANCH  26  31
HETATM   31  C   UNL     1      44.005 -18.414   3.678  1.00  0.00     0.254 C 
HETATM   32  N   UNL     1      44.194 -19.773   3.553  1.00  0.00    -0.352 N 
HETATM   33  H   UNL     1      44.551 -20.247   4.382  1.00  0.00     0.163 HD
HETATM   34  O   UNL     1      43.944 -17.606   2.755  1.00  0.00    -0.268 OA
BRANCH  32  35
HETATM   35  C   UNL     1      44.310 -20.456   2.307  1.00  0.00     0.084 A 
HETATM   36  C   UNL     1      44.557 -21.934   2.203  1.00  0.00     0.027 A 
HETATM   37  C   UNL     1      43.208 -21.379   1.855  1.00  0.00     0.027 A 
ENDBRANCH  32  35
ENDBRANCH  26  31
ENDBRANCH  22  25
ENDBRANCH  20  21
ENDBRANCH   1  20
TORSDOF 9
ENDMDL
MODEL 2
REMARK VINA RESULT:      -8.6      1.527      3.319
REMARK  9 active torsions:
REMARK  status: ('A' for Active; 'I' for Inactive)
REMARK    1  A    between atoms: C_4  and  N_5 
REMARK    2  A    between atoms: C_6  and  S_7 
REMARK    3  A    between atoms: S_7  and  C_8 
REMARK    4  A    between atoms: C_8  and  C_9 
REMARK       I    between atoms: C_9  and  N_10 
REMARK    5  A    between atoms: N_10  and  C_11 
REMARK    6  A    between atoms: C_12  and  C_13 
REMARK       I    between atoms: C_13  and  N_14 
REMARK    7  A    between atoms: N_14  and  C_15 
REMARK    8  A    between atoms: C_26  and  C_27 
REMARK    9  A    between atoms: C_27  and  N_28 
ROOT
HETATM    1  S   UNL     1      40.435 -15.491   1.445  1.00  0.00    -0.080 SA
ENDROOT
BRANCH   1   2
HETATM    2  C   UNL     1      41.131 -14.102   0.689  1.00  0.00     0.196 C 
HETATM    3  N   UNL     1      40.839 -13.623  -0.577  1.00  0.00    -0.274 N 
HETATM    4  C   UNL     1      41.514 -12.410  -0.620  1.00  0.00     0.161 C 
HETATM    5  N   UNL     1      42.338 -12.316   0.401  1.00  0.00    -0.132 NA
HETATM    6  N   UNL     1      42.103 -13.385   1.211  1.00  0.00    -0.122 NA
BRANCH   3   7
HETATM    7  C   UNL     1      40.078 -14.182  -1.637  1.00  0.00     0.043 A 
HETATM    8  C   UNL     1      38.713 -13.923  -1.779  1.00  0.00     0.030 A 
HETATM    9  C   UNL     1      37.999 -14.511  -2.828  1.00  0.00     0.002 A 
HETATM   10  C   UNL     1      38.641 -15.363  -3.727  1.00  0.00     0.000 A 
HETATM   11  C   UNL     1      40.000 -15.628  -3.586  1.00  0.00     0.002 A 
HETATM   12  C   UNL     1      40.721 -15.039  -2.547  1.00  0.00     0.030 A 
ENDBRANCH   3   7
BRANCH   4  13
HETATM   13  C   UNL     1      41.196 -11.285  -1.534  1.00  0.00     0.315 C 
BRANCH  13  14
HETATM   14  N   UNL     1      42.241 -11.156  -2.621  1.00  0.00    -0.064 N 
HETATM   15  H   UNL     1      43.067 -11.663  -2.261  1.00  0.00     0.280 HD
HETATM   16  C   UNL     1      42.726  -9.734  -2.874  1.00  0.00     0.235 C 
HETATM   17  C   UNL     1      42.292  -9.450  -4.299  1.00  0.00     0.029 C 
HETATM   18  C   UNL     1      42.407 -10.801  -4.975  1.00  0.00     0.029 C 
HETATM   19  C   UNL     1      41.828 -11.748  -3.943  1.00  0.00     0.235 C 
ENDBRANCH  13  14
ENDBRANCH   4  13
ENDBRANCH   1   2
BRANCH   1  20
HETATM   20  C   UNL     1      41.335 -16.847   0.651  1.00  0.00     0.185 C 
BRANCH  20  21
HETATM   21  C   UNL     1      42.550 -17.290   1.457  1.00  0.00     0.231 C 
HETATM   22  N   UNL     1      42.302 -18.393   2.258  1.00  0.00    -0.326 N 
HETATM   23  H   UNL     1      41.328 -18.640   2.392  1.00  0.00     0.169 HD
HETATM   24  O   UNL     1      43.598 -16.651   1.447  1.00  0.00    -0.272 OA
BRANCH  22  25
HETATM   25  C   UNL     1      43.213 -18.995   3.151  1.00  0.00     0.050 A 
HETATM   26  C   UNL     1      43.362 -18.700   4.514  1.00  0.00     0.058 A 
HETATM   27  C   UNL     1      44.261 -19.444   5.301  1.00  0.00     0.019 A 
HETATM   28  C   UNL     1      45.028 -20.462   4.733  1.00  0.00     0.001 A 
HETATM   29  C   UNL     1      44.930 -20.716   3.370  1.00  0.00     0.002 A 
HETATM   30  C   UNL     1      44.040 -19.980   2.584  1.00  0.00     0.030 A 
BRANCH  26  31
HETATM   31  C   UNL     1      42.812 -17.494   5.177  1.00  0.00     0.254 C 
HETATM   32  N   UNL     1      43.761 -16.725   5.815  1.00  0.00    -0.352 N 
HETATM   33  H   UNL     1      44.588 -17.225   6.139  1.00  0.00     0.163 HD
HETATM   34  O   UNL     1      41.626 -17.207   5.037  1.00  0.00    -0.268 OA
BRANCH  32  35
HETATM   35  C   UNL     1      43.506 -15.441   6.381  1.00  0.00     0.084 A 
HETATM   36  C   UNL     1      44.587 -14.571   6.955  1.00  0.00     0.027 A 
HETATM   37  C   UNL     1      43.948 -14.201   5.651  1.00  0.00     0.027 A 
ENDBRANCH  32  35
ENDBRANCH  26  31
ENDBRANCH  22  25
ENDBRANCH  20  21
ENDBRANCH   1  20
TORSDOF 9
ENDMDL
MODEL 3
REMARK VINA RESULT:      -8.5      3.928      6.463
REMARK  9 active torsions:
REMARK  status: ('A' for Active; 'I' for Inactive)
REMARK    1  A    between atoms: C_4  and  N_5 
REMARK    2  A    between atoms: C_6  and  S_7 
REMARK    3  A    between atoms: S_7  and  C_8 
REMARK    4  A    between atoms: C_8  and  C_9 
REMARK       I    between atoms: C_9  and  N_10 
REMARK    5  A    between atoms: N_10  and  C_11 
REMARK    6  A    between atoms: C_12  and  C_13 
REMARK       I    between atoms: C_13  and  N_14 
REMARK    7  A    between atoms: N_14  and  C_15 
REMARK    8  A    between atoms: C_26  and  C_27 
REMARK    9  A    between atoms: C_27  and  N_28 
ROOT
HETATM    1  S   UNL     1      40.695 -11.590   4.538  1.00  0.00    -0.080 SA
ENDROOT
BRANCH   1   2
HETATM    2  C   UNL     1      40.613 -13.314   4.635  1.00  0.00     0.196 C 
HETATM    3  N   UNL     1      40.451 -14.190   3.573  1.00  0.00    -0.274 N 
HETATM    4  C   UNL     1      40.636 -15.434   4.160  1.00  0.00     0.161 C 
HETATM    5  N   UNL     1      40.631 -15.322   5.470  1.00  0.00    -0.132 NA
HETATM    6  N   UNL     1      40.603 -13.992   5.762  1.00  0.00    -0.122 NA
BRANCH   3   7
HETATM    7  C   UNL     1      40.140 -13.958   2.208  1.00  0.00     0.043 A 
HETATM    8  C   UNL     1      41.114 -13.561   1.289  1.00  0.00     0.030 A 
HETATM    9  C   UNL     1      40.757 -13.326  -0.043  1.00  0.00     0.002 A 
HETATM   10  C   UNL     1      39.433 -13.476  -0.456  1.00  0.00     0.000 A 
HETATM   11  C   UNL     1      38.458 -13.866   0.458  1.00  0.00     0.002 A 
HETATM   12  C   UNL     1      38.807 -14.109   1.787  1.00  0.00     0.030 A 
ENDBRANCH   3   7
BRANCH   4  13
HETATM   13  C   UNL     1      41.019 -16.673   3.437  1.00  0.00     0.315 C 
BRANCH  13  14
HETATM   14  N   UNL     1      42.492 -16.972   3.615  1.00  0.00    -0.064 N 
HETATM   15  H   UNL     1      42.788 -16.398   4.422  1.00  0.00     0.280 HD
HETATM   16  C   UNL     1      43.378 -16.521   2.460  1.00  0.00     0.235 C 
HETATM   17  C   UNL     1      43.950 -17.815   1.914  1.00  0.00     0.029 C 
HETATM   18  C   UNL     1      44.087 -18.684   3.147  1.00  0.00     0.029 C 
HETATM   19  C   UNL     1      42.796 -18.421   3.894  1.00  0.00     0.235 C 
ENDBRANCH  13  14
ENDBRANCH   4  13
ENDBRANCH   1   2
BRANCH   1  20
HETATM   20  C   UNL     1      40.378 -11.097   6.251  1.00  0.00     0.185 C 
BRANCH  20  21
HETATM   21  C   UNL     1      41.653 -10.708   6.990  1.00  0.00     0.231 C 
HETATM   22  N   UNL     1      42.237 -11.766   7.667  1.00  0.00    -0.326 N 
HETATM   23  H   UNL     1      41.665 -12.593   7.785  1.00  0.00     0.169 HD
HETATM   24  O   UNL     1      42.040  -9.543   7.037  1.00  0.00    -0.272 OA
BRANCH  22  25
HETATM   25  C   UNL     1      43.390 -11.700   8.478  1.00  0.00     0.050 A 
HETATM   26  C   UNL     1      44.589 -12.399   8.280  1.00  0.00     0.058 A 
HETATM   27  C   UNL     1      45.687 -12.168   9.130  1.00  0.00     0.019 A 
HETATM   28  C   UNL     1      45.588 -11.263  10.187  1.00  0.00     0.001 A 
HETATM   29  C   UNL     1      44.383 -10.614  10.426  1.00  0.00     0.002 A 
HETATM   30  C   UNL     1      43.290 -10.841   9.587  1.00  0.00     0.030 A 
BRANCH  26  31
HETATM   31  C   UNL     1      44.744 -13.560   7.372  1.00  0.00     0.254 C 
HETATM   32  N   UNL     1      43.890 -14.605   7.652  1.00  0.00    -0.352 N 
HETATM   33  H   UNL     1      43.585 -14.678   8.621  1.00  0.00     0.163 HD
HETATM   34  O   UNL     1      45.505 -13.487   6.411  1.00  0.00    -0.268 OA
BRANCH  32  35
HETATM   35  C   UNL     1      43.736 -15.758   6.827  1.00  0.00     0.084 A 
HETATM   36  C   UNL     1      44.657 -16.943   6.896  1.00  0.00     0.027 A 
HETATM   37  C   UNL     1      43.261 -17.053   7.432  1.00  0.00     0.027 A 
ENDBRANCH  32  35
ENDBRANCH  26  31
ENDBRANCH  22  25
ENDBRANCH  20  21
ENDBRANCH   1  20
TORSDOF 9
ENDMDL
MODEL 4
REMARK VINA RESULT:      -8.5      4.670      6.926
REMARK  9 active torsions:
REMARK  status: ('A' for Active; 'I' for Inactive)
REMARK    1  A    between atoms: C_4  and  N_5 
REMARK    2  A    between atoms: C_6  and  S_7 
REMARK    3  A    between atoms: S_7  and  C_8 
REMARK    4  A    between atoms: C_8  and  C_9 
REMARK       I    between atoms: C_9  and  N_10 
REMARK    5  A    between atoms: N_10  and  C_11 
REMARK    6  A    between atoms: C_12  and  C_13 
REMARK       I    between atoms: C_13  and  N_14 
REMARK    7  A    between atoms: N_14  and  C_15 
REMARK    8  A    between atoms: C_26  and  C_27 
REMARK    9  A    between atoms: C_27  and  N_28 
ROOT
HETATM    1  S   UNL     1      41.083 -12.743   6.008  1.00  0.00    -0.080 SA
ENDROOT
BRANCH   1   2
HETATM    2  C   UNL     1      40.446 -13.075   4.436  1.00  0.00     0.196 C 
HETATM    3  N   UNL     1      40.563 -14.266   3.737  1.00  0.00    -0.274 N 
HETATM    4  C   UNL     1      39.734 -14.070   2.640  1.00  0.00     0.161 C 
HETATM    5  N   UNL     1      39.388 -12.804   2.555  1.00  0.00    -0.132 NA
HETATM    6  N   UNL     1      39.848 -12.183   3.676  1.00  0.00    -0.122 NA
BRANCH   3   7
HETATM    7  C   UNL     1      41.335 -15.428   3.992  1.00  0.00     0.043 A 
HETATM    8  C   UNL     1      40.933 -16.391   4.920  1.00  0.00     0.030 A 
HETATM    9  C   UNL     1      41.737 -17.512   5.152  1.00  0.00     0.002 A 
HETATM   10  C   UNL     1      42.942 -17.669   4.468  1.00  0.00     0.000 A 
HETATM   11  C   UNL     1      43.350 -16.710   3.546  1.00  0.00     0.002 A 
HETATM   12  C   UNL     1      42.551 -15.592   3.304  1.00  0.00     0.030 A 
ENDBRANCH   3   7
BRANCH   4  13
HETATM   13  C   UNL     1      39.132 -15.150   1.819  1.00  0.00     0.315 C 
BRANCH  13  14
HETATM   14  N   UNL     1      39.611 -15.072   0.385  1.00  0.00    -0.064 N 
HETATM   15  H   UNL     1      39.356 -15.983  -0.033  1.00  0.00     0.280 HD
HETATM   16  C   UNL     1      41.122 -14.967   0.222  1.00  0.00     0.235 C 
HETATM   17  C   UNL     1      41.323 -13.611  -0.427  1.00  0.00     0.029 C 
HETATM   18  C   UNL     1      40.097 -13.457  -1.303  1.00  0.00     0.029 C 
HETATM   19  C   UNL     1      38.979 -13.962  -0.414  1.00  0.00     0.235 C 
ENDBRANCH  13  14
ENDBRANCH   4  13
ENDBRANCH   1   2
BRANCH   1  20
HETATM   20  C   UNL     1      40.858 -10.951   6.139  1.00  0.00     0.185 C 
BRANCH  20  21
HETATM   21  C   UNL     1      41.693 -10.340   7.259  1.00  0.00     0.231 C 
HETATM   22  N   UNL     1      41.911 -11.210   8.315  1.00  0.00    -0.326 N 
HETATM   23  H   UNL     1      41.332 -12.041   8.338  1.00  0.00     0.169 HD
HETATM   24  O   UNL     1      42.037  -9.162   7.236  1.00  0.00    -0.272 OA
BRANCH  22  25
HETATM   25  C   UNL     1      42.599 -10.912   9.510  1.00  0.00     0.050 A 
HETATM   26  C   UNL     1      43.973 -11.071   9.743  1.00  0.00     0.058 A 
HETATM   27  C   UNL     1      44.533 -10.652  10.964  1.00  0.00     0.019 A 
HETATM   28  C   UNL     1      43.730 -10.097  11.960  1.00  0.00     0.001 A 
HETATM   29  C   UNL     1      42.359  -9.994  11.759  1.00  0.00     0.002 A 
HETATM   30  C   UNL     1      41.797 -10.410  10.550  1.00  0.00     0.030 A 
BRANCH  26  31
HETATM   31  C   UNL     1      44.881 -11.872   8.888  1.00  0.00     0.254 C 
HETATM   32  N   UNL     1      44.321 -13.038   8.415  1.00  0.00    -0.352 N 
HETATM   33  H   UNL     1      43.585 -13.440   8.994  1.00  0.00     0.163 HD
HETATM   34  O   UNL     1      45.982 -11.423   8.578  1.00  0.00    -0.268 OA
BRANCH  32  35
HETATM   35  C   UNL     1      44.934 -13.890   7.449  1.00  0.00     0.084 A 
HETATM   36  C   UNL     1      44.308 -15.168   6.970  1.00  0.00     0.027 A 
HETATM   37  C   UNL     1      44.360 -13.978   6.060  1.00  0.00     0.027 A 
ENDBRANCH  32  35
ENDBRANCH  26  31
ENDBRANCH  22  25
ENDBRANCH  20  21
ENDBRANCH   1  20
TORSDOF 9
ENDMDL
MODEL 5
REMARK VINA RESULT:      -8.5      3.009      5.163
REMARK  9 active torsions:
REMARK  status: ('A' for Active; 'I' for Inactive)
REMARK    1  A    between atoms: C_4  and  N_5 
REMARK    2  A    between atoms: C_6  and  S_7 
REMARK    3  A    between atoms: S_7  and  C_8 
REMARK    4  A    between atoms: C_8  and  C_9 
REMARK       I    between atoms: C_9  and  N_10 
REMARK    5  A    between atoms: N_10  and  C_11 
REMARK    6  A    between atoms: C_12  and  C_13 
REMARK       I    between atoms: C_13  and  N_14 
REMARK    7  A    between atoms: N_14  and  C_15 
REMARK    8  A    between atoms: C_26  and  C_27 
REMARK    9  A    between atoms: C_27  and  N_28 
ROOT
HETATM    1  S   UNL     1      40.057 -12.601   3.709  1.00  0.00    -0.080 SA
ENDROOT
BRANCH   1   2
HETATM    2  C   UNL     1      39.633 -12.554   2.035  1.00  0.00     0.196 C 
HETATM    3  N   UNL     1      39.776 -13.587   1.122  1.00  0.00    -0.274 N 
HETATM    4  C   UNL     1      39.127 -13.103  -0.006  1.00  0.00     0.161 C 
HETATM    5  N   UNL     1      38.874 -11.820   0.134  1.00  0.00    -0.132 NA
HETATM    6  N   UNL     1      39.205 -11.479   1.409  1.00  0.00    -0.122 NA
BRANCH   3   7
HETATM    7  C   UNL     1      40.432 -14.841   1.224  1.00  0.00     0.043 A 
HETATM    8  C   UNL     1      41.701 -15.053   0.681  1.00  0.00     0.030 A 
HETATM    9  C   UNL     1      42.301 -16.312   0.789  1.00  0.00     0.002 A 
HETATM   10  C   UNL     1      41.636 -17.359   1.427  1.00  0.00     0.000 A 
HETATM   11  C   UNL     1      40.368 -17.153   1.964  1.00  0.00     0.002 A 
HETATM   12  C   UNL     1      39.766 -15.899   1.867  1.00  0.00     0.030 A 
ENDBRANCH   3   7
BRANCH   4  13
HETATM   13  C   UNL     1      38.584 -13.939  -1.106  1.00  0.00     0.315 C 
BRANCH  13  14
HETATM   14  N   UNL     1      39.418 -13.794  -2.360  1.00  0.00    -0.064 N 
HETATM   15  H   UNL     1      38.849 -13.210  -2.995  1.00  0.00     0.280 HD
HETATM   16  C   UNL     1      39.658 -15.092  -3.121  1.00  0.00     0.235 C 
HETATM   17  C   UNL     1      41.161 -15.285  -3.046  1.00  0.00     0.029 C 
HETATM   18  C   UNL     1      41.696 -13.868  -3.069  1.00  0.00     0.029 C 
HETATM   19  C   UNL     1      40.754 -13.133  -2.137  1.00  0.00     0.235 C 
ENDBRANCH  13  14
ENDBRANCH   4  13
ENDBRANCH   1   2
BRANCH   1  20
HETATM   20  C   UNL     1      41.797 -12.101   3.676  1.00  0.00     0.185 C 
BRANCH  20  21
HETATM   21  C   UNL     1      42.744 -13.274   3.900  1.00  0.00     0.231 C 
HETATM   22  N   UNL     1      42.357 -14.097   4.945  1.00  0.00    -0.326 N 
HETATM   23  H   UNL     1      41.647 -13.728   5.567  1.00  0.00     0.169 HD
HETATM   24  O   UNL     1      43.787 -13.391   3.263  1.00  0.00    -0.272 OA
BRANCH  22  25
HETATM   25  C   UNL     1      43.058 -15.225   5.420  1.00  0.00     0.050 A 
HETATM   26  C   UNL     1      44.032 -15.237   6.429  1.00  0.00     0.058 A 
HETATM   27  C   UNL     1      44.589 -16.457   6.854  1.00  0.00     0.019 A 
HETATM   28  C   UNL     1      44.200 -17.660   6.266  1.00  0.00     0.001 A 
HETATM   29  C   UNL     1      43.281 -17.648   5.222  1.00  0.00     0.002 A 
HETATM   30  C   UNL     1      42.726 -16.440   4.795  1.00  0.00     0.030 A 
BRANCH  26  31
HETATM   31  C   UNL     1      44.716 -14.029   6.949  1.00  0.00     0.254 C 
HETATM   32  N   UNL     1      44.245 -13.604   8.172  1.00  0.00    -0.352 N 
HETATM   33  H   UNL     1      43.276 -13.841   8.378  1.00  0.00     0.163 HD
HETATM   34  O   UNL     1      45.682 -13.567   6.347  1.00  0.00    -0.268 OA
BRANCH  32  35
HETATM   35  C   UNL     1      44.847 -12.570   8.948  1.00  0.00     0.084 A 
HETATM   36  C   UNL     1      44.128 -11.307   9.327  1.00  0.00     0.027 A 
HETATM   37  C   UNL     1      44.403 -12.348  10.370  1.00  0.00     0.027 A 
ENDBRANCH  32  35
ENDBRANCH  26  31
ENDBRANCH  22  25
ENDBRANCH  20  21
ENDBRANCH   1  20
TORSDOF 9
ENDMDL
MODEL 6
REMARK VINA RESULT:      -8.4      3.499      5.802
REMARK  9 active torsions:
REMARK  status: ('A' for Active; 'I' for Inactive)
REMARK    1  A    between atoms: C_4  and  N_5 
REMARK    2  A    between atoms: C_6  and  S_7 
REMARK    3  A    between atoms: S_7  and  C_8 
REMARK    4  A    between atoms: C_8  and  C_9 
REMARK       I    between atoms: C_9  and  N_10 
REMARK    5  A    between atoms: N_10  and  C_11 
REMARK    6  A    between atoms: C_12  and  C_13 
REMARK       I    between atoms: C_13  and  N_14 
REMARK    7  A    between atoms: N_14  and  C_15 
REMARK    8  A    between atoms: C_26  and  C_27 
REMARK    9  A    between atoms: C_27  and  N_28 
ROOT
HETATM    1  S   UNL     1      40.297 -16.818   1.966  1.00  0.00    -0.080 SA
ENDROOT
BRANCH   1   2
HETATM    2  C   UNL     1      39.729 -15.186   1.960  1.00  0.00     0.196 C 
HETATM    3  N   UNL     1      40.361 -14.095   2.534  1.00  0.00    -0.274 N 
HETATM    4  C   UNL     1      39.601 -13.021   2.090  1.00  0.00     0.161 C 
HETATM    5  N   UNL     1      38.484 -13.452   1.546  1.00  0.00    -0.132 NA
HETATM    6  N   UNL     1      38.565 -14.809   1.479  1.00  0.00    -0.122 NA
BRANCH   3   7
HETATM    7  C   UNL     1      41.485 -14.011   3.396  1.00  0.00     0.043 A 
HETATM    8  C   UNL     1      42.789 -13.940   2.901  1.00  0.00     0.030 A 
HETATM    9  C   UNL     1      43.867 -13.878   3.790  1.00  0.00     0.002 A 
HETATM   10  C   UNL     1      43.649 -13.896   5.167  1.00  0.00     0.000 A 
HETATM   11  C   UNL     1      42.352 -13.972   5.665  1.00  0.00     0.002 A 
HETATM   12  C   UNL     1      41.270 -14.027   4.786  1.00  0.00     0.030 A 
ENDBRANCH   3   7
BRANCH   4  13
HETATM   13  C   UNL     1      40.068 -11.613   2.020  1.00  0.00     0.315 C 
BRANCH  13  14
HETATM   14  N   UNL     1      39.924 -10.925   3.360  1.00  0.00    -0.064 N 
HETATM   15  H   UNL     1      40.632 -11.370   3.968  1.00  0.00     0.280 HD
HETATM   16  C   UNL     1      38.591 -11.164   4.059  1.00  0.00     0.235 C 
HETATM   17  C   UNL     1      37.965  -9.784   4.129  1.00  0.00     0.029 C 
HETATM   18  C   UNL     1      39.159  -8.867   4.294  1.00  0.00     0.029 C 
HETATM   19  C   UNL     1      40.166  -9.439   3.317  1.00  0.00     0.235 C 
ENDBRANCH  13  14
ENDBRANCH   4  13
ENDBRANCH   1   2
BRANCH   1  20
HETATM   20  C   UNL     1      41.675 -16.746   0.795  1.00  0.00     0.185 C 
BRANCH  20  21
HETATM   21  C   UNL     1      42.830 -17.655   1.199  1.00  0.00     0.231 C 
HETATM   22  N   UNL     1      42.440 -18.707   2.011  1.00  0.00    -0.326 N 
HETATM   23  H   UNL     1      41.516 -18.638   2.420  1.00  0.00     0.169 HD
HETATM   24  O   UNL     1      43.992 -17.394   0.896  1.00  0.00    -0.272 OA
BRANCH  22  25
HETATM   25  C   UNL     1      43.291 -19.676   2.583  1.00  0.00     0.050 A 
HETATM   26  C   UNL     1      43.841 -19.646   3.872  1.00  0.00     0.058 A 
HETATM   27  C   UNL     1      44.609 -20.730   4.335  1.00  0.00     0.019 A 
HETATM   28  C   UNL     1      44.851 -21.831   3.515  1.00  0.00     0.001 A 
HETATM   29  C   UNL     1      44.360 -21.840   2.214  1.00  0.00     0.002 A 
HETATM   30  C   UNL     1      43.598 -20.765   1.749  1.00  0.00     0.030 A 
BRANCH  26  31
HETATM   31  C   UNL     1      43.882 -18.444   4.739  1.00  0.00     0.254 C 
HETATM   32  N   UNL     1      44.066 -18.725   6.076  1.00  0.00    -0.352 N 
HETATM   33  H   UNL     1      43.734 -19.638   6.384  1.00  0.00     0.163 HD
HETATM   34  O   UNL     1      43.858 -17.325   4.234  1.00  0.00    -0.268 OA
BRANCH  32  35
HETATM   35  C   UNL     1      44.301 -17.738   7.078  1.00  0.00     0.084 A 
HETATM   36  C   UNL     1      43.202 -16.917   7.690  1.00  0.00     0.027 A 
HETATM   37  C   UNL     1      43.862 -17.995   8.496  1.00  0.00     0.027 A 
ENDBRANCH  32  35
ENDBRANCH  26  31
ENDBRANCH  22  25
ENDBRANCH  20  21
ENDBRANCH   1  20
TORSDOF 9
ENDMDL
MODEL 7
REMARK VINA RESULT:      -8.3      5.642      9.344
REMARK  9 active torsions:
REMARK  status: ('A' for Active; 'I' for Inactive)
REMARK    1  A    between atoms: C_4  and  N_5 
REMARK    2  A    between atoms: C_6  and  S_7 
REMARK    3  A    between atoms: S_7  and  C_8 
REMARK    4  A    between atoms: C_8  and  C_9 
REMARK       I    between atoms: C_9  and  N_10 
REMARK    5  A    between atoms: N_10  and  C_11 
REMARK    6  A    between atoms: C_12  and  C_13 
REMARK       I    between atoms: C_13  and  N_14 
REMARK    7  A    between atoms: N_14  and  C_15 
REMARK    8  A    between atoms: C_26  and  C_27 
REMARK    9  A    between atoms: C_27  and  N_28 
ROOT
HETATM    1  S   UNL     1      40.002 -12.713   6.598  1.00  0.00    -0.080 SA
ENDROOT
BRANCH   1   2
HETATM    2  C   UNL     1      40.284 -13.576   5.128  1.00  0.00     0.196 C 
HETATM    3  N   UNL     1      41.080 -14.700   4.976  1.00  0.00    -0.274 N 
HETATM    4  C   UNL     1      40.818 -15.097   3.671  1.00  0.00     0.161 C 
HETATM    5  N   UNL     1      40.157 -14.155   3.036  1.00  0.00    -0.132 NA
HETATM    6  N   UNL     1      39.836 -13.199   3.951  1.00  0.00    -0.122 NA
BRANCH   3   7
HETATM    7  C   UNL     1      41.987 -15.332   5.865  1.00  0.00     0.043 A 
HETATM    8  C   UNL     1      43.257 -14.807   6.118  1.00  0.00     0.030 A 
HETATM    9  C   UNL     1      44.124 -15.475   6.989  1.00  0.00     0.002 A 
HETATM   10  C   UNL     1      43.733 -16.668   7.597  1.00  0.00     0.000 A 
HETATM   11  C   UNL     1      42.471 -17.198   7.343  1.00  0.00     0.002 A 
HETATM   12  C   UNL     1      41.597 -16.534   6.482  1.00  0.00     0.030 A 
ENDBRANCH   3   7
BRANCH   4  13
HETATM   13  C   UNL     1      41.035 -16.464   3.133  1.00  0.00     0.315 C 
BRANCH  13  14
HETATM   14  N   UNL     1      42.510 -16.739   2.930  1.00  0.00    -0.064 N 
HETATM   15  H   UNL     1      42.996 -16.075   3.555  1.00  0.00     0.280 HD
HETATM   16  C   UNL     1      43.030 -16.426   1.533  1.00  0.00     0.235 C 
HETATM   17  C   UNL     1      43.473 -17.775   0.998  1.00  0.00     0.029 C 
HETATM   18  C   UNL     1      43.971 -18.494   2.236  1.00  0.00     0.029 C 
HETATM   19  C   UNL     1      42.925 -18.146   3.275  1.00  0.00     0.235 C 
ENDBRANCH  13  14
ENDBRANCH   4  13
ENDBRANCH   1   2
BRANCH   1  20
HETATM   20  C   UNL     1      40.596 -11.053   6.184  1.00  0.00     0.185 C 
BRANCH  20  21
HETATM   21  C   UNL     1      41.721 -10.591   7.104  1.00  0.00     0.231 C 
HETATM   22  N   UNL     1      42.191 -11.592   7.938  1.00  0.00    -0.326 N 
HETATM   23  H   UNL     1      41.615 -12.423   8.010  1.00  0.00     0.169 HD
HETATM   24  O   UNL     1      42.081  -9.418   7.141  1.00  0.00    -0.272 OA
BRANCH  22  25
HETATM   25  C   UNL     1      43.186 -11.451   8.929  1.00  0.00     0.050 A 
HETATM   26  C   UNL     1      42.992 -11.023  10.250  1.00  0.00     0.058 A 
HETATM   27  C   UNL     1      44.073 -11.010  11.151  1.00  0.00     0.019 A 
HETATM   28  C   UNL     1      45.346 -11.398  10.738  1.00  0.00     0.001 A 
HETATM   29  C   UNL     1      45.558 -11.764   9.413  1.00  0.00     0.002 A 
HETATM   30  C   UNL     1      44.489 -11.777   8.514  1.00  0.00     0.030 A 
BRANCH  26  31
HETATM   31  C   UNL     1      41.768 -10.346  10.742  1.00  0.00     0.254 C 
HETATM   32  N   UNL     1      42.016  -9.215  11.488  1.00  0.00    -0.352 N 
HETATM   33  H   UNL     1      42.911  -9.196  11.976  1.00  0.00     0.163 HD
HETATM   34  O   UNL     1      40.663 -10.748  10.386  1.00  0.00    -0.268 OA
BRANCH  32  35
HETATM   35  C   UNL     1      41.009  -8.308  11.931  1.00  0.00     0.084 A 
HETATM   36  C   UNL     1      39.986  -8.666  12.972  1.00  0.00     0.027 A 
HETATM   37  C   UNL     1      41.093  -7.714  13.313  1.00  0.00     0.027 A 
ENDBRANCH  32  35
ENDBRANCH  26  31
ENDBRANCH  22  25
ENDBRANCH  20  21
ENDBRANCH   1  20
TORSDOF 9
ENDMDL
MODEL 8
REMARK VINA RESULT:      -8.1      1.826      2.696
REMARK  9 active torsions:
REMARK  status: ('A' for Active; 'I' for Inactive)
REMARK    1  A    between atoms: C_4  and  N_5 
REMARK    2  A    between atoms: C_6  and  S_7 
REMARK    3  A    between atoms: S_7  and  C_8 
REMARK    4  A    between atoms: C_8  and  C_9 
REMARK       I    between atoms: C_9  and  N_10 
REMARK    5  A    between atoms: N_10  and  C_11 
REMARK    6  A    between atoms: C_12  and  C_13 
REMARK       I    between atoms: C_13  and  N_14 
REMARK    7  A    between atoms: N_14  and  C_15 
REMARK    8  A    between atoms: C_26  and  C_27 
REMARK    9  A    between atoms: C_27  and  N_28 
ROOT
HETATM    1  S   UNL     1      41.297 -12.560   3.483  1.00  0.00    -0.080 SA
ENDROOT
BRANCH   1   2
HETATM    2  C   UNL     1      40.623 -12.407   1.899  1.00  0.00     0.196 C 
HETATM    3  N   UNL     1      40.316 -13.445   1.034  1.00  0.00    -0.274 N 
HETATM    4  C   UNL     1      39.644 -12.806   0.001  1.00  0.00     0.161 C 
HETATM    5  N   UNL     1      39.784 -11.503   0.109  1.00  0.00    -0.132 NA
HETATM    6  N   UNL     1      40.409 -11.260   1.293  1.00  0.00    -0.122 NA
BRANCH   3   7
HETATM    7  C   UNL     1      40.607 -14.832   1.096  1.00  0.00     0.043 A 
HETATM    8  C   UNL     1      41.604 -15.412   0.309  1.00  0.00     0.030 A 
HETATM    9  C   UNL     1      41.842 -16.788   0.391  1.00  0.00     0.002 A 
HETATM   10  C   UNL     1      41.083 -17.586   1.247  1.00  0.00     0.000 A 
HETATM   11  C   UNL     1      40.084 -17.014   2.029  1.00  0.00     0.002 A 
HETATM   12  C   UNL     1      39.845 -15.641   1.959  1.00  0.00     0.030 A 
ENDBRANCH   3   7
BRANCH   4  13
HETATM   13  C   UNL     1      38.711 -13.463  -0.949  1.00  0.00     0.315 C 
BRANCH  13  14
HETATM   14  N   UNL     1      39.234 -13.381  -2.367  1.00  0.00    -0.064 N 
HETATM   15  H   UNL     1      38.739 -14.130  -2.880  1.00  0.00     0.280 HD
HETATM   16  C   UNL     1      40.714 -13.703  -2.521  1.00  0.00     0.235 C 
HETATM   17  C   UNL     1      41.320 -12.406  -3.022  1.00  0.00     0.029 C 
HETATM   18  C   UNL     1      40.217 -11.812  -3.874  1.00  0.00     0.029 C 
HETATM   19  C   UNL     1      38.974 -12.059  -3.042  1.00  0.00     0.235 C 
ENDBRANCH  13  14
ENDBRANCH   4  13
ENDBRANCH   1   2
BRANCH   1  20
HETATM   20  C   UNL     1      42.917 -13.292   3.138  1.00  0.00     0.185 C 
BRANCH  20  21
HETATM   21  C   UNL     1      43.373 -14.240   4.241  1.00  0.00     0.231 C 
HETATM   22  N   UNL     1      42.800 -15.498   4.153  1.00  0.00    -0.326 N 
HETATM   23  H   UNL     1      42.004 -15.585   3.533  1.00  0.00     0.169 HD
HETATM   24  O   UNL     1      44.101 -13.862   5.155  1.00  0.00    -0.272 OA
BRANCH  22  25
HETATM   25  C   UNL     1      42.989 -16.564   5.058  1.00  0.00     0.050 A 
HETATM   26  C   UNL     1      43.632 -17.781   4.790  1.00  0.00     0.058 A 
HETATM   27  C   UNL     1      43.818 -18.721   5.821  1.00  0.00     0.019 A 
HETATM   28  C   UNL     1      43.347 -18.465   7.108  1.00  0.00     0.001 A 
HETATM   29  C   UNL     1      42.653 -17.288   7.365  1.00  0.00     0.002 A 
HETATM   30  C   UNL     1      42.464 -16.353   6.345  1.00  0.00     0.030 A 
BRANCH  26  31
HETATM   31  C   UNL     1      43.945 -18.283   3.431  1.00  0.00     0.254 C 
HETATM   32  N   UNL     1      43.696 -19.628   3.261  1.00  0.00    -0.352 N 
HETATM   33  H   UNL     1      43.753 -20.196   4.105  1.00  0.00     0.163 HD
HETATM   34  O   UNL     1      44.286 -17.496   2.552  1.00  0.00    -0.268 OA
BRANCH  32  35
HETATM   35  C   UNL     1      43.762 -20.305   2.008  1.00  0.00     0.084 A 
HETATM   36  C   UNL     1      44.502 -21.597   1.814  1.00  0.00     0.027 A 
HETATM   37  C   UNL     1      43.002 -21.590   1.812  1.00  0.00     0.027 A 
ENDBRANCH  32  35
ENDBRANCH  26  31
ENDBRANCH  22  25
ENDBRANCH  20  21
ENDBRANCH   1  20
TORSDOF 9
ENDMDL
MODEL 9
REMARK VINA RESULT:      -8.1      1.818      3.588
REMARK  9 active torsions:
REMARK  status: ('A' for Active; 'I' for Inactive)
REMARK    1  A    between atoms: C_4  and  N_5 
REMARK    2  A    between atoms: C_6  and  S_7 
REMARK    3  A    between atoms: S_7  and  C_8 
REMARK    4  A    between atoms: C_8  and  C_9 
REMARK       I    between atoms: C_9  and  N_10 
REMARK    5  A    between atoms: N_10  and  C_11 
REMARK    6  A    between atoms: C_12  and  C_13 
REMARK       I    between atoms: C_13  and  N_14 
REMARK    7  A    between atoms: N_14  and  C_15 
REMARK    8  A    between atoms: C_26  and  C_27 
REMARK    9  A    between atoms: C_27  and  N_28 
ROOT
HETATM    1  S   UNL     1      40.492 -12.848   0.990  1.00  0.00    -0.080 SA
ENDROOT
BRANCH   1   2
HETATM    2  C   UNL     1      41.603 -12.359  -0.240  1.00  0.00     0.196 C 
HETATM    3  N   UNL     1      41.546 -12.701  -1.582  1.00  0.00    -0.274 N 
HETATM    4  C   UNL     1      42.537 -11.913  -2.150  1.00  0.00     0.161 C 
HETATM    5  N   UNL     1      43.282 -11.375  -1.210  1.00  0.00    -0.132 NA
HETATM    6  N   UNL     1      42.699 -11.668  -0.015  1.00  0.00    -0.122 NA
BRANCH   3   7
HETATM    7  C   UNL     1      40.732 -13.634  -2.276  1.00  0.00     0.043 A 
HETATM    8  C   UNL     1      39.454 -13.301  -2.730  1.00  0.00     0.030 A 
HETATM    9  C   UNL     1      38.682 -14.260  -3.393  1.00  0.00     0.002 A 
HETATM   10  C   UNL     1      39.175 -15.549  -3.595  1.00  0.00     0.000 A 
HETATM   11  C   UNL     1      40.446 -15.886  -3.139  1.00  0.00     0.002 A 
HETATM   12  C   UNL     1      41.227 -14.934  -2.483  1.00  0.00     0.030 A 
ENDBRANCH   3   7
BRANCH   4  13
HETATM   13  C   UNL     1      42.614 -11.536  -3.584  1.00  0.00     0.315 C 
BRANCH  13  14
HETATM   14  N   UNL     1      42.238 -10.084  -3.785  1.00  0.00    -0.064 N 
HETATM   15  H   UNL     1      42.851  -9.556  -3.141  1.00  0.00     0.280 HD
HETATM   16  C   UNL     1      40.818  -9.729  -3.363  1.00  0.00     0.235 C 
HETATM   17  C   UNL     1      40.151  -9.300  -4.656  1.00  0.00     0.029 C 
HETATM   18  C   UNL     1      41.277  -8.646  -5.430  1.00  0.00     0.029 C 
HETATM   19  C   UNL     1      42.443  -9.584  -5.191  1.00  0.00     0.235 C 
ENDBRANCH  13  14
ENDBRANCH   4  13
ENDBRANCH   1   2
BRANCH   1  20
HETATM   20  C   UNL     1      41.521 -12.787   2.478  1.00  0.00     0.185 C 
BRANCH  20  21
HETATM   21  C   UNL     1      42.460 -13.982   2.586  1.00  0.00     0.231 C 
HETATM   22  N   UNL     1      41.853 -15.186   2.268  1.00  0.00    -0.326 N 
HETATM   23  H   UNL     1      40.841 -15.178   2.221  1.00  0.00     0.169 HD
HETATM   24  O   UNL     1      43.607 -13.864   3.009  1.00  0.00    -0.272 OA
BRANCH  22  25
HETATM   25  C   UNL     1      42.453 -16.462   2.327  1.00  0.00     0.050 A 
HETATM   26  C   UNL     1      42.384 -17.366   3.396  1.00  0.00     0.058 A 
HETATM   27  C   UNL     1      42.967 -18.641   3.278  1.00  0.00     0.019 A 
HETATM   28  C   UNL     1      43.636 -19.010   2.111  1.00  0.00     0.001 A 
HETATM   29  C   UNL     1      43.762 -18.096   1.072  1.00  0.00     0.002 A 
HETATM   30  C   UNL     1      43.186 -16.828   1.185  1.00  0.00     0.030 A 
BRANCH  26  31
HETATM   31  C   UNL     1      41.938 -17.014   4.766  1.00  0.00     0.254 C 
HETATM   32  N   UNL     1      42.725 -17.547   5.763  1.00  0.00    -0.352 N 
HETATM   33  H   UNL     1      43.210 -18.412   5.528  1.00  0.00     0.163 HD
HETATM   34  O   UNL     1      41.010 -16.225   4.922  1.00  0.00    -0.268 OA
BRANCH  32  35
HETATM   35  C   UNL     1      42.598 -17.221   7.146  1.00  0.00     0.084 A 
HETATM   36  C   UNL     1      43.521 -17.760   8.202  1.00  0.00     0.027 A 
HETATM   37  C   UNL     1      43.612 -16.319   7.797  1.00  0.00     0.027 A 
ENDBRANCH  32  35
ENDBRANCH  26  31
ENDBRANCH  22  25
ENDBRANCH  20  21
ENDBRANCH   1  20
TORSDOF 9
ENDMDL
MODEL 10
REMARK VINA RESULT:      -8.1      1.537      2.020
REMARK  9 active torsions:
REMARK  status: ('A' for Active; 'I' for Inactive)
REMARK    1  A    between atoms: C_4  and  N_5 
REMARK    2  A    between atoms: C_6  and  S_7 
REMARK    3  A    between atoms: S_7  and  C_8 
REMARK    4  A    between atoms: C_8  and  C_9 
REMARK       I    between atoms: C_9  and  N_10 
REMARK    5  A    between atoms: N_10  and  C_11 
REMARK    6  A    between atoms: C_12  and  C_13 
REMARK       I    between atoms: C_13  and  N_14 
REMARK    7  A    between atoms: N_14  and  C_15 
REMARK    8  A    between atoms: C_26  and  C_27 
REMARK    9  A    between atoms: C_27  and  N_28 
ROOT
HETATM    1  S   UNL     1      40.706 -15.390   1.522  1.00  0.00    -0.080 SA
ENDROOT
BRANCH   1   2
HETATM    2  C   UNL     1      41.348 -13.990   0.738  1.00  0.00     0.196 C 
HETATM    3  N   UNL     1      41.046 -13.556  -0.543  1.00  0.00    -0.274 N 
HETATM    4  C   UNL     1      41.669 -12.317  -0.610  1.00  0.00     0.161 C 
HETATM    5  N   UNL     1      42.479 -12.162   0.414  1.00  0.00    -0.132 NA
HETATM    6  N   UNL     1      42.283 -13.220   1.248  1.00  0.00    -0.122 NA
BRANCH   3   7
HETATM    7  C   UNL     1      40.319 -14.173  -1.594  1.00  0.00     0.043 A 
HETATM    8  C   UNL     1      39.003 -13.812  -1.889  1.00  0.00     0.030 A 
HETATM    9  C   UNL     1      38.319 -14.462  -2.922  1.00  0.00     0.002 A 
HETATM   10  C   UNL     1      38.941 -15.474  -3.653  1.00  0.00     0.000 A 
HETATM   11  C   UNL     1      40.251 -15.841  -3.358  1.00  0.00     0.002 A 
HETATM   12  C   UNL     1      40.943 -15.193  -2.334  1.00  0.00     0.030 A 
ENDBRANCH   3   7
BRANCH   4  13
HETATM   13  C   UNL     1      41.310 -11.228  -1.554  1.00  0.00     0.315 C 
BRANCH  13  14
HETATM   14  N   UNL     1      42.315 -11.135  -2.682  1.00  0.00    -0.064 N 
HETATM   15  H   UNL     1      43.145 -11.650  -2.346  1.00  0.00     0.280 HD
HETATM   16  C   UNL     1      42.812  -9.726  -2.979  1.00  0.00     0.235 C 
HETATM   17  C   UNL     1      42.328  -9.460  -4.391  1.00  0.00     0.029 C 
HETATM   18  C   UNL     1      42.396 -10.824  -5.047  1.00  0.00     0.029 C 
HETATM   19  C   UNL     1      41.842 -11.743  -3.977  1.00  0.00     0.235 C 
ENDBRANCH  13  14
ENDBRANCH   4  13
ENDBRANCH   1   2
BRANCH   1  20
HETATM   20  C   UNL     1      39.736 -14.662   2.866  1.00  0.00     0.185 C 
BRANCH  20  21
HETATM   21  C   UNL     1      40.456 -14.733   4.208  1.00  0.00     0.231 C 
HETATM   22  N   UNL     1      41.836 -14.748   4.089  1.00  0.00    -0.326 N 
HETATM   23  H   UNL     1      42.203 -14.931   3.162  1.00  0.00     0.169 HD
HETATM   24  O   UNL     1      39.840 -14.862   5.263  1.00  0.00    -0.272 OA
BRANCH  22  25
HETATM   25  C   UNL     1      42.761 -14.863   5.147  1.00  0.00     0.050 A 
HETATM   26  C   UNL     1      43.413 -16.033   5.561  1.00  0.00     0.058 A 
HETATM   27  C   UNL     1      44.377 -15.977   6.585  1.00  0.00     0.019 A 
HETATM   28  C   UNL     1      44.678 -14.768   7.212  1.00  0.00     0.001 A 
HETATM   29  C   UNL     1      43.990 -13.616   6.848  1.00  0.00     0.002 A 
HETATM   30  C   UNL     1      43.031 -13.666   5.834  1.00  0.00     0.030 A 
BRANCH  26  31
HETATM   31  C   UNL     1      43.008 -17.404   5.168  1.00  0.00     0.254 C 
HETATM   32  N   UNL     1      43.377 -17.749   3.886  1.00  0.00    -0.352 N 
HETATM   33  H   UNL     1      43.472 -16.975   3.231  1.00  0.00     0.163 HD
HETATM   34  O   UNL     1      42.491 -18.149   5.996  1.00  0.00    -0.268 OA
BRANCH  32  35
HETATM   35  C   UNL     1      43.245 -19.060   3.339  1.00  0.00     0.084 A 
HETATM   36  C   UNL     1      43.689 -19.414   1.948  1.00  0.00     0.027 A 
HETATM   37  C   UNL     1      44.471 -19.908   3.128  1.00  0.00     0.027 A 
ENDBRANCH  32  35
ENDBRANCH  26  31
ENDBRANCH  22  25
ENDBRANCH  20  21
ENDBRANCH   1  20
TORSDOF 9
ENDMDL
