MODEL 1
REMARK VINA RESULT:      -9.4      0.000      0.000
REMARK  4 active torsions:
REMARK  status: ('A' for Active; 'I' for Inactive)
REMARK    1  A    between atoms: C_9  and  C_10 
REMARK    2  A    between atoms: C_10  and  C_11 
REMARK       I    between atoms: C_11  and  N_12 
REMARK    3  A    between atoms: N_12  and  C_13 
REMARK    4  A    between atoms: C_20  and  C_21 
REMARK       I    between atoms: C_21  and  N_22 
ROOT
HETATM    1  C   UNL     1      40.828 -14.231   1.946  1.00  0.00     0.035 A 
HETATM    2  C   UNL     1      40.772 -13.871   3.299  1.00  0.00     0.046 A 
HETATM    3  C   UNL     1      39.836 -12.903   3.724  1.00  0.00     0.030 A 
HETATM    4  C   UNL     1      38.969 -12.352   2.788  1.00  0.00     0.063 A 
HETATM    5  N   UNL     1      38.192 -11.472   3.488  1.00  0.00    -0.277 N 
HETATM    6  H   UNL     1      37.445 -10.891   3.126  1.00  0.00     0.189 HD
HETATM    7  N   UNL     1      38.493 -11.379   4.793  1.00  0.00    -0.168 NA
HETATM    8  C   UNL     1      39.511 -12.255   4.955  1.00  0.00     0.156 A 
HETATM    9  C   UNL     1      38.988 -12.697   1.436  1.00  0.00     0.034 A 
HETATM   10  C   UNL     1      39.946 -13.637   1.034  1.00  0.00     0.032 A 
ENDROOT
BRANCH   1  11
HETATM   11  N   UNL     1      41.777 -15.134   1.424  1.00  0.00    -0.327 N 
HETATM   12  C   UNL     1      41.659 -16.510   1.331  1.00  0.00     0.226 C 
HETATM   13  O   UNL     1      40.637 -17.167   1.509  1.00  0.00    -0.273 OA
HETATM   14  H   UNL     1      42.644 -14.728   1.096  1.00  0.00     0.169 HD
BRANCH  12  15
HETATM   15  C   UNL     1      42.974 -17.194   0.983  1.00  0.00     0.141 C 
BRANCH  15  16
HETATM   16  C   UNL     1      43.410 -18.152   2.066  1.00  0.00    -0.049 A 
HETATM   17  C   UNL     1      43.656 -17.680   3.360  1.00  0.00     0.008 A 
HETATM   18  C   UNL     1      44.098 -18.547   4.360  1.00  0.00     0.013 A 
HETATM   19  C   UNL     1      44.298 -19.908   4.091  1.00  0.00    -0.026 A 
HETATM   20  C   UNL     1      44.753 -20.788   5.084  1.00  0.00     0.012 A 
HETATM   21  C   UNL     1      44.039 -20.401   2.792  1.00  0.00    -0.025 A 
HETATM   22  C   UNL     1      44.950 -22.140   4.803  1.00  0.00     0.001 A 
HETATM   23  C   UNL     1      44.692 -22.629   3.526  1.00  0.00     0.001 A 
HETATM   24  C   UNL     1      44.239 -21.766   2.527  1.00  0.00     0.012 A 
HETATM   25  C   UNL     1      43.593 -19.515   1.793  1.00  0.00     0.020 A 
ENDBRANCH  15  16
ENDBRANCH  12  15
ENDBRANCH   1  11
BRANCH   8  26
HETATM   26  C   UNL     1      40.159 -12.437   6.261  1.00  0.00     0.270 C 
HETATM   27  N   UNL     1      39.358 -13.021   7.204  1.00  0.00    -0.365 N 
HETATM   28  H   UNL     1      38.406 -13.257   6.952  1.00  0.00     0.159 HD
HETATM   29  H   UNL     1      39.707 -13.155   8.139  1.00  0.00     0.159 HD
HETATM   30  O   UNL     1      41.307 -12.098   6.528  1.00  0.00    -0.266 OA
ENDBRANCH   8  26
TORSDOF 4
ENDMDL
MODEL 2
REMARK VINA RESULT:      -9.3      2.697      4.735
REMARK  4 active torsions:
REMARK  status: ('A' for Active; 'I' for Inactive)
REMARK    1  A    between atoms: C_9  and  C_10 
REMARK    2  A    between atoms: C_10  and  C_11 
REMARK       I    between atoms: C_11  and  N_12 
REMARK    3  A    between atoms: N_12  and  C_13 
REMARK    4  A    between atoms: C_20  and  C_21 
REMARK       I    between atoms: C_21  and  N_22 
ROOT
HETATM    1  C   UNL     1      40.583 -14.897   1.787  1.00  0.00     0.035 A 
HETATM    2  C   UNL     1      41.030 -14.854   0.459  1.00  0.00     0.046 A 
HETATM    3  C   UNL     1      40.156 -14.409  -0.556  1.00  0.00     0.030 A 
HETATM    4  C   UNL     1      38.876 -13.994  -0.206  1.00  0.00     0.063 A 
HETATM    5  N   UNL     1      38.283 -13.619  -1.378  1.00  0.00    -0.277 N 
HETATM    6  H   UNL     1      37.345 -13.258  -1.502  1.00  0.00     0.189 HD
HETATM    7  N   UNL     1      39.052 -13.779  -2.467  1.00  0.00    -0.168 NA
HETATM    8  C   UNL     1      40.213 -14.271  -1.976  1.00  0.00     0.156 A 
HETATM    9  C   UNL     1      38.403 -14.010   1.108  1.00  0.00     0.034 A 
HETATM   10  C   UNL     1      39.279 -14.484   2.093  1.00  0.00     0.032 A 
ENDROOT
BRANCH   1  11
HETATM   11  N   UNL     1      41.363 -15.394   2.851  1.00  0.00    -0.327 N 
HETATM   12  C   UNL     1      42.686 -15.095   3.129  1.00  0.00     0.226 C 
HETATM   13  O   UNL     1      43.355 -14.202   2.614  1.00  0.00    -0.273 OA
HETATM   14  H   UNL     1      40.906 -16.054   3.468  1.00  0.00     0.169 HD
BRANCH  12  15
HETATM   15  C   UNL     1      43.294 -16.019   4.174  1.00  0.00     0.141 C 
BRANCH  15  16
HETATM   16  C   UNL     1      43.552 -17.399   3.619  1.00  0.00    -0.049 A 
HETATM   17  C   UNL     1      43.351 -17.656   2.259  1.00  0.00     0.008 A 
HETATM   18  C   UNL     1      43.548 -18.936   1.739  1.00  0.00     0.013 A 
HETATM   19  C   UNL     1      43.956 -19.989   2.569  1.00  0.00    -0.026 A 
HETATM   20  C   UNL     1      44.146 -21.284   2.063  1.00  0.00     0.012 A 
HETATM   21  C   UNL     1      44.177 -19.741   3.943  1.00  0.00    -0.025 A 
HETATM   22  C   UNL     1      44.551 -22.324   2.899  1.00  0.00     0.001 A 
HETATM   23  C   UNL     1      44.773 -22.082   4.251  1.00  0.00     0.001 A 
HETATM   24  C   UNL     1      44.588 -20.799   4.771  1.00  0.00     0.012 A 
HETATM   25  C   UNL     1      43.976 -18.445   4.453  1.00  0.00     0.020 A 
ENDBRANCH  15  16
ENDBRANCH  12  15
ENDBRANCH   1  11
BRANCH   8  26
HETATM   26  C   UNL     1      41.331 -14.616  -2.866  1.00  0.00     0.270 C 
HETATM   27  N   UNL     1      42.343 -13.696  -2.870  1.00  0.00    -0.365 N 
HETATM   28  H   UNL     1      42.245 -12.864  -2.299  1.00  0.00     0.159 HD
HETATM   29  H   UNL     1      43.136 -13.832  -3.476  1.00  0.00     0.159 HD
HETATM   30  O   UNL     1      41.384 -15.619  -3.568  1.00  0.00    -0.266 OA
ENDBRANCH   8  26
TORSDOF 4
ENDMDL
MODEL 3
REMARK VINA RESULT:      -9.1      2.725      4.679
REMARK  4 active torsions:
REMARK  status: ('A' for Active; 'I' for Inactive)
REMARK    1  A    between atoms: C_9  and  C_10 
REMARK    2  A    between atoms: C_10  and  C_11 
REMARK       I    between atoms: C_11  and  N_12 
REMARK    3  A    between atoms: N_12  and  C_13 
REMARK    4  A    between atoms: C_20  and  C_21 
REMARK       I    between atoms: C_21  and  N_22 
ROOT
HETATM    1  C   UNL     1      41.058 -14.456   1.080  1.00  0.00     0.035 A 
HETATM    2  C   UNL     1      40.818 -14.797  -0.258  1.00  0.00     0.046 A 
HETATM    3  C   UNL     1      39.712 -14.233  -0.931  1.00  0.00     0.030 A 
HETATM    4  C   UNL     1      38.904 -13.327  -0.255  1.00  0.00     0.063 A 
HETATM    5  N   UNL     1      37.943 -12.957  -1.153  1.00  0.00    -0.277 N 
HETATM    6  H   UNL     1      37.185 -12.303  -1.004  1.00  0.00     0.189 HD
HETATM    7  N   UNL     1      38.035 -13.563  -2.348  1.00  0.00    -0.168 NA
HETATM    8  C   UNL     1      39.122 -14.359  -2.226  1.00  0.00     0.156 A 
HETATM    9  C   UNL     1      39.123 -12.955   1.073  1.00  0.00     0.034 A 
HETATM   10  C   UNL     1      40.208 -13.550   1.729  1.00  0.00     0.032 A 
ENDROOT
BRANCH   1  11
HETATM   11  N   UNL     1      42.095 -15.024   1.849  1.00  0.00    -0.327 N 
HETATM   12  C   UNL     1      41.961 -15.866   2.940  1.00  0.00     0.226 C 
HETATM   13  O   UNL     1      40.929 -16.417   3.313  1.00  0.00    -0.273 OA
HETATM   14  H   UNL     1      43.037 -14.774   1.579  1.00  0.00     0.169 HD
BRANCH  12  15
HETATM   15  C   UNL     1      43.266 -16.059   3.701  1.00  0.00     0.141 C 
BRANCH  15  16
HETATM   16  C   UNL     1      43.624 -17.520   3.836  1.00  0.00    -0.049 A 
HETATM   17  C   UNL     1      44.114 -18.010   5.051  1.00  0.00     0.008 A 
HETATM   18  C   UNL     1      44.486 -19.349   5.179  1.00  0.00     0.013 A 
HETATM   19  C   UNL     1      44.371 -20.230   4.095  1.00  0.00    -0.026 A 
HETATM   20  C   UNL     1      44.753 -21.576   4.206  1.00  0.00     0.012 A 
HETATM   21  C   UNL     1      43.863 -19.752   2.866  1.00  0.00    -0.025 A 
HETATM   22  C   UNL     1      44.634 -22.442   3.120  1.00  0.00     0.001 A 
HETATM   23  C   UNL     1      44.131 -21.975   1.910  1.00  0.00     0.001 A 
HETATM   24  C   UNL     1      43.747 -20.639   1.783  1.00  0.00     0.012 A 
HETATM   25  C   UNL     1      43.491 -18.399   2.752  1.00  0.00     0.020 A 
ENDBRANCH  15  16
ENDBRANCH  12  15
ENDBRANCH   1  11
BRANCH   8  26
HETATM   26  C   UNL     1      39.556 -15.229  -3.328  1.00  0.00     0.270 C 
HETATM   27  N   UNL     1      38.636 -16.175  -3.688  1.00  0.00    -0.365 N 
HETATM   28  H   UNL     1      37.763 -16.221  -3.175  1.00  0.00     0.159 HD
HETATM   29  H   UNL     1      38.861 -16.837  -4.412  1.00  0.00     0.159 HD
HETATM   30  O   UNL     1      40.643 -15.156  -3.891  1.00  0.00    -0.266 OA
ENDBRANCH   8  26
TORSDOF 4
ENDMDL
MODEL 4
REMARK VINA RESULT:      -9.0      2.376      4.592
REMARK  4 active torsions:
REMARK  status: ('A' for Active; 'I' for Inactive)
REMARK    1  A    between atoms: C_9  and  C_10 
REMARK    2  A    between atoms: C_10  and  C_11 
REMARK       I    between atoms: C_11  and  N_12 
REMARK    3  A    between atoms: N_12  and  C_13 
REMARK    4  A    between atoms: C_20  and  C_21 
REMARK       I    between atoms: C_21  and  N_22 
ROOT
HETATM    1  C   UNL     1      41.378 -16.012   5.483  1.00  0.00     0.035 A 
HETATM    2  C   UNL     1      41.450 -16.276   4.109  1.00  0.00     0.046 A 
HETATM    3  C   UNL     1      40.696 -15.491   3.209  1.00  0.00     0.030 A 
HETATM    4  C   UNL     1      39.921 -14.452   3.710  1.00  0.00     0.063 A 
HETATM    5  N   UNL     1      39.328 -13.882   2.619  1.00  0.00    -0.277 N 
HETATM    6  H   UNL     1      38.696 -13.091   2.608  1.00  0.00     0.189 HD
HETATM    7  N   UNL     1      39.625 -14.474   1.451  1.00  0.00    -0.168 NA
HETATM    8  C   UNL     1      40.467 -15.475   1.799  1.00  0.00     0.156 A 
HETATM    9  C   UNL     1      39.837 -14.153   5.071  1.00  0.00     0.034 A 
HETATM   10  C   UNL     1      40.571 -14.964   5.947  1.00  0.00     0.032 A 
ENDROOT
BRANCH   1  11
HETATM   11  N   UNL     1      42.039 -16.789   6.456  1.00  0.00    -0.327 N 
HETATM   12  C   UNL     1      43.333 -16.625   6.918  1.00  0.00     0.226 C 
HETATM   13  O   UNL     1      44.068 -15.664   6.704  1.00  0.00    -0.273 OA
HETATM   14  H   UNL     1      41.510 -17.559   6.846  1.00  0.00     0.169 HD
BRANCH  12  15
HETATM   15  C   UNL     1      43.817 -17.804   7.752  1.00  0.00     0.141 C 
BRANCH  15  16
HETATM   16  C   UNL     1      43.945 -19.060   6.924  1.00  0.00    -0.049 A 
HETATM   17  C   UNL     1      43.826 -20.314   7.532  1.00  0.00     0.008 A 
HETATM   18  C   UNL     1      43.982 -21.484   6.788  1.00  0.00     0.013 A 
HETATM   19  C   UNL     1      44.254 -21.426   5.414  1.00  0.00    -0.026 A 
HETATM   20  C   UNL     1      44.424 -22.594   4.654  1.00  0.00     0.012 A 
HETATM   21  C   UNL     1      44.361 -20.165   4.783  1.00  0.00    -0.025 A 
HETATM   22  C   UNL     1      44.696 -22.522   3.288  1.00  0.00     0.001 A 
HETATM   23  C   UNL     1      44.798 -21.283   2.664  1.00  0.00     0.001 A 
HETATM   24  C   UNL     1      44.632 -20.112   3.405  1.00  0.00     0.012 A 
HETATM   25  C   UNL     1      44.201 -18.995   5.546  1.00  0.00     0.020 A 
ENDBRANCH  15  16
ENDBRANCH  12  15
ENDBRANCH   1  11
BRANCH   8  26
HETATM   26  C   UNL     1      41.012 -16.397   0.792  1.00  0.00     0.270 C 
HETATM   27  N   UNL     1      40.708 -17.711   1.018  1.00  0.00    -0.365 N 
HETATM   28  H   UNL     1      40.169 -17.949   1.842  1.00  0.00     0.159 HD
HETATM   29  H   UNL     1      41.068 -18.418   0.398  1.00  0.00     0.159 HD
HETATM   30  O   UNL     1      41.694 -16.060  -0.169  1.00  0.00    -0.266 OA
ENDBRANCH   8  26
TORSDOF 4
ENDMDL
MODEL 5
REMARK VINA RESULT:      -8.8      2.852      4.125
REMARK  4 active torsions:
REMARK  status: ('A' for Active; 'I' for Inactive)
REMARK    1  A    between atoms: C_9  and  C_10 
REMARK    2  A    between atoms: C_10  and  C_11 
REMARK       I    between atoms: C_11  and  N_12 
REMARK    3  A    between atoms: N_12  and  C_13 
REMARK    4  A    between atoms: C_20  and  C_21 
REMARK       I    between atoms: C_21  and  N_22 
ROOT
HETATM    1  C   UNL     1      40.694 -14.926   0.441  1.00  0.00     0.035 A 
HETATM    2  C   UNL     1      40.191 -14.180  -0.634  1.00  0.00     0.046 A 
HETATM    3  C   UNL     1      38.961 -13.500  -0.493  1.00  0.00     0.030 A 
HETATM    4  C   UNL     1      38.293 -13.565   0.723  1.00  0.00     0.063 A 
HETATM    5  N   UNL     1      37.162 -12.816   0.557  1.00  0.00    -0.277 N 
HETATM    6  H   UNL     1      36.439 -12.637   1.242  1.00  0.00     0.189 HD
HETATM    7  N   UNL     1      37.018 -12.291  -0.671  1.00  0.00    -0.168 NA
HETATM    8  C   UNL     1      38.121 -12.708  -1.335  1.00  0.00     0.156 A 
HETATM    9  C   UNL     1      38.772 -14.287   1.818  1.00  0.00     0.034 A 
HETATM   10  C   UNL     1      39.979 -14.977   1.645  1.00  0.00     0.032 A 
ENDROOT
BRANCH   1  11
HETATM   11  N   UNL     1      41.875 -15.692   0.365  1.00  0.00    -0.327 N 
HETATM   12  C   UNL     1      42.031 -17.024   0.707  1.00  0.00     0.226 C 
HETATM   13  O   UNL     1      41.131 -17.823   0.955  1.00  0.00    -0.273 OA
HETATM   14  H   UNL     1      42.701 -15.206   0.039  1.00  0.00     0.169 HD
BRANCH  12  15
HETATM   15  C   UNL     1      43.491 -17.451   0.772  1.00  0.00     0.141 C 
BRANCH  15  16
HETATM   16  C   UNL     1      43.759 -18.351   1.955  1.00  0.00    -0.049 A 
HETATM   17  C   UNL     1      43.868 -17.806   3.239  1.00  0.00     0.008 A 
HETATM   18  C   UNL     1      44.155 -18.620   4.335  1.00  0.00     0.013 A 
HETATM   19  C   UNL     1      44.334 -20.001   4.173  1.00  0.00    -0.026 A 
HETATM   20  C   UNL     1      44.635 -20.829   5.265  1.00  0.00     0.012 A 
HETATM   21  C   UNL     1      44.212 -20.567   2.884  1.00  0.00    -0.025 A 
HETATM   22  C   UNL     1      44.811 -22.202   5.090  1.00  0.00     0.001 A 
HETATM   23  C   UNL     1      44.688 -22.763   3.823  1.00  0.00     0.001 A 
HETATM   24  C   UNL     1      44.389 -21.952   2.727  1.00  0.00     0.012 A 
HETATM   25  C   UNL     1      43.921 -19.734   1.788  1.00  0.00     0.020 A 
ENDBRANCH  15  16
ENDBRANCH  12  15
ENDBRANCH   1  11
BRANCH   8  26
HETATM   26  C   UNL     1      38.336 -12.364  -2.747  1.00  0.00     0.270 C 
HETATM   27  N   UNL     1      37.349 -12.806  -3.585  1.00  0.00    -0.365 N 
HETATM   28  H   UNL     1      36.581 -13.337  -3.191  1.00  0.00     0.159 HD
HETATM   29  H   UNL     1      37.429 -12.645  -4.576  1.00  0.00     0.159 HD
HETATM   30  O   UNL     1      39.305 -11.751  -3.179  1.00  0.00    -0.266 OA
ENDBRANCH   8  26
TORSDOF 4
ENDMDL
MODEL 6
REMARK VINA RESULT:      -8.7      2.173      3.051
REMARK  4 active torsions:
REMARK  status: ('A' for Active; 'I' for Inactive)
REMARK    1  A    between atoms: C_9  and  C_10 
REMARK    2  A    between atoms: C_10  and  C_11 
REMARK       I    between atoms: C_11  and  N_12 
REMARK    3  A    between atoms: N_12  and  C_13 
REMARK    4  A    between atoms: C_20  and  C_21 
REMARK       I    between atoms: C_21  and  N_22 
ROOT
HETATM    1  C   UNL     1      41.297 -15.020   5.409  1.00  0.00     0.035 A 
HETATM    2  C   UNL     1      40.886 -13.918   6.171  1.00  0.00     0.046 A 
HETATM    3  C   UNL     1      40.044 -12.945   5.590  1.00  0.00     0.030 A 
HETATM    4  C   UNL     1      39.619 -13.123   4.279  1.00  0.00     0.063 A 
HETATM    5  N   UNL     1      38.825 -12.044   4.006  1.00  0.00    -0.277 N 
HETATM    6  H   UNL     1      38.338 -11.845   3.141  1.00  0.00     0.189 HD
HETATM    7  N   UNL     1      38.717 -11.163   5.013  1.00  0.00    -0.168 NA
HETATM    8  C   UNL     1      39.469 -11.704   6.000  1.00  0.00     0.156 A 
HETATM    9  C   UNL     1      39.998 -14.215   3.496  1.00  0.00     0.034 A 
HETATM   10  C   UNL     1      40.857 -15.151   4.085  1.00  0.00     0.032 A 
ENDROOT
BRANCH   1  11
HETATM   11  N   UNL     1      42.193 -15.999   5.886  1.00  0.00    -0.327 N 
HETATM   12  C   UNL     1      43.550 -15.850   6.115  1.00  0.00     0.226 C 
HETATM   13  O   UNL     1      44.176 -14.793   6.126  1.00  0.00    -0.273 OA
HETATM   14  H   UNL     1      41.799 -16.914   6.063  1.00  0.00     0.169 HD
BRANCH  12  15
HETATM   15  C   UNL     1      44.259 -17.177   6.352  1.00  0.00     0.141 C 
BRANCH  15  16
HETATM   16  C   UNL     1      44.176 -18.080   5.145  1.00  0.00    -0.049 A 
HETATM   17  C   UNL     1      43.733 -17.571   3.919  1.00  0.00     0.008 A 
HETATM   18  C   UNL     1      43.614 -18.402   2.805  1.00  0.00     0.013 A 
HETATM   19  C   UNL     1      43.942 -19.763   2.890  1.00  0.00    -0.026 A 
HETATM   20  C   UNL     1      43.816 -20.613   1.781  1.00  0.00     0.012 A 
HETATM   21  C   UNL     1      44.405 -20.287   4.118  1.00  0.00    -0.025 A 
HETATM   22  C   UNL     1      44.145 -21.965   1.878  1.00  0.00     0.001 A 
HETATM   23  C   UNL     1      44.605 -22.483   3.085  1.00  0.00     0.001 A 
HETATM   24  C   UNL     1      44.735 -21.650   4.198  1.00  0.00     0.012 A 
HETATM   25  C   UNL     1      44.521 -19.437   5.233  1.00  0.00     0.020 A 
ENDBRANCH  15  16
ENDBRANCH  12  15
ENDBRANCH   1  11
BRANCH   8  26
HETATM   26  C   UNL     1      39.638 -11.021   7.290  1.00  0.00     0.270 C 
HETATM   27  N   UNL     1      40.836 -11.271   7.900  1.00  0.00    -0.365 N 
HETATM   28  H   UNL     1      41.488 -11.902   7.449  1.00  0.00     0.159 HD
HETATM   29  H   UNL     1      41.026 -10.872   8.806  1.00  0.00     0.159 HD
HETATM   30  O   UNL     1      38.800 -10.295   7.814  1.00  0.00    -0.266 OA
ENDBRANCH   8  26
TORSDOF 4
ENDMDL
MODEL 7
REMARK VINA RESULT:      -8.6      1.870      3.701
REMARK  4 active torsions:
REMARK  status: ('A' for Active; 'I' for Inactive)
REMARK    1  A    between atoms: C_9  and  C_10 
REMARK    2  A    between atoms: C_10  and  C_11 
REMARK       I    between atoms: C_11  and  N_12 
REMARK    3  A    between atoms: N_12  and  C_13 
REMARK    4  A    between atoms: C_20  and  C_21 
REMARK       I    between atoms: C_21  and  N_22 
ROOT
HETATM    1  C   UNL     1      41.075 -14.538   5.151  1.00  0.00     0.035 A 
HETATM    2  C   UNL     1      40.828 -14.393   3.780  1.00  0.00     0.046 A 
HETATM    3  C   UNL     1      39.896 -13.428   3.339  1.00  0.00     0.030 A 
HETATM    4  C   UNL     1      39.267 -12.623   4.280  1.00  0.00     0.063 A 
HETATM    5  N   UNL     1      38.445 -11.800   3.562  1.00  0.00    -0.277 N 
HETATM    6  H   UNL     1      37.835 -11.077   3.923  1.00  0.00     0.189 HD
HETATM    7  N   UNL     1      38.462 -12.016   2.237  1.00  0.00    -0.168 NA
HETATM    8  C   UNL     1      39.351 -13.023   2.082  1.00  0.00     0.156 A 
HETATM    9  C   UNL     1      39.500 -12.731   5.652  1.00  0.00     0.034 A 
HETATM   10  C   UNL     1      40.406 -13.715   6.067  1.00  0.00     0.032 A 
ENDROOT
BRANCH   1  11
HETATM   11  N   UNL     1      41.935 -15.521   5.684  1.00  0.00    -0.327 N 
HETATM   12  C   UNL     1      43.316 -15.475   5.753  1.00  0.00     0.226 C 
HETATM   13  O   UNL     1      44.025 -14.494   5.539  1.00  0.00    -0.273 OA
HETATM   14  H   UNL     1      41.488 -16.357   6.039  1.00  0.00     0.169 HD
BRANCH  12  15
HETATM   15  C   UNL     1      43.935 -16.816   6.123  1.00  0.00     0.141 C 
BRANCH  15  16
HETATM   16  C   UNL     1      43.904 -17.785   4.965  1.00  0.00    -0.049 A 
HETATM   17  C   UNL     1      43.421 -17.372   3.719  1.00  0.00     0.008 A 
HETATM   18  C   UNL     1      43.349 -18.268   2.652  1.00  0.00     0.013 A 
HETATM   19  C   UNL     1      43.765 -19.597   2.804  1.00  0.00    -0.026 A 
HETATM   20  C   UNL     1      43.688 -20.512   1.743  1.00  0.00     0.012 A 
HETATM   21  C   UNL     1      44.270 -20.025   4.054  1.00  0.00    -0.025 A 
HETATM   22  C   UNL     1      44.105 -21.833   1.908  1.00  0.00     0.001 A 
HETATM   23  C   UNL     1      44.605 -22.255   3.135  1.00  0.00     0.001 A 
HETATM   24  C   UNL     1      44.688 -21.357   4.202  1.00  0.00     0.012 A 
HETATM   25  C   UNL     1      44.337 -19.110   5.121  1.00  0.00     0.020 A 
ENDBRANCH  15  16
ENDBRANCH  12  15
ENDBRANCH   1  11
BRANCH   8  26
HETATM   26  C   UNL     1      39.642 -13.585   0.756  1.00  0.00     0.270 C 
HETATM   27  N   UNL     1      39.138 -14.842   0.560  1.00  0.00    -0.365 N 
HETATM   28  H   UNL     1      38.638 -15.287   1.320  1.00  0.00     0.159 HD
HETATM   29  H   UNL     1      39.318 -15.320  -0.308  1.00  0.00     0.159 HD
HETATM   30  O   UNL     1      40.287 -13.018  -0.119  1.00  0.00    -0.266 OA
ENDBRANCH   8  26
TORSDOF 4
ENDMDL
MODEL 8
REMARK VINA RESULT:      -8.6      2.921      4.798
REMARK  4 active torsions:
REMARK  status: ('A' for Active; 'I' for Inactive)
REMARK    1  A    between atoms: C_9  and  C_10 
REMARK    2  A    between atoms: C_10  and  C_11 
REMARK       I    between atoms: C_11  and  N_12 
REMARK    3  A    between atoms: N_12  and  C_13 
REMARK    4  A    between atoms: C_20  and  C_21 
REMARK       I    between atoms: C_21  and  N_22 
ROOT
HETATM    1  C   UNL     1      41.291 -14.889   0.348  1.00  0.00     0.035 A 
HETATM    2  C   UNL     1      40.490 -14.735  -0.791  1.00  0.00     0.046 A 
HETATM    3  C   UNL     1      39.372 -13.875  -0.744  1.00  0.00     0.030 A 
HETATM    4  C   UNL     1      39.110 -13.178   0.429  1.00  0.00     0.063 A 
HETATM    5  N   UNL     1      37.991 -12.437   0.169  1.00  0.00    -0.277 N 
HETATM    6  H   UNL     1      37.517 -11.802   0.798  1.00  0.00     0.189 HD
HETATM    7  N   UNL     1      37.483 -12.610  -1.062  1.00  0.00    -0.168 NA
HETATM    8  C   UNL     1      38.322 -13.501  -1.638  1.00  0.00     0.156 A 
HETATM    9  C   UNL     1      39.895 -13.297   1.577  1.00  0.00     0.034 A 
HETATM   10  C   UNL     1      40.981 -14.178   1.515  1.00  0.00     0.032 A 
ENDROOT
BRANCH   1  11
HETATM   11  N   UNL     1      42.383 -15.779   0.412  1.00  0.00    -0.327 N 
HETATM   12  C   UNL     1      42.360 -17.104   0.814  1.00  0.00     0.226 C 
HETATM   13  O   UNL     1      41.359 -17.790   1.003  1.00  0.00    -0.273 OA
HETATM   14  H   UNL     1      43.283 -15.399   0.148  1.00  0.00     0.169 HD
BRANCH  12  15
HETATM   15  C   UNL     1      43.752 -17.680   1.032  1.00  0.00     0.141 C 
BRANCH  15  16
HETATM   16  C   UNL     1      43.889 -18.312   2.396  1.00  0.00    -0.049 A 
HETATM   17  C   UNL     1      44.300 -19.644   2.512  1.00  0.00     0.008 A 
HETATM   18  C   UNL     1      44.393 -20.254   3.764  1.00  0.00     0.013 A 
HETATM   19  C   UNL     1      44.082 -19.542   4.931  1.00  0.00    -0.026 A 
HETATM   20  C   UNL     1      44.159 -20.146   6.195  1.00  0.00     0.012 A 
HETATM   21  C   UNL     1      43.680 -18.191   4.830  1.00  0.00    -0.025 A 
HETATM   22  C   UNL     1      43.846 -19.427   7.348  1.00  0.00     0.001 A 
HETATM   23  C   UNL     1      43.454 -18.096   7.252  1.00  0.00     0.001 A 
HETATM   24  C   UNL     1      43.371 -17.481   6.002  1.00  0.00     0.012 A 
HETATM   25  C   UNL     1      43.592 -17.589   3.561  1.00  0.00     0.020 A 
ENDBRANCH  15  16
ENDBRANCH  12  15
ENDBRANCH   1  11
BRANCH   8  26
HETATM   26  C   UNL     1      38.096 -13.986  -3.007  1.00  0.00     0.270 C 
HETATM   27  N   UNL     1      38.613 -13.174  -3.979  1.00  0.00    -0.365 N 
HETATM   28  H   UNL     1      39.078 -12.318  -3.698  1.00  0.00     0.159 HD
HETATM   29  H   UNL     1      38.476 -13.409  -4.948  1.00  0.00     0.159 HD
HETATM   30  O   UNL     1      37.491 -15.012  -3.295  1.00  0.00    -0.266 OA
ENDBRANCH   8  26
TORSDOF 4
ENDMDL
MODEL 9
REMARK VINA RESULT:      -8.5      1.949      4.042
REMARK  4 active torsions:
REMARK  status: ('A' for Active; 'I' for Inactive)
REMARK    1  A    between atoms: C_9  and  C_10 
REMARK    2  A    between atoms: C_10  and  C_11 
REMARK       I    between atoms: C_11  and  N_12 
REMARK    3  A    between atoms: N_12  and  C_13 
REMARK    4  A    between atoms: C_20  and  C_21 
REMARK       I    between atoms: C_21  and  N_22 
ROOT
HETATM    1  C   UNL     1      40.983 -14.173   5.382  1.00  0.00     0.035 A 
HETATM    2  C   UNL     1      40.935 -14.243   3.983  1.00  0.00     0.046 A 
HETATM    3  C   UNL     1      40.036 -13.416   3.276  1.00  0.00     0.030 A 
HETATM    4  C   UNL     1      39.238 -12.528   3.987  1.00  0.00     0.063 A 
HETATM    5  N   UNL     1      38.495 -11.873   3.046  1.00  0.00    -0.277 N 
HETATM    6  H   UNL     1      37.806 -11.148   3.204  1.00  0.00     0.189 HD
HETATM    7  N   UNL     1      38.717 -12.274   1.784  1.00  0.00    -0.168 NA
HETATM    8  C   UNL     1      39.665 -13.232   1.909  1.00  0.00     0.156 A 
HETATM    9  C   UNL     1      39.269 -12.423   5.379  1.00  0.00     0.034 A 
HETATM   10  C   UNL     1      40.148 -13.275   6.061  1.00  0.00     0.032 A 
ENDROOT
BRANCH   1  11
HETATM   11  N   UNL     1      41.797 -15.011   6.172  1.00  0.00    -0.327 N 
HETATM   12  C   UNL     1      43.178 -14.982   6.271  1.00  0.00     0.226 C 
HETATM   13  O   UNL     1      43.921 -14.104   5.840  1.00  0.00    -0.273 OA
HETATM   14  H   UNL     1      41.317 -15.719   6.711  1.00  0.00     0.169 HD
BRANCH  12  15
HETATM   15  C   UNL     1      43.745 -16.201   6.986  1.00  0.00     0.141 C 
BRANCH  15  16
HETATM   16  C   UNL     1      43.913 -17.372   6.048  1.00  0.00    -0.049 A 
HETATM   17  C   UNL     1      44.709 -18.460   6.422  1.00  0.00     0.008 A 
HETATM   18  C   UNL     1      44.905 -19.531   5.550  1.00  0.00     0.013 A 
HETATM   19  C   UNL     1      44.305 -19.541   4.283  1.00  0.00    -0.026 A 
HETATM   20  C   UNL     1      44.503 -20.606   3.391  1.00  0.00     0.012 A 
HETATM   21  C   UNL     1      43.486 -18.456   3.898  1.00  0.00    -0.025 A 
HETATM   22  C   UNL     1      43.901 -20.604   2.134  1.00  0.00     0.001 A 
HETATM   23  C   UNL     1      43.091 -19.539   1.753  1.00  0.00     0.001 A 
HETATM   24  C   UNL     1      42.884 -18.471   2.629  1.00  0.00     0.012 A 
HETATM   25  C   UNL     1      43.296 -17.383   4.788  1.00  0.00     0.020 A 
ENDBRANCH  15  16
ENDBRANCH  12  15
ENDBRANCH   1  11
BRANCH   8  26
HETATM   26  C   UNL     1      40.175 -13.956   0.736  1.00  0.00     0.270 C 
HETATM   27  N   UNL     1      39.198 -14.398  -0.114  1.00  0.00    -0.365 N 
HETATM   28  H   UNL     1      38.230 -14.220   0.126  1.00  0.00     0.159 HD
HETATM   29  H   UNL     1      39.453 -14.934  -0.927  1.00  0.00     0.159 HD
HETATM   30  O   UNL     1      41.359 -14.179   0.511  1.00  0.00    -0.266 OA
ENDBRANCH   8  26
TORSDOF 4
ENDMDL
MODEL 10
REMARK VINA RESULT:      -8.5      1.456      2.755
REMARK  4 active torsions:
REMARK  status: ('A' for Active; 'I' for Inactive)
REMARK    1  A    between atoms: C_9  and  C_10 
REMARK    2  A    between atoms: C_10  and  C_11 
REMARK       I    between atoms: C_11  and  N_12 
REMARK    3  A    between atoms: N_12  and  C_13 
REMARK    4  A    between atoms: C_20  and  C_21 
REMARK       I    between atoms: C_21  and  N_22 
ROOT
HETATM    1  C   UNL     1      41.743 -15.055   3.734  1.00  0.00     0.035 A 
HETATM    2  C   UNL     1      41.050 -13.880   3.415  1.00  0.00     0.046 A 
HETATM    3  C   UNL     1      40.160 -13.320   4.357  1.00  0.00     0.030 A 
HETATM    4  C   UNL     1      40.016 -13.936   5.594  1.00  0.00     0.063 A 
HETATM    5  N   UNL     1      39.111 -13.172   6.277  1.00  0.00    -0.277 N 
HETATM    6  H   UNL     1      38.770 -13.322   7.218  1.00  0.00     0.189 HD
HETATM    7  N   UNL     1      38.630 -12.127   5.585  1.00  0.00    -0.168 NA
HETATM    8  C   UNL     1      39.265 -12.206   4.393  1.00  0.00     0.156 A 
HETATM    9  C   UNL     1      40.701 -15.099   5.950  1.00  0.00     0.034 A 
HETATM   10  C   UNL     1      41.556 -15.652   4.988  1.00  0.00     0.032 A 
ENDROOT
BRANCH   1  11
HETATM   11  N   UNL     1      42.596 -15.721   2.830  1.00  0.00    -0.327 N 
HETATM   12  C   UNL     1      42.279 -16.798   2.021  1.00  0.00     0.226 C 
HETATM   13  O   UNL     1      41.154 -17.244   1.808  1.00  0.00    -0.273 OA
HETATM   14  H   UNL     1      43.547 -15.379   2.781  1.00  0.00     0.169 HD
BRANCH  12  15
HETATM   15  C   UNL     1      43.504 -17.442   1.387  1.00  0.00     0.141 C 
BRANCH  15  16
HETATM   16  C   UNL     1      43.821 -18.779   2.012  1.00  0.00    -0.049 A 
HETATM   17  C   UNL     1      43.907 -19.923   1.212  1.00  0.00     0.008 A 
HETATM   18  C   UNL     1      44.160 -21.172   1.780  1.00  0.00     0.013 A 
HETATM   19  C   UNL     1      44.339 -21.305   3.165  1.00  0.00    -0.026 A 
HETATM   20  C   UNL     1      44.583 -22.556   3.752  1.00  0.00     0.012 A 
HETATM   21  C   UNL     1      44.270 -20.155   3.984  1.00  0.00    -0.025 A 
HETATM   22  C   UNL     1      44.758 -22.674   5.130  1.00  0.00     0.001 A 
HETATM   23  C   UNL     1      44.693 -21.544   5.938  1.00  0.00     0.001 A 
HETATM   24  C   UNL     1      44.452 -20.292   5.370  1.00  0.00     0.012 A 
HETATM   25  C   UNL     1      44.015 -18.902   3.396  1.00  0.00     0.020 A 
ENDBRANCH  15  16
ENDBRANCH  12  15
ENDBRANCH   1  11
BRANCH   8  26
HETATM   26  C   UNL     1      38.992 -11.241   3.319  1.00  0.00     0.270 C 
HETATM   27  N   UNL     1      38.378 -11.785   2.224  1.00  0.00    -0.365 N 
HETATM   28  H   UNL     1      38.182 -12.780   2.222  1.00  0.00     0.159 HD
HETATM   29  H   UNL     1      38.183 -11.205   1.424  1.00  0.00     0.159 HD
HETATM   30  O   UNL     1      39.285 -10.052   3.354  1.00  0.00    -0.266 OA
ENDBRANCH   8  26
TORSDOF 4
ENDMDL
