MODEL 1
REMARK VINA RESULT:      -8.7      0.000      0.000
REMARK  6 active torsions:
REMARK  status: ('A' for Active; 'I' for Inactive)
REMARK    1  A    between atoms: C_4  and  C_5 
REMARK    2  A    between atoms: C_6  and  O_7 
REMARK    3  A    between atoms: O_7  and  C_8 
REMARK    4  A    between atoms: C_8  and  C_9 
REMARK       I    between atoms: C_9  and  N_10 
REMARK    5  A    between atoms: N_10  and  N_11 
REMARK       I    between atoms: N_11  and  C_12 
REMARK    6  A    between atoms: C_12  and  C_13 
ROOT
HETATM    1  C   UNL     1      43.657 -17.983   7.176  1.00  0.00     0.260 C 
HETATM    2  N   UNL     1      42.879 -16.932   7.600  1.00  0.00    -0.265 N 
HETATM    3  O   UNL     1      43.680 -19.032   7.821  1.00  0.00    -0.269 OA
HETATM    4  H   UNL     1      42.239 -17.154   8.364  1.00  0.00     0.190 HD
ENDROOT
BRANCH   1   5
HETATM    5  C   UNL     1      44.499 -17.793   5.915  1.00  0.00     0.280 C 
BRANCH   5   6
HETATM    6  O   UNL     1      43.720 -17.837   4.721  1.00  0.00    -0.341 OA
BRANCH   6   7
HETATM    7  C   UNL     1      43.887 -18.992   3.994  1.00  0.00     0.080 A 
HETATM    8  C   UNL     1      43.280 -19.084   2.723  1.00  0.00     0.007 A 
HETATM    9  C   UNL     1      43.487 -20.264   1.978  1.00  0.00     0.015 A 
HETATM   10  C   UNL     1      44.284 -21.303   2.462  1.00  0.00     0.001 A 
HETATM   11  C   UNL     1      44.902 -21.179   3.700  1.00  0.00     0.003 A 
HETATM   12  C   UNL     1      44.712 -20.026   4.461  1.00  0.00     0.037 A 
BRANCH   8  13
HETATM   13  C   UNL     1      42.438 -18.014   2.153  1.00  0.00    -0.023 A 
HETATM   14  C   UNL     1      42.873 -17.281   1.034  1.00  0.00     0.012 A 
HETATM   15  C   UNL     1      42.069 -16.293   0.462  1.00  0.00     0.001 A 
HETATM   16  C   UNL     1      40.815 -16.018   0.998  1.00  0.00     0.000 A 
HETATM   17  C   UNL     1      40.365 -16.731   2.107  1.00  0.00     0.001 A 
HETATM   18  C   UNL     1      41.170 -17.722   2.677  1.00  0.00     0.012 A 
ENDBRANCH   8  13
ENDBRANCH   6   7
ENDBRANCH   5   6
ENDBRANCH   1   5
BRANCH   2  19
HETATM   19  N   UNL     1      42.438 -15.937   6.720  1.00  0.00    -0.262 N 
HETATM   20  C   UNL     1      41.135 -16.009   6.247  1.00  0.00     0.291 C 
HETATM   21  O   UNL     1      40.406 -16.975   6.465  1.00  0.00    -0.264 OA
HETATM   22  H   UNL     1      42.923 -15.040   6.675  1.00  0.00     0.190 HD
BRANCH  20  23
HETATM   23  C   UNL     1      40.717 -14.823   5.490  1.00  0.00     0.158 A 
HETATM   24  N   UNL     1      39.560 -14.182   5.764  1.00  0.00    -0.168 NA
HETATM   25  N   UNL     1      39.536 -13.170   4.877  1.00  0.00    -0.277 N 
HETATM   26  H   UNL     1      38.746 -12.535   4.893  1.00  0.00     0.189 HD
HETATM   27  C   UNL     1      40.615 -13.126   4.037  1.00  0.00     0.063 A 
HETATM   28  C   UNL     1      41.413 -14.201   4.412  1.00  0.00     0.028 A 
HETATM   29  C   UNL     1      40.949 -12.250   2.999  1.00  0.00     0.032 A 
HETATM   30  C   UNL     1      42.618 -14.426   3.716  1.00  0.00     0.016 A 
HETATM   31  C   UNL     1      42.971 -13.563   2.671  1.00  0.00     0.001 A 
HETATM   32  C   UNL     1      42.149 -12.493   2.321  1.00  0.00     0.002 A 
ENDBRANCH  20  23
ENDBRANCH   2  19
TORSDOF 6
ENDMDL
MODEL 2
REMARK VINA RESULT:      -8.5      1.569      2.082
REMARK  6 active torsions:
REMARK  status: ('A' for Active; 'I' for Inactive)
REMARK    1  A    between atoms: C_4  and  C_5 
REMARK    2  A    between atoms: C_6  and  O_7 
REMARK    3  A    between atoms: O_7  and  C_8 
REMARK    4  A    between atoms: C_8  and  C_9 
REMARK       I    between atoms: C_9  and  N_10 
REMARK    5  A    between atoms: N_10  and  N_11 
REMARK       I    between atoms: N_11  and  C_12 
REMARK    6  A    between atoms: C_12  and  C_13 
ROOT
HETATM    1  C   UNL     1      43.702 -17.069   7.430  1.00  0.00     0.260 C 
HETATM    2  N   UNL     1      43.294 -15.767   7.262  1.00  0.00    -0.265 N 
HETATM    3  O   UNL     1      43.420 -17.674   8.466  1.00  0.00    -0.269 OA
HETATM    4  H   UNL     1      42.637 -15.430   7.968  1.00  0.00     0.190 HD
ENDROOT
BRANCH   1   5
HETATM    5  C   UNL     1      44.528 -17.714   6.319  1.00  0.00     0.280 C 
BRANCH   5   6
HETATM    6  O   UNL     1      43.745 -18.051   5.175  1.00  0.00    -0.341 OA
BRANCH   6   7
HETATM    7  C   UNL     1      44.035 -19.288   4.650  1.00  0.00     0.080 A 
HETATM    8  C   UNL     1      43.820 -19.505   3.273  1.00  0.00     0.007 A 
HETATM    9  C   UNL     1      44.152 -20.771   2.746  1.00  0.00     0.015 A 
HETATM   10  C   UNL     1      44.700 -21.774   3.546  1.00  0.00     0.001 A 
HETATM   11  C   UNL     1      44.939 -21.530   4.893  1.00  0.00     0.003 A 
HETATM   12  C   UNL     1      44.616 -20.290   5.442  1.00  0.00     0.037 A 
BRANCH   8  13
HETATM   13  C   UNL     1      43.256 -18.479   2.374  1.00  0.00    -0.023 A 
HETATM   14  C   UNL     1      41.931 -18.581   1.915  1.00  0.00     0.012 A 
HETATM   15  C   UNL     1      41.374 -17.596   1.095  1.00  0.00     0.001 A 
HETATM   16  C   UNL     1      42.133 -16.492   0.718  1.00  0.00     0.000 A 
HETATM   17  C   UNL     1      43.448 -16.373   1.160  1.00  0.00     0.001 A 
HETATM   18  C   UNL     1      44.003 -17.358   1.983  1.00  0.00     0.012 A 
ENDBRANCH   8  13
ENDBRANCH   6   7
ENDBRANCH   5   6
ENDBRANCH   1   5
BRANCH   2  19
HETATM   19  N   UNL     1      43.155 -15.195   5.992  1.00  0.00    -0.262 N 
HETATM   20  C   UNL     1      41.879 -14.873   5.553  1.00  0.00     0.291 C 
HETATM   21  O   UNL     1      40.867 -15.191   6.175  1.00  0.00    -0.264 OA
HETATM   22  H   UNL     1      43.953 -14.742   5.545  1.00  0.00     0.190 HD
BRANCH  20  23
HETATM   23  C   UNL     1      41.863 -14.109   4.300  1.00  0.00     0.158 A 
HETATM   24  N   UNL     1      42.820 -13.198   4.016  1.00  0.00    -0.168 NA
HETATM   25  N   UNL     1      42.463 -12.725   2.807  1.00  0.00    -0.277 N 
HETATM   26  H   UNL     1      43.047 -12.017   2.377  1.00  0.00     0.189 HD
HETATM   27  C   UNL     1      41.321 -13.277   2.297  1.00  0.00     0.063 A 
HETATM   28  C   UNL     1      40.898 -14.192   3.254  1.00  0.00     0.028 A 
HETATM   29  C   UNL     1      40.637 -13.053   1.097  1.00  0.00     0.032 A 
HETATM   30  C   UNL     1      39.722 -14.931   3.012  1.00  0.00     0.016 A 
HETATM   31  C   UNL     1      39.019 -14.721   1.820  1.00  0.00     0.001 A 
HETATM   32  C   UNL     1      39.472 -13.797   0.879  1.00  0.00     0.002 A 
ENDBRANCH  20  23
ENDBRANCH   2  19
TORSDOF 6
ENDMDL
MODEL 3
REMARK VINA RESULT:      -8.4      1.612      2.054
REMARK  6 active torsions:
REMARK  status: ('A' for Active; 'I' for Inactive)
REMARK    1  A    between atoms: C_4  and  C_5 
REMARK    2  A    between atoms: C_6  and  O_7 
REMARK    3  A    between atoms: O_7  and  C_8 
REMARK    4  A    between atoms: C_8  and  C_9 
REMARK       I    between atoms: C_9  and  N_10 
REMARK    5  A    between atoms: N_10  and  N_11 
REMARK       I    between atoms: N_11  and  C_12 
REMARK    6  A    between atoms: C_12  and  C_13 
ROOT
HETATM    1  C   UNL     1      43.939 -17.506   7.466  1.00  0.00     0.260 C 
HETATM    2  N   UNL     1      43.276 -16.324   7.698  1.00  0.00    -0.265 N 
HETATM    3  O   UNL     1      44.002 -18.360   8.351  1.00  0.00    -0.269 OA
HETATM    4  H   UNL     1      42.738 -16.298   8.566  1.00  0.00     0.190 HD
ENDROOT
BRANCH   1   5
HETATM    5  C   UNL     1      44.607 -17.702   6.107  1.00  0.00     0.280 C 
BRANCH   5   6
HETATM    6  O   UNL     1      43.668 -17.756   5.034  1.00  0.00    -0.341 OA
BRANCH   6   7
HETATM    7  C   UNL     1      43.833 -18.843   4.208  1.00  0.00     0.080 A 
HETATM    8  C   UNL     1      43.273 -18.800   2.914  1.00  0.00     0.007 A 
HETATM    9  C   UNL     1      43.478 -19.911   2.069  1.00  0.00     0.015 A 
HETATM   10  C   UNL     1      44.231 -21.011   2.481  1.00  0.00     0.001 A 
HETATM   11  C   UNL     1      44.805 -21.021   3.746  1.00  0.00     0.003 A 
HETATM   12  C   UNL     1      44.615 -19.939   4.604  1.00  0.00     0.037 A 
BRANCH   8  13
HETATM   13  C   UNL     1      42.480 -17.658   2.417  1.00  0.00    -0.023 A 
HETATM   14  C   UNL     1      42.818 -17.023   1.209  1.00  0.00     0.012 A 
HETATM   15  C   UNL     1      42.052 -15.967   0.709  1.00  0.00     0.001 A 
HETATM   16  C   UNL     1      40.933 -15.526   1.410  1.00  0.00     0.000 A 
HETATM   17  C   UNL     1      40.581 -16.140   2.609  1.00  0.00     0.001 A 
HETATM   18  C   UNL     1      41.347 -17.199   3.106  1.00  0.00     0.012 A 
ENDBRANCH   8  13
ENDBRANCH   6   7
ENDBRANCH   5   6
ENDBRANCH   1   5
BRANCH   2  19
HETATM   19  N   UNL     1      42.764 -15.547   6.652  1.00  0.00    -0.262 N 
HETATM   20  C   UNL     1      43.433 -14.379   6.314  1.00  0.00     0.291 C 
HETATM   21  O   UNL     1      44.369 -13.938   6.978  1.00  0.00    -0.264 OA
HETATM   22  H   UNL     1      42.134 -15.963   5.965  1.00  0.00     0.190 HD
BRANCH  20  23
HETATM   23  C   UNL     1      42.929 -13.746   5.089  1.00  0.00     0.158 A 
HETATM   24  N   UNL     1      43.710 -13.603   3.996  1.00  0.00    -0.168 NA
HETATM   25  N   UNL     1      42.905 -12.994   3.105  1.00  0.00    -0.277 N 
HETATM   26  H   UNL     1      43.278 -12.781   2.187  1.00  0.00     0.189 HD
HETATM   27  C   UNL     1      41.646 -12.727   3.568  1.00  0.00     0.063 A 
HETATM   28  C   UNL     1      41.626 -13.208   4.872  1.00  0.00     0.028 A 
HETATM   29  C   UNL     1      40.544 -12.115   2.961  1.00  0.00     0.032 A 
HETATM   30  C   UNL     1      40.443 -13.074   5.627  1.00  0.00     0.016 A 
HETATM   31  C   UNL     1      39.329 -12.462   5.041  1.00  0.00     0.001 A 
HETATM   32  C   UNL     1      39.380 -11.992   3.729  1.00  0.00     0.002 A 
ENDBRANCH  20  23
ENDBRANCH   2  19
TORSDOF 6
ENDMDL
MODEL 4
REMARK VINA RESULT:      -8.0      2.719      7.339
REMARK  6 active torsions:
REMARK  status: ('A' for Active; 'I' for Inactive)
REMARK    1  A    between atoms: C_4  and  C_5 
REMARK    2  A    between atoms: C_6  and  O_7 
REMARK    3  A    between atoms: O_7  and  C_8 
REMARK    4  A    between atoms: C_8  and  C_9 
REMARK       I    between atoms: C_9  and  N_10 
REMARK    5  A    between atoms: N_10  and  N_11 
REMARK       I    between atoms: N_11  and  C_12 
REMARK    6  A    between atoms: C_12  and  C_13 
ROOT
HETATM    1  C   UNL     1      41.076 -15.370   0.648  1.00  0.00     0.260 C 
HETATM    2  N   UNL     1      41.408 -16.693   0.475  1.00  0.00    -0.265 N 
HETATM    3  O   UNL     1      40.275 -14.831  -0.117  1.00  0.00    -0.269 OA
HETATM    4  H   UNL     1      40.837 -17.192  -0.209  1.00  0.00     0.190 HD
ENDROOT
BRANCH   1   5
HETATM    5  C   UNL     1      41.747 -14.601   1.785  1.00  0.00     0.280 C 
BRANCH   5   6
HETATM    6  O   UNL     1      41.368 -15.081   3.074  1.00  0.00    -0.341 OA
BRANCH   6   7
HETATM    7  C   UNL     1      40.683 -14.158   3.828  1.00  0.00     0.080 A 
HETATM    8  C   UNL     1      40.915 -14.117   5.220  1.00  0.00     0.007 A 
HETATM    9  C   UNL     1      40.226 -13.143   5.973  1.00  0.00     0.015 A 
HETATM   10  C   UNL     1      39.362 -12.229   5.370  1.00  0.00     0.001 A 
HETATM   11  C   UNL     1      39.174 -12.262   3.994  1.00  0.00     0.003 A 
HETATM   12  C   UNL     1      39.837 -13.216   3.223  1.00  0.00     0.037 A 
BRANCH   8  13
HETATM   13  C   UNL     1      41.827 -15.047   5.912  1.00  0.00    -0.023 A 
HETATM   14  C   UNL     1      43.169 -14.695   6.142  1.00  0.00     0.012 A 
HETATM   15  C   UNL     1      44.032 -15.551   6.831  1.00  0.00     0.001 A 
HETATM   16  C   UNL     1      43.569 -16.777   7.301  1.00  0.00     0.000 A 
HETATM   17  C   UNL     1      42.243 -17.146   7.083  1.00  0.00     0.001 A 
HETATM   18  C   UNL     1      41.380 -16.286   6.397  1.00  0.00     0.012 A 
ENDBRANCH   8  13
ENDBRANCH   6   7
ENDBRANCH   5   6
ENDBRANCH   1   5
BRANCH   2  19
HETATM   19  N   UNL     1      41.904 -17.473   1.526  1.00  0.00    -0.262 N 
HETATM   20  C   UNL     1      43.213 -17.925   1.448  1.00  0.00     0.291 C 
HETATM   21  O   UNL     1      43.903 -17.779   0.440  1.00  0.00    -0.264 OA
HETATM   22  H   UNL     1      41.452 -17.447   2.441  1.00  0.00     0.190 HD
BRANCH  20  23
HETATM   23  C   UNL     1      43.690 -18.565   2.679  1.00  0.00     0.158 A 
HETATM   24  N   UNL     1      43.894 -17.856   3.811  1.00  0.00    -0.168 NA
HETATM   25  N   UNL     1      44.317 -18.779   4.695  1.00  0.00    -0.277 N 
HETATM   26  H   UNL     1      44.535 -18.476   5.638  1.00  0.00     0.189 HD
HETATM   27  C   UNL     1      44.405 -20.048   4.193  1.00  0.00     0.063 A 
HETATM   28  C   UNL     1      44.000 -19.945   2.867  1.00  0.00     0.028 A 
HETATM   29  C   UNL     1      44.799 -21.254   4.781  1.00  0.00     0.032 A 
HETATM   30  C   UNL     1      43.986 -21.107   2.070  1.00  0.00     0.016 A 
HETATM   31  C   UNL     1      44.379 -22.325   2.637  1.00  0.00     0.001 A 
HETATM   32  C   UNL     1      44.778 -22.395   3.971  1.00  0.00     0.002 A 
ENDBRANCH  20  23
ENDBRANCH   2  19
TORSDOF 6
ENDMDL
MODEL 5
REMARK VINA RESULT:      -7.9      2.620      4.790
REMARK  6 active torsions:
REMARK  status: ('A' for Active; 'I' for Inactive)
REMARK    1  A    between atoms: C_4  and  C_5 
REMARK    2  A    between atoms: C_6  and  O_7 
REMARK    3  A    between atoms: O_7  and  C_8 
REMARK    4  A    between atoms: C_8  and  C_9 
REMARK       I    between atoms: C_9  and  N_10 
REMARK    5  A    between atoms: N_10  and  N_11 
REMARK       I    between atoms: N_11  and  C_12 
REMARK    6  A    between atoms: C_12  and  C_13 
ROOT
HETATM    1  C   UNL     1      41.797 -17.336   4.111  1.00  0.00     0.260 C 
HETATM    2  N   UNL     1      42.095 -16.003   3.955  1.00  0.00    -0.265 N 
HETATM    3  O   UNL     1      41.269 -17.731   5.151  1.00  0.00    -0.269 OA
HETATM    4  H   UNL     1      41.710 -15.391   4.676  1.00  0.00     0.190 HD
ENDROOT
BRANCH   1   5
HETATM    5  C   UNL     1      42.167 -18.295   2.980  1.00  0.00     0.280 C 
BRANCH   5   6
HETATM    6  O   UNL     1      43.575 -18.490   2.862  1.00  0.00    -0.341 OA
BRANCH   6   7
HETATM    7  C   UNL     1      43.953 -19.812   2.865  1.00  0.00     0.080 A 
HETATM    8  C   UNL     1      44.332 -20.404   4.089  1.00  0.00     0.007 A 
HETATM    9  C   UNL     1      44.687 -21.770   4.078  1.00  0.00     0.015 A 
HETATM   10  C   UNL     1      44.643 -22.526   2.906  1.00  0.00     0.001 A 
HETATM   11  C   UNL     1      44.233 -21.935   1.717  1.00  0.00     0.003 A 
HETATM   12  C   UNL     1      43.881 -20.586   1.697  1.00  0.00     0.037 A 
BRANCH   8  13
HETATM   13  C   UNL     1      44.384 -19.660   5.362  1.00  0.00    -0.023 A 
HETATM   14  C   UNL     1      43.682 -20.121   6.490  1.00  0.00     0.012 A 
HETATM   15  C   UNL     1      43.754 -19.446   7.711  1.00  0.00     0.001 A 
HETATM   16  C   UNL     1      44.530 -18.296   7.826  1.00  0.00     0.000 A 
HETATM   17  C   UNL     1      45.232 -17.821   6.721  1.00  0.00     0.001 A 
HETATM   18  C   UNL     1      45.161 -18.500   5.501  1.00  0.00     0.012 A 
ENDBRANCH   8  13
ENDBRANCH   6   7
ENDBRANCH   5   6
ENDBRANCH   1   5
BRANCH   2  19
HETATM   19  N   UNL     1      42.239 -15.423   2.689  1.00  0.00    -0.262 N 
HETATM   20  C   UNL     1      41.319 -14.461   2.300  1.00  0.00     0.291 C 
HETATM   21  O   UNL     1      40.316 -14.199   2.962  1.00  0.00    -0.264 OA
HETATM   22  H   UNL     1      43.139 -15.459   2.209  1.00  0.00     0.190 HD
BRANCH  20  23
HETATM   23  C   UNL     1      41.670 -13.783   1.046  1.00  0.00     0.158 A 
HETATM   24  N   UNL     1      42.215 -12.547   1.040  1.00  0.00    -0.168 NA
HETATM   25  N   UNL     1      42.389 -12.280  -0.268  1.00  0.00    -0.277 N 
HETATM   26  H   UNL     1      42.798 -11.389  -0.527  1.00  0.00     0.189 HD
HETATM   27  C   UNL     1      41.978 -13.277  -1.110  1.00  0.00     0.063 A 
HETATM   28  C   UNL     1      41.498 -14.282  -0.279  1.00  0.00     0.028 A 
HETATM   29  C   UNL     1      41.988 -13.376  -2.505  1.00  0.00     0.032 A 
HETATM   30  C   UNL     1      40.992 -15.461  -0.863  1.00  0.00     0.016 A 
HETATM   31  C   UNL     1      40.989 -15.581  -2.258  1.00  0.00     0.001 A 
HETATM   32  C   UNL     1      41.480 -14.555  -3.064  1.00  0.00     0.002 A 
ENDBRANCH  20  23
ENDBRANCH   2  19
TORSDOF 6
ENDMDL
MODEL 6
REMARK VINA RESULT:      -7.9      4.588      5.823
REMARK  6 active torsions:
REMARK  status: ('A' for Active; 'I' for Inactive)
REMARK    1  A    between atoms: C_4  and  C_5 
REMARK    2  A    between atoms: C_6  and  O_7 
REMARK    3  A    between atoms: O_7  and  C_8 
REMARK    4  A    between atoms: C_8  and  C_9 
REMARK       I    between atoms: C_9  and  N_10 
REMARK    5  A    between atoms: N_10  and  N_11 
REMARK       I    between atoms: N_11  and  C_12 
REMARK    6  A    between atoms: C_12  and  C_13 
ROOT
HETATM    1  C   UNL     1      44.296 -15.531   6.682  1.00  0.00     0.260 C 
HETATM    2  N   UNL     1      44.779 -14.301   7.060  1.00  0.00    -0.265 N 
HETATM    3  O   UNL     1      45.056 -16.499   6.621  1.00  0.00    -0.269 OA
HETATM    4  H   UNL     1      45.736 -14.309   7.418  1.00  0.00     0.190 HD
ENDROOT
BRANCH   1   5
HETATM    5  C   UNL     1      42.816 -15.644   6.318  1.00  0.00     0.280 C 
BRANCH   5   6
HETATM    6  O   UNL     1      42.532 -16.791   5.520  1.00  0.00    -0.341 OA
BRANCH   6   7
HETATM    7  C   UNL     1      41.821 -16.507   4.377  1.00  0.00     0.080 A 
HETATM    8  C   UNL     1      41.958 -17.366   3.265  1.00  0.00     0.007 A 
HETATM    9  C   UNL     1      41.198 -17.077   2.112  1.00  0.00     0.015 A 
HETATM   10  C   UNL     1      40.318 -15.995   2.070  1.00  0.00     0.001 A 
HETATM   11  C   UNL     1      40.170 -15.182   3.187  1.00  0.00     0.003 A 
HETATM   12  C   UNL     1      40.911 -15.440   4.339  1.00  0.00     0.037 A 
BRANCH   8  13
HETATM   13  C   UNL     1      42.862 -18.533   3.255  1.00  0.00    -0.023 A 
HETATM   14  C   UNL     1      42.942 -19.366   2.125  1.00  0.00     0.012 A 
HETATM   15  C   UNL     1      43.822 -20.450   2.088  1.00  0.00     0.001 A 
HETATM   16  C   UNL     1      44.638 -20.722   3.182  1.00  0.00     0.000 A 
HETATM   17  C   UNL     1      44.573 -19.911   4.313  1.00  0.00     0.001 A 
HETATM   18  C   UNL     1      43.694 -18.824   4.346  1.00  0.00     0.012 A 
ENDBRANCH   8  13
ENDBRANCH   6   7
ENDBRANCH   5   6
ENDBRANCH   1   5
BRANCH   2  19
HETATM   19  N   UNL     1      43.945 -13.314   7.598  1.00  0.00    -0.262 N 
HETATM   20  C   UNL     1      44.421 -12.561   8.662  1.00  0.00     0.291 C 
HETATM   21  O   UNL     1      45.482 -12.816   9.230  1.00  0.00    -0.264 OA
HETATM   22  H   UNL     1      43.169 -12.944   7.048  1.00  0.00     0.190 HD
BRANCH  20  23
HETATM   23  C   UNL     1      43.551 -11.435   9.022  1.00  0.00     0.158 A 
HETATM   24  N   UNL     1      42.699 -10.888   8.128  1.00  0.00    -0.168 NA
HETATM   25  N   UNL     1      42.092  -9.907   8.823  1.00  0.00    -0.277 N 
HETATM   26  H   UNL     1      41.390  -9.347   8.351  1.00  0.00     0.189 HD
HETATM   27  C   UNL     1      42.513  -9.786  10.119  1.00  0.00     0.063 A 
HETATM   28  C   UNL     1      43.475 -10.776  10.284  1.00  0.00     0.028 A 
HETATM   29  C   UNL     1      42.137  -8.906  11.139  1.00  0.00     0.032 A 
HETATM   30  C   UNL     1      44.108 -10.904  11.537  1.00  0.00     0.016 A 
HETATM   31  C   UNL     1      43.749 -10.032  12.572  1.00  0.00     0.001 A 
HETATM   32  C   UNL     1      42.779  -9.051  12.374  1.00  0.00     0.002 A 
ENDBRANCH  20  23
ENDBRANCH   2  19
TORSDOF 6
ENDMDL
MODEL 7
REMARK VINA RESULT:      -7.9      2.078      5.872
REMARK  6 active torsions:
REMARK  status: ('A' for Active; 'I' for Inactive)
REMARK    1  A    between atoms: C_4  and  C_5 
REMARK    2  A    between atoms: C_6  and  O_7 
REMARK    3  A    between atoms: O_7  and  C_8 
REMARK    4  A    between atoms: C_8  and  C_9 
REMARK       I    between atoms: C_9  and  N_10 
REMARK    5  A    between atoms: N_10  and  N_11 
REMARK       I    between atoms: N_11  and  C_12 
REMARK    6  A    between atoms: C_12  and  C_13 
ROOT
HETATM    1  C   UNL     1      43.843 -14.058   6.738  1.00  0.00     0.260 C 
HETATM    2  N   UNL     1      44.039 -15.206   7.469  1.00  0.00    -0.265 N 
HETATM    3  O   UNL     1      43.981 -12.957   7.274  1.00  0.00    -0.269 OA
HETATM    4  H   UNL     1      44.443 -15.060   8.395  1.00  0.00     0.190 HD
ENDROOT
BRANCH   1   5
HETATM    5  C   UNL     1      43.425 -14.196   5.276  1.00  0.00     0.280 C 
BRANCH   5   6
HETATM    6  O   UNL     1      42.124 -14.762   5.126  1.00  0.00    -0.341 OA
BRANCH   6   7
HETATM    7  C   UNL     1      41.148 -13.837   4.839  1.00  0.00     0.080 A 
HETATM    8  C   UNL     1      40.496 -13.908   3.589  1.00  0.00     0.007 A 
HETATM    9  C   UNL     1      39.476 -12.970   3.325  1.00  0.00     0.015 A 
HETATM   10  C   UNL     1      39.099 -12.016   4.270  1.00  0.00     0.001 A 
HETATM   11  C   UNL     1      39.727 -11.984   5.509  1.00  0.00     0.003 A 
HETATM   12  C   UNL     1      40.742 -12.896   5.797  1.00  0.00     0.037 A 
BRANCH   8  13
HETATM   13  C   UNL     1      40.842 -14.903   2.555  1.00  0.00    -0.023 A 
HETATM   14  C   UNL     1      40.262 -16.184   2.572  1.00  0.00     0.012 A 
HETATM   15  C   UNL     1      40.551 -17.120   1.578  1.00  0.00     0.001 A 
HETATM   16  C   UNL     1      41.429 -16.794   0.547  1.00  0.00     0.000 A 
HETATM   17  C   UNL     1      42.016 -15.531   0.512  1.00  0.00     0.001 A 
HETATM   18  C   UNL     1      41.722 -14.594   1.507  1.00  0.00     0.012 A 
ENDBRANCH   8  13
ENDBRANCH   6   7
ENDBRANCH   5   6
ENDBRANCH   1   5
BRANCH   2  19
HETATM   19  N   UNL     1      44.364 -16.423   6.857  1.00  0.00    -0.262 N 
HETATM   20  C   UNL     1      43.461 -17.471   6.962  1.00  0.00     0.291 C 
HETATM   21  O   UNL     1      42.461 -17.413   7.676  1.00  0.00    -0.264 OA
HETATM   22  H   UNL     1      45.059 -16.451   6.111  1.00  0.00     0.190 HD
BRANCH  20  23
HETATM   23  C   UNL     1      43.806 -18.630   6.130  1.00  0.00     0.158 A 
HETATM   24  N   UNL     1      44.084 -19.833   6.677  1.00  0.00    -0.168 NA
HETATM   25  N   UNL     1      44.343 -20.617   5.613  1.00  0.00    -0.277 N 
HETATM   26  H   UNL     1      44.578 -21.589   5.778  1.00  0.00     0.189 HD
HETATM   27  C   UNL     1      44.253 -19.981   4.405  1.00  0.00     0.063 A 
HETATM   28  C   UNL     1      43.902 -18.671   4.708  1.00  0.00     0.028 A 
HETATM   29  C   UNL     1      44.449 -20.439   3.098  1.00  0.00     0.032 A 
HETATM   30  C   UNL     1      43.736 -17.752   3.651  1.00  0.00     0.016 A 
HETATM   31  C   UNL     1      43.929 -18.188   2.335  1.00  0.00     0.001 A 
HETATM   32  C   UNL     1      44.279 -19.510   2.065  1.00  0.00     0.002 A 
ENDBRANCH  20  23
ENDBRANCH   2  19
TORSDOF 6
ENDMDL
MODEL 8
REMARK VINA RESULT:      -7.8      5.694      8.771
REMARK  6 active torsions:
REMARK  status: ('A' for Active; 'I' for Inactive)
REMARK    1  A    between atoms: C_4  and  C_5 
REMARK    2  A    between atoms: C_6  and  O_7 
REMARK    3  A    between atoms: O_7  and  C_8 
REMARK    4  A    between atoms: C_8  and  C_9 
REMARK       I    between atoms: C_9  and  N_10 
REMARK    5  A    between atoms: N_10  and  N_11 
REMARK       I    between atoms: N_11  and  C_12 
REMARK    6  A    between atoms: C_12  and  C_13 
ROOT
HETATM    1  C   UNL     1      45.383 -11.535   9.566  1.00  0.00     0.260 C 
HETATM    2  N   UNL     1      45.458 -12.312   8.435  1.00  0.00    -0.265 N 
HETATM    3  O   UNL     1      45.832 -10.388   9.557  1.00  0.00    -0.269 OA
HETATM    4  H   UNL     1      45.759 -11.816   7.594  1.00  0.00     0.190 HD
ENDROOT
BRANCH   1   5
HETATM    5  C   UNL     1      44.760 -12.147  10.820  1.00  0.00     0.280 C 
BRANCH   5   6
HETATM    6  O   UNL     1      43.351 -11.934  10.895  1.00  0.00    -0.341 OA
BRANCH   6   7
HETATM    7  C   UNL     1      43.002 -10.714  11.425  1.00  0.00     0.080 A 
HETATM    8  C   UNL     1      42.000  -9.959  10.779  1.00  0.00     0.007 A 
HETATM    9  C   UNL     1      41.634  -8.724  11.354  1.00  0.00     0.015 A 
HETATM   10  C   UNL     1      42.218  -8.266  12.536  1.00  0.00     0.001 A 
HETATM   11  C   UNL     1      43.178  -9.041  13.177  1.00  0.00     0.003 A 
HETATM   12  C   UNL     1      43.563 -10.264  12.629  1.00  0.00     0.037 A 
BRANCH   8  13
HETATM   13  C   UNL     1      41.337 -10.396   9.536  1.00  0.00    -0.023 A 
HETATM   14  C   UNL     1      42.026 -10.371   8.310  1.00  0.00     0.012 A 
HETATM   15  C   UNL     1      41.422 -10.818   7.133  1.00  0.00     0.001 A 
HETATM   16  C   UNL     1      40.115 -11.299   7.159  1.00  0.00     0.000 A 
HETATM   17  C   UNL     1      39.414 -11.331   8.362  1.00  0.00     0.001 A 
HETATM   18  C   UNL     1      40.022 -10.886   9.540  1.00  0.00     0.012 A 
ENDBRANCH   8  13
ENDBRANCH   6   7
ENDBRANCH   5   6
ENDBRANCH   1   5
BRANCH   2  19
HETATM   19  N   UNL     1      44.589 -13.387   8.218  1.00  0.00    -0.262 N 
HETATM   20  C   UNL     1      44.704 -14.097   7.032  1.00  0.00     0.291 C 
HETATM   21  O   UNL     1      45.443 -13.737   6.116  1.00  0.00    -0.264 OA
HETATM   22  H   UNL     1      44.117 -13.831   9.007  1.00  0.00     0.190 HD
BRANCH  20  23
HETATM   23  C   UNL     1      43.882 -15.312   6.989  1.00  0.00     0.158 A 
HETATM   24  N   UNL     1      43.767 -16.124   8.062  1.00  0.00    -0.168 NA
HETATM   25  N   UNL     1      42.947 -17.103   7.637  1.00  0.00    -0.277 N 
HETATM   26  H   UNL     1      42.706 -17.845   8.285  1.00  0.00     0.189 HD
HETATM   27  C   UNL     1      42.531 -16.971   6.340  1.00  0.00     0.063 A 
HETATM   28  C   UNL     1      43.128 -15.803   5.883  1.00  0.00     0.028 A 
HETATM   29  C   UNL     1      41.697 -17.766   5.547  1.00  0.00     0.032 A 
HETATM   30  C   UNL     1      42.888 -15.393   4.555  1.00  0.00     0.016 A 
HETATM   31  C   UNL     1      42.058 -16.175   3.742  1.00  0.00     0.001 A 
HETATM   32  C   UNL     1      41.473 -17.341   4.233  1.00  0.00     0.002 A 
ENDBRANCH  20  23
ENDBRANCH   2  19
TORSDOF 6
ENDMDL
MODEL 9
REMARK VINA RESULT:      -7.8      1.789      3.913
REMARK  6 active torsions:
REMARK  status: ('A' for Active; 'I' for Inactive)
REMARK    1  A    between atoms: C_4  and  C_5 
REMARK    2  A    between atoms: C_6  and  O_7 
REMARK    3  A    between atoms: O_7  and  C_8 
REMARK    4  A    between atoms: C_8  and  C_9 
REMARK       I    between atoms: C_9  and  N_10 
REMARK    5  A    between atoms: N_10  and  N_11 
REMARK       I    between atoms: N_11  and  C_12 
REMARK    6  A    between atoms: C_12  and  C_13 
ROOT
HETATM    1  C   UNL     1      43.042 -16.413   6.884  1.00  0.00     0.260 C 
HETATM    2  N   UNL     1      42.930 -15.043   6.919  1.00  0.00    -0.265 N 
HETATM    3  O   UNL     1      43.469 -17.021   7.867  1.00  0.00    -0.269 OA
HETATM    4  H   UNL     1      43.073 -14.625   7.840  1.00  0.00     0.190 HD
ENDROOT
BRANCH   1   5
HETATM    5  C   UNL     1      42.655 -17.135   5.595  1.00  0.00     0.280 C 
BRANCH   5   6
HETATM    6  O   UNL     1      43.765 -17.781   4.972  1.00  0.00    -0.341 OA
BRANCH   6   7
HETATM    7  C   UNL     1      43.752 -17.700   3.599  1.00  0.00     0.080 A 
HETATM    8  C   UNL     1      43.984 -18.875   2.851  1.00  0.00     0.007 A 
HETATM    9  C   UNL     1      43.937 -18.779   1.444  1.00  0.00     0.015 A 
HETATM   10  C   UNL     1      43.647 -17.574   0.804  1.00  0.00     0.001 A 
HETATM   11  C   UNL     1      43.386 -16.436   1.557  1.00  0.00     0.003 A 
HETATM   12  C   UNL     1      43.430 -16.499   2.949  1.00  0.00     0.037 A 
BRANCH   8  13
HETATM   13  C   UNL     1      44.282 -20.180   3.472  1.00  0.00    -0.023 A 
HETATM   14  C   UNL     1      44.527 -20.276   4.854  1.00  0.00     0.012 A 
HETATM   15  C   UNL     1      44.773 -21.510   5.459  1.00  0.00     0.001 A 
HETATM   16  C   UNL     1      44.778 -22.673   4.694  1.00  0.00     0.000 A 
HETATM   17  C   UNL     1      44.540 -22.600   3.323  1.00  0.00     0.001 A 
HETATM   18  C   UNL     1      44.291 -21.364   2.719  1.00  0.00     0.012 A 
ENDBRANCH   8  13
ENDBRANCH   6   7
ENDBRANCH   5   6
ENDBRANCH   1   5
BRANCH   2  19
HETATM   19  N   UNL     1      42.049 -14.353   6.078  1.00  0.00    -0.262 N 
HETATM   20  C   UNL     1      42.581 -13.632   5.019  1.00  0.00     0.291 C 
HETATM   21  O   UNL     1      43.792 -13.469   4.873  1.00  0.00    -0.264 OA
HETATM   22  H   UNL     1      41.064 -14.618   6.040  1.00  0.00     0.190 HD
BRANCH  20  23
HETATM   23  C   UNL     1      41.569 -13.110   4.093  1.00  0.00     0.158 A 
HETATM   24  N   UNL     1      41.399 -11.783   3.909  1.00  0.00    -0.168 NA
HETATM   25  N   UNL     1      40.403 -11.709   3.006  1.00  0.00    -0.277 N 
HETATM   26  H   UNL     1      40.097 -10.792   2.701  1.00  0.00     0.189 HD
HETATM   27  C   UNL     1      39.914 -12.921   2.602  1.00  0.00     0.063 A 
HETATM   28  C   UNL     1      40.658 -13.866   3.298  1.00  0.00     0.028 A 
HETATM   29  C   UNL     1      38.899 -13.259   1.700  1.00  0.00     0.032 A 
HETATM   30  C   UNL     1      40.380 -15.233   3.094  1.00  0.00     0.016 A 
HETATM   31  C   UNL     1      39.367 -15.594   2.198  1.00  0.00     0.001 A 
HETATM   32  C   UNL     1      38.640 -14.621   1.513  1.00  0.00     0.002 A 
ENDBRANCH  20  23
ENDBRANCH   2  19
TORSDOF 6
ENDMDL
MODEL 10
REMARK VINA RESULT:      -7.8      2.551      4.624
REMARK  6 active torsions:
REMARK  status: ('A' for Active; 'I' for Inactive)
REMARK    1  A    between atoms: C_4  and  C_5 
REMARK    2  A    between atoms: C_6  and  O_7 
REMARK    3  A    between atoms: O_7  and  C_8 
REMARK    4  A    between atoms: C_8  and  C_9 
REMARK       I    between atoms: C_9  and  N_10 
REMARK    5  A    between atoms: N_10  and  N_11 
REMARK       I    between atoms: N_11  and  C_12 
REMARK    6  A    between atoms: C_12  and  C_13 
ROOT
HETATM    1  C   UNL     1      41.299 -16.361   1.146  1.00  0.00     0.260 C 
HETATM    2  N   UNL     1      40.940 -15.118   1.610  1.00  0.00    -0.265 N 
HETATM    3  O   UNL     1      41.467 -16.543  -0.061  1.00  0.00    -0.269 OA
HETATM    4  H   UNL     1      40.984 -14.372   0.914  1.00  0.00     0.190 HD
ENDROOT
BRANCH   1   5
HETATM    5  C   UNL     1      41.448 -17.494   2.160  1.00  0.00     0.280 C 
BRANCH   5   6
HETATM    6  O   UNL     1      42.692 -17.448   2.857  1.00  0.00    -0.341 OA
BRANCH   6   7
HETATM    7  C   UNL     1      43.335 -18.662   2.923  1.00  0.00     0.080 A 
HETATM    8  C   UNL     1      43.791 -19.119   4.178  1.00  0.00     0.007 A 
HETATM    9  C   UNL     1      44.420 -20.380   4.231  1.00  0.00     0.015 A 
HETATM   10  C   UNL     1      44.569 -21.170   3.090  1.00  0.00     0.001 A 
HETATM   11  C   UNL     1      44.082 -20.720   1.870  1.00  0.00     0.003 A 
HETATM   12  C   UNL     1      43.459 -19.475   1.786  1.00  0.00     0.037 A 
BRANCH   8  13
HETATM   13  C   UNL     1      43.649 -18.335   5.420  1.00  0.00    -0.023 A 
HETATM   14  C   UNL     1      42.394 -17.837   5.813  1.00  0.00     0.012 A 
HETATM   15  C   UNL     1      42.241 -17.127   7.006  1.00  0.00     0.001 A 
HETATM   16  C   UNL     1      43.341 -16.900   7.828  1.00  0.00     0.000 A 
HETATM   17  C   UNL     1      44.593 -17.383   7.457  1.00  0.00     0.001 A 
HETATM   18  C   UNL     1      44.745 -18.096   6.264  1.00  0.00     0.012 A 
ENDBRANCH   8  13
ENDBRANCH   6   7
ENDBRANCH   5   6
ENDBRANCH   1   5
BRANCH   2  19
HETATM   19  N   UNL     1      41.190 -14.722   2.930  1.00  0.00    -0.262 N 
HETATM   20  C   UNL     1      42.136 -13.732   3.150  1.00  0.00     0.291 C 
HETATM   21  O   UNL     1      42.851 -13.290   2.253  1.00  0.00    -0.264 OA
HETATM   22  H   UNL     1      40.501 -14.908   3.659  1.00  0.00     0.190 HD
BRANCH  20  23
HETATM   23  C   UNL     1      42.182 -13.260   4.539  1.00  0.00     0.158 A 
HETATM   24  N   UNL     1      41.167 -12.548   5.077  1.00  0.00    -0.168 NA
HETATM   25  N   UNL     1      41.576 -12.310   6.337  1.00  0.00    -0.277 N 
HETATM   26  H   UNL     1      40.963 -11.783   6.950  1.00  0.00     0.189 HD
HETATM   27  C   UNL     1      42.806 -12.825   6.642  1.00  0.00     0.063 A 
HETATM   28  C   UNL     1      43.235 -13.456   5.480  1.00  0.00     0.028 A 
HETATM   29  C   UNL     1      43.563 -12.788   7.818  1.00  0.00     0.032 A 
HETATM   30  C   UNL     1      44.494 -14.091   5.479  1.00  0.00     0.016 A 
HETATM   31  C   UNL     1      45.270 -14.064   6.644  1.00  0.00     0.001 A 
HETATM   32  C   UNL     1      44.810 -13.423   7.793  1.00  0.00     0.002 A 
ENDBRANCH  20  23
ENDBRANCH   2  19
TORSDOF 6
ENDMDL
