MODEL 1
REMARK VINA RESULT:      -9.3      0.000      0.000
REMARK  5 active torsions:
REMARK  status: ('A' for Active; 'I' for Inactive)
REMARK    1  A    between atoms: C_10  and  C_11 
REMARK    2  A    between atoms: C_13  and  O_14 
REMARK    3  A    between atoms: C_16  and  O_17 
REMARK    4  A    between atoms: O_17  and  C_18 
REMARK    5  A    between atoms: C_18  and  C_19 
ROOT
HETATM    1  C   UNL     1      41.725 -12.849   5.861  1.00  0.00    -0.013 A 
HETATM    2  C   UNL     1      40.775 -13.396   4.974  1.00  0.00     0.050 A 
HETATM    3  C   UNL     1      40.988 -14.637   4.368  1.00  0.00     0.102 A 
HETATM    4  C   UNL     1      42.164 -15.340   4.664  1.00  0.00     0.112 A 
HETATM    5  C   UNL     1      43.136 -14.797   5.503  1.00  0.00     0.041 A 
HETATM    6  C   UNL     1      42.911 -13.559   6.106  1.00  0.00     0.014 A 
ENDROOT
BRANCH   1   7
HETATM    7  C   UNL     1      41.480 -11.514   6.538  1.00  0.00     0.219 A 
HETATM    8  N   UNL     1      42.554 -11.221   7.459  1.00  0.00    -0.358 N 
HETATM    9  C   UNL     1      42.331 -11.037   8.771  1.00  0.00     0.088 A 
HETATM   10  H   UNL     1      43.495 -11.290   7.080  1.00  0.00     0.162 HD
HETATM   11  C   UNL     1      41.080 -11.053   9.337  1.00  0.00     0.073 A 
HETATM   12  S   UNL     1      43.563 -10.769   9.912  1.00  0.00    -0.074 SA
HETATM   13  C   UNL     1      41.133 -10.830  10.750  1.00  0.00    -0.023 A 
HETATM   14  C   UNL     1      39.926 -11.279   8.492  1.00  0.00     0.256 A 
HETATM   15  C   UNL     1      42.435 -10.646  11.179  1.00  0.00     0.018 A 
HETATM   16  C   UNL     1      39.974 -10.757  11.701  1.00  0.00     0.068 C 
HETATM   17  C   UNL     1      42.845 -10.394  12.588  1.00  0.00     0.281 C 
HETATM   18  N   UNL     1      41.642  -9.960  13.417  1.00  0.00    -0.070 N 
HETATM   19  C   UNL     1      41.978  -9.841  14.871  1.00  0.00     0.270 C 
HETATM   20  H   UNL     1      41.393  -9.022  13.079  1.00  0.00     0.279 HD
HETATM   21  C   UNL     1      40.433 -10.857  13.167  1.00  0.00     0.239 C 
HETATM   22  N   UNL     1      40.186 -11.493   7.172  1.00  0.00    -0.332 N 
HETATM   23  O   UNL     1      38.780 -11.285   8.931  1.00  0.00    -0.267 OA
HETATM   24  H   UNL     1      39.376 -11.666   6.594  1.00  0.00     0.165 HD
ENDBRANCH   1   7
BRANCH   3  25
HETATM   25  O   UNL     1      40.125 -15.246   3.497  1.00  0.00    -0.353 OA
HETATM   26  C   UNL     1      39.476 -14.429   2.532  1.00  0.00     0.210 C 
ENDBRANCH   3  25
BRANCH   4  27
HETATM   27  O   UNL     1      42.322 -16.595   4.031  1.00  0.00    -0.272 OA
BRANCH  27  28
HETATM   28  C   UNL     1      43.345 -16.809   3.129  1.00  0.00     0.300 C 
HETATM   29  O   UNL     1      43.892 -16.018   2.380  1.00  0.00    -0.259 OA
BRANCH  28  30
HETATM   30  C   UNL     1      43.656 -18.244   3.157  1.00  0.00     0.061 A 
HETATM   31  C   UNL     1      44.269 -18.838   4.266  1.00  0.00     0.051 A 
HETATM   32 CL   UNL     1      44.723 -17.935   5.667  1.00  0.00    -0.083 Cl
HETATM   33  C   UNL     1      44.562 -20.203   4.247  1.00  0.00     0.048 A 
HETATM   34  C   UNL     1      44.249 -20.962   3.120  1.00  0.00     0.035 A 
HETATM   35 CL   UNL     1      44.614 -22.643   3.100  1.00  0.00    -0.084 Cl
HETATM   36  C   UNL     1      43.653 -20.371   2.005  1.00  0.00     0.025 A 
HETATM   37  C   UNL     1      43.360 -19.005   2.018  1.00  0.00     0.021 A 
ENDBRANCH  28  30
ENDBRANCH  27  28
ENDBRANCH   4  27
TORSDOF 5
ENDMDL
MODEL 2
REMARK VINA RESULT:      -9.2      6.457     10.441
REMARK  5 active torsions:
REMARK  status: ('A' for Active; 'I' for Inactive)
REMARK    1  A    between atoms: C_10  and  C_11 
REMARK    2  A    between atoms: C_13  and  O_14 
REMARK    3  A    between atoms: C_16  and  O_17 
REMARK    4  A    between atoms: O_17  and  C_18 
REMARK    5  A    between atoms: C_18  and  C_19 
ROOT
HETATM    1  C   UNL     1      40.844 -15.215  -0.564  1.00  0.00    -0.013 A 
HETATM    2  C   UNL     1      40.164 -14.682   0.551  1.00  0.00     0.050 A 
HETATM    3  C   UNL     1      40.326 -15.235   1.824  1.00  0.00     0.102 A 
HETATM    4  C   UNL     1      41.188 -16.329   1.980  1.00  0.00     0.112 A 
HETATM    5  C   UNL     1      41.834 -16.899   0.884  1.00  0.00     0.041 A 
HETATM    6  C   UNL     1      41.668 -16.336  -0.383  1.00  0.00     0.014 A 
ENDROOT
BRANCH   1   7
HETATM    7  C   UNL     1      40.686 -14.597  -1.940  1.00  0.00     0.219 A 
HETATM    8  N   UNL     1      39.990 -13.334  -1.839  1.00  0.00    -0.358 N 
HETATM    9  C   UNL     1      38.825 -13.116  -2.470  1.00  0.00     0.088 A 
HETATM   10  H   UNL     1      40.367 -12.672  -1.165  1.00  0.00     0.162 HD
HETATM   11  C   UNL     1      38.228 -14.032  -3.300  1.00  0.00     0.073 A 
HETATM   12  S   UNL     1      37.924 -11.680  -2.324  1.00  0.00    -0.074 SA
HETATM   13  C   UNL     1      36.996 -13.540  -3.839  1.00  0.00    -0.023 A 
HETATM   14  C   UNL     1      38.873 -15.311  -3.519  1.00  0.00     0.256 A 
HETATM   15  C   UNL     1      36.731 -12.258  -3.390  1.00  0.00     0.018 A 
HETATM   16  C   UNL     1      36.078 -14.244  -4.794  1.00  0.00     0.068 C 
HETATM   17  C   UNL     1      35.533 -11.454  -3.755  1.00  0.00     0.281 C 
HETATM   18  N   UNL     1      34.857 -12.045  -4.986  1.00  0.00    -0.070 N 
HETATM   19  C   UNL     1      33.564 -11.358  -5.299  1.00  0.00     0.270 C 
HETATM   20  H   UNL     1      35.499 -11.870  -5.770  1.00  0.00     0.279 HD
HETATM   21  C   UNL     1      34.701 -13.559  -4.870  1.00  0.00     0.239 C 
HETATM   22  N   UNL     1      40.037 -15.515  -2.841  1.00  0.00    -0.332 N 
HETATM   23  O   UNL     1      38.402 -16.166  -4.262  1.00  0.00    -0.267 OA
HETATM   24  H   UNL     1      40.469 -16.416  -2.987  1.00  0.00     0.165 HD
ENDBRANCH   1   7
BRANCH   3  25
HETATM   25  O   UNL     1      39.711 -14.785   2.961  1.00  0.00    -0.353 OA
HETATM   26  C   UNL     1      40.080 -13.503   3.448  1.00  0.00     0.210 C 
ENDBRANCH   3  25
BRANCH   4  27
HETATM   27  O   UNL     1      41.322 -16.841   3.291  1.00  0.00    -0.272 OA
BRANCH  27  28
HETATM   28  C   UNL     1      42.447 -16.569   4.045  1.00  0.00     0.300 C 
HETATM   29  O   UNL     1      42.927 -15.493   4.354  1.00  0.00    -0.259 OA
BRANCH  28  30
HETATM   30  C   UNL     1      43.061 -17.859   4.389  1.00  0.00     0.061 A 
HETATM   31  C   UNL     1      43.048 -18.348   5.700  1.00  0.00     0.051 A 
HETATM   32 CL   UNL     1      42.336 -17.473   7.009  1.00  0.00    -0.083 Cl
HETATM   33  C   UNL     1      43.657 -19.571   5.989  1.00  0.00     0.048 A 
HETATM   34  C   UNL     1      44.279 -20.292   4.969  1.00  0.00     0.035 A 
HETATM   35 CL   UNL     1      45.030 -21.797   5.330  1.00  0.00    -0.084 Cl
HETATM   36  C   UNL     1      44.308 -19.800   3.664  1.00  0.00     0.025 A 
HETATM   37  C   UNL     1      43.703 -18.576   3.371  1.00  0.00     0.021 A 
ENDBRANCH  28  30
ENDBRANCH  27  28
ENDBRANCH   4  27
TORSDOF 5
ENDMDL
MODEL 3
REMARK VINA RESULT:      -9.0      1.337      2.255
REMARK  5 active torsions:
REMARK  status: ('A' for Active; 'I' for Inactive)
REMARK    1  A    between atoms: C_10  and  C_11 
REMARK    2  A    between atoms: C_13  and  O_14 
REMARK    3  A    between atoms: C_16  and  O_17 
REMARK    4  A    between atoms: O_17  and  C_18 
REMARK    5  A    between atoms: C_18  and  C_19 
ROOT
HETATM    1  C   UNL     1      41.666 -12.428   5.897  1.00  0.00    -0.013 A 
HETATM    2  C   UNL     1      42.732 -13.285   6.238  1.00  0.00     0.050 A 
HETATM    3  C   UNL     1      42.947 -14.478   5.543  1.00  0.00     0.102 A 
HETATM    4  C   UNL     1      42.086 -14.808   4.487  1.00  0.00     0.112 A 
HETATM    5  C   UNL     1      41.000 -13.997   4.163  1.00  0.00     0.041 A 
HETATM    6  C   UNL     1      40.798 -12.805   4.862  1.00  0.00     0.014 A 
ENDROOT
BRANCH   1   7
HETATM    7  C   UNL     1      41.451 -11.121   6.637  1.00  0.00     0.219 A 
HETATM    8  N   UNL     1      42.528 -10.900   7.575  1.00  0.00    -0.358 N 
HETATM    9  C   UNL     1      42.304 -10.775   8.893  1.00  0.00     0.088 A 
HETATM   10  H   UNL     1      43.469 -10.974   7.196  1.00  0.00     0.162 HD
HETATM   11  C   UNL     1      41.050 -10.786   9.454  1.00  0.00     0.073 A 
HETATM   12  S   UNL     1      43.538 -10.593  10.050  1.00  0.00    -0.074 SA
HETATM   13  C   UNL     1      41.103 -10.633  10.877  1.00  0.00    -0.023 A 
HETATM   14  C   UNL     1      39.895 -10.942   8.595  1.00  0.00     0.256 A 
HETATM   15  C   UNL     1      42.407 -10.503  11.318  1.00  0.00     0.018 A 
HETATM   16  C   UNL     1      39.942 -10.578  11.826  1.00  0.00     0.068 C 
HETATM   17  C   UNL     1      42.817 -10.331  12.739  1.00  0.00     0.281 C 
HETATM   18  N   UNL     1      41.622  -9.907  13.584  1.00  0.00    -0.070 N 
HETATM   19  C   UNL     1      41.954  -9.868  15.043  1.00  0.00     0.270 C 
HETATM   20  H   UNL     1      41.397  -8.948  13.291  1.00  0.00     0.279 HD
HETATM   21  C   UNL     1      40.392 -10.761  13.287  1.00  0.00     0.239 C 
HETATM   22  N   UNL     1      40.156 -11.098   7.267  1.00  0.00    -0.332 N 
HETATM   23  O   UNL     1      38.748 -10.942   9.030  1.00  0.00    -0.267 OA
HETATM   24  H   UNL     1      39.344 -11.223   6.679  1.00  0.00     0.165 HD
ENDBRANCH   1   7
BRANCH   3  25
HETATM   25  O   UNL     1      43.953 -15.370   5.801  1.00  0.00    -0.353 OA
HETATM   26  C   UNL     1      43.966 -15.999   7.075  1.00  0.00     0.210 C 
ENDBRANCH   3  25
BRANCH   4  27
HETATM   27  O   UNL     1      42.357 -16.021   3.812  1.00  0.00    -0.272 OA
BRANCH  27  28
HETATM   28  C   UNL     1      41.831 -17.215   4.264  1.00  0.00     0.300 C 
HETATM   29  O   UNL     1      40.939 -17.409   5.070  1.00  0.00    -0.259 OA
BRANCH  28  30
HETATM   30  C   UNL     1      42.604 -18.295   3.636  1.00  0.00     0.061 A 
HETATM   31  C   UNL     1      42.404 -18.655   2.299  1.00  0.00     0.051 A 
HETATM   32 CL   UNL     1      41.229 -17.881   1.296  1.00  0.00    -0.083 Cl
HETATM   33  C   UNL     1      43.149 -19.698   1.744  1.00  0.00     0.048 A 
HETATM   34  C   UNL     1      44.080 -20.378   2.529  1.00  0.00     0.035 A 
HETATM   35 CL   UNL     1      44.993 -21.664   1.842  1.00  0.00    -0.084 Cl
HETATM   36  C   UNL     1      44.270 -20.033   3.868  1.00  0.00     0.025 A 
HETATM   37  C   UNL     1      43.527 -18.992   4.428  1.00  0.00     0.021 A 
ENDBRANCH  28  30
ENDBRANCH  27  28
ENDBRANCH   4  27
TORSDOF 5
ENDMDL
MODEL 4
REMARK VINA RESULT:      -8.8      5.182      8.901
REMARK  5 active torsions:
REMARK  status: ('A' for Active; 'I' for Inactive)
REMARK    1  A    between atoms: C_10  and  C_11 
REMARK    2  A    between atoms: C_13  and  O_14 
REMARK    3  A    between atoms: C_16  and  O_17 
REMARK    4  A    between atoms: O_17  and  C_18 
REMARK    5  A    between atoms: C_18  and  C_19 
ROOT
HETATM    1  C   UNL     1      39.660 -14.986   1.914  1.00  0.00    -0.013 A 
HETATM    2  C   UNL     1      39.745 -14.471   3.223  1.00  0.00     0.050 A 
HETATM    3  C   UNL     1      40.418 -15.168   4.229  1.00  0.00     0.102 A 
HETATM    4  C   UNL     1      41.022 -16.394   3.913  1.00  0.00     0.112 A 
HETATM    5  C   UNL     1      40.910 -16.943   2.637  1.00  0.00     0.041 A 
HETATM    6  C   UNL     1      40.239 -16.235   1.639  1.00  0.00     0.014 A 
ENDROOT
BRANCH   1   7
HETATM    7  C   UNL     1      38.950 -14.215   0.818  1.00  0.00     0.219 A 
HETATM    8  N   UNL     1      39.546 -14.515  -0.465  1.00  0.00    -0.358 N 
HETATM    9  C   UNL     1      40.096 -13.558  -1.230  1.00  0.00     0.088 A 
HETATM   10  H   UNL     1      39.639 -15.502  -0.691  1.00  0.00     0.162 HD
HETATM   11  C   UNL     1      40.091 -12.225  -0.900  1.00  0.00     0.073 A 
HETATM   12  S   UNL     1      40.880 -13.863  -2.709  1.00  0.00    -0.074 SA
HETATM   13  C   UNL     1      40.744 -11.428  -1.893  1.00  0.00    -0.023 A 
HETATM   14  C   UNL     1      39.465 -11.808   0.338  1.00  0.00     0.256 A 
HETATM   15  C   UNL     1      41.204 -12.209  -2.938  1.00  0.00     0.018 A 
HETATM   16  C   UNL     1      40.917  -9.937  -1.891  1.00  0.00     0.068 C 
HETATM   17  C   UNL     1      41.930 -11.699  -4.133  1.00  0.00     0.281 C 
HETATM   18  N   UNL     1      41.742 -10.192  -4.260  1.00  0.00    -0.070 N 
HETATM   19  C   UNL     1      42.576  -9.614  -5.361  1.00  0.00     0.270 C 
HETATM   20  H   UNL     1      40.755 -10.053  -4.513  1.00  0.00     0.279 HD
HETATM   21  C   UNL     1      41.961  -9.483  -2.927  1.00  0.00     0.239 C 
HETATM   22  N   UNL     1      38.944 -12.804   1.108  1.00  0.00    -0.332 N 
HETATM   23  O   UNL     1      39.409 -10.632   0.683  1.00  0.00    -0.267 OA
HETATM   24  H   UNL     1      38.525 -12.504   1.977  1.00  0.00     0.165 HD
ENDBRANCH   1   7
BRANCH   3  25
HETATM   25  O   UNL     1      40.554 -14.746   5.525  1.00  0.00    -0.353 OA
HETATM   26  C   UNL     1      40.572 -13.346   5.763  1.00  0.00     0.210 C 
ENDBRANCH   3  25
BRANCH   4  27
HETATM   27  O   UNL     1      41.698 -17.051   4.967  1.00  0.00    -0.272 OA
BRANCH  27  28
HETATM   28  C   UNL     1      43.068 -16.939   5.106  1.00  0.00     0.300 C 
HETATM   29  O   UNL     1      43.758 -15.938   5.172  1.00  0.00    -0.259 OA
BRANCH  28  30
HETATM   30  C   UNL     1      43.617 -18.302   5.095  1.00  0.00     0.061 A 
HETATM   31  C   UNL     1      44.148 -18.866   3.929  1.00  0.00     0.051 A 
HETATM   32 CL   UNL     1      44.177 -18.023   2.422  1.00  0.00    -0.083 Cl
HETATM   33  C   UNL     1      44.646 -20.171   3.957  1.00  0.00     0.048 A 
HETATM   34  C   UNL     1      44.604 -20.902   5.144  1.00  0.00     0.035 A 
HETATM   35 CL   UNL     1      45.217 -22.510   5.173  1.00  0.00    -0.084 Cl
HETATM   36  C   UNL     1      44.062 -20.349   6.304  1.00  0.00     0.025 A 
HETATM   37  C   UNL     1      43.559 -19.046   6.281  1.00  0.00     0.021 A 
ENDBRANCH  28  30
ENDBRANCH  27  28
ENDBRANCH   4  27
TORSDOF 5
ENDMDL
MODEL 5
REMARK VINA RESULT:      -8.7      1.598      2.319
REMARK  5 active torsions:
REMARK  status: ('A' for Active; 'I' for Inactive)
REMARK    1  A    between atoms: C_10  and  C_11 
REMARK    2  A    between atoms: C_13  and  O_14 
REMARK    3  A    between atoms: C_16  and  O_17 
REMARK    4  A    between atoms: O_17  and  C_18 
REMARK    5  A    between atoms: C_18  and  C_19 
ROOT
HETATM    1  C   UNL     1      40.452 -11.883   5.262  1.00  0.00    -0.013 A 
HETATM    2  C   UNL     1      40.689 -13.168   5.793  1.00  0.00     0.050 A 
HETATM    3  C   UNL     1      40.565 -14.310   4.998  1.00  0.00     0.102 A 
HETATM    4  C   UNL     1      40.207 -14.158   3.651  1.00  0.00     0.112 A 
HETATM    5  C   UNL     1      39.924 -12.901   3.118  1.00  0.00     0.041 A 
HETATM    6  C   UNL     1      40.056 -11.767   3.921  1.00  0.00     0.014 A 
ENDROOT
BRANCH   1   7
HETATM    7  C   UNL     1      40.613 -10.644   6.122  1.00  0.00     0.219 A 
HETATM    8  N   UNL     1      41.823 -10.739   6.907  1.00  0.00    -0.358 N 
HETATM    9  C   UNL     1      41.798 -10.709   8.250  1.00  0.00     0.088 A 
HETATM   10  H   UNL     1      42.671 -10.959   6.391  1.00  0.00     0.162 HD
HETATM   11  C   UNL     1      40.652 -10.529   8.984  1.00  0.00     0.073 A 
HETATM   12  S   UNL     1      43.179 -10.897   9.226  1.00  0.00    -0.074 SA
HETATM   13  C   UNL     1      40.915 -10.538  10.392  1.00  0.00    -0.023 A 
HETATM   14  C   UNL     1      39.390 -10.363   8.293  1.00  0.00     0.256 A 
HETATM   15  C   UNL     1      42.263 -10.717  10.647  1.00  0.00     0.018 A 
HETATM   16  C   UNL     1      39.922 -10.352  11.501  1.00  0.00     0.068 C 
HETATM   17  C   UNL     1      42.877 -10.777  12.002  1.00  0.00     0.281 C 
HETATM   18  N   UNL     1      41.915 -10.214  13.042  1.00  0.00    -0.070 N 
HETATM   19  C   UNL     1      42.430 -10.392  14.436  1.00  0.00     0.270 C 
HETATM   20  H   UNL     1      41.862  -9.204  12.857  1.00  0.00     0.279 HD
HETATM   21  C   UNL     1      40.505 -10.771  12.863  1.00  0.00     0.239 C 
HETATM   22  N   UNL     1      39.442 -10.429   6.933  1.00  0.00    -0.332 N 
HETATM   23  O   UNL     1      38.334 -10.179   8.888  1.00  0.00    -0.267 OA
HETATM   24  H   UNL     1      38.555 -10.328   6.462  1.00  0.00     0.165 HD
ENDBRANCH   1   7
BRANCH   3  25
HETATM   25  O   UNL     1      40.776 -15.593   5.425  1.00  0.00    -0.353 OA
HETATM   26  C   UNL     1      41.952 -15.852   6.177  1.00  0.00     0.210 C 
ENDBRANCH   3  25
BRANCH   4  27
HETATM   27  O   UNL     1      40.106 -15.346   2.891  1.00  0.00    -0.272 OA
BRANCH  27  28
HETATM   28  C   UNL     1      40.858 -15.520   1.746  1.00  0.00     0.300 C 
HETATM   29  O   UNL     1      40.764 -14.960   0.668  1.00  0.00    -0.259 OA
BRANCH  28  30
HETATM   30  C   UNL     1      41.814 -16.602   2.015  1.00  0.00     0.061 A 
HETATM   31  C   UNL     1      43.055 -16.350   2.611  1.00  0.00     0.051 A 
HETATM   32 CL   UNL     1      43.565 -14.759   3.052  1.00  0.00    -0.083 Cl
HETATM   33  C   UNL     1      43.942 -17.405   2.835  1.00  0.00     0.048 A 
HETATM   34  C   UNL     1      43.588 -18.699   2.457  1.00  0.00     0.035 A 
HETATM   35 CL   UNL     1      44.685 -19.996   2.733  1.00  0.00    -0.084 Cl
HETATM   36  C   UNL     1      42.358 -18.953   1.848  1.00  0.00     0.025 A 
HETATM   37  C   UNL     1      41.469 -17.901   1.619  1.00  0.00     0.021 A 
ENDBRANCH  28  30
ENDBRANCH  27  28
ENDBRANCH   4  27
TORSDOF 5
ENDMDL
MODEL 6
REMARK VINA RESULT:      -8.6      5.161      8.169
REMARK  5 active torsions:
REMARK  status: ('A' for Active; 'I' for Inactive)
REMARK    1  A    between atoms: C_10  and  C_11 
REMARK    2  A    between atoms: C_13  and  O_14 
REMARK    3  A    between atoms: C_16  and  O_17 
REMARK    4  A    between atoms: O_17  and  C_18 
REMARK    5  A    between atoms: C_18  and  C_19 
ROOT
HETATM    1  C   UNL     1      40.896 -15.596   3.906  1.00  0.00    -0.013 A 
HETATM    2  C   UNL     1      41.779 -15.040   4.854  1.00  0.00     0.050 A 
HETATM    3  C   UNL     1      42.552 -15.857   5.683  1.00  0.00     0.102 A 
HETATM    4  C   UNL     1      42.443 -17.249   5.551  1.00  0.00     0.112 A 
HETATM    5  C   UNL     1      41.544 -17.818   4.652  1.00  0.00     0.041 A 
HETATM    6  C   UNL     1      40.780 -16.992   3.825  1.00  0.00     0.014 A 
ENDROOT
BRANCH   1   7
HETATM    7  C   UNL     1      40.078 -14.707   2.989  1.00  0.00     0.219 A 
HETATM    8  N   UNL     1      40.167 -15.183   1.628  1.00  0.00    -0.358 N 
HETATM    9  C   UNL     1      40.656 -14.415   0.640  1.00  0.00     0.088 A 
HETATM   10  H   UNL     1      39.960 -16.169   1.487  1.00  0.00     0.162 HD
HETATM   11  C   UNL     1      41.054 -13.113   0.818  1.00  0.00     0.073 A 
HETATM   12  S   UNL     1      40.859 -14.949  -0.962  1.00  0.00    -0.074 SA
HETATM   13  C   UNL     1      41.533 -12.532  -0.399  1.00  0.00    -0.023 A 
HETATM   14  C   UNL     1      40.950 -12.517   2.134  1.00  0.00     0.256 A 
HETATM   15  C   UNL     1      41.461 -13.434  -1.446  1.00  0.00     0.018 A 
HETATM   16  C   UNL     1      42.030 -11.131  -0.602  1.00  0.00     0.068 C 
HETATM   17  C   UNL     1      41.880 -13.155  -2.847  1.00  0.00     0.281 C 
HETATM   18  N   UNL     1      42.008 -11.652  -3.070  1.00  0.00    -0.070 N 
HETATM   19  C   UNL     1      42.571 -11.332  -4.419  1.00  0.00     0.270 C 
HETATM   20  H   UNL     1      41.049 -11.282  -3.038  1.00  0.00     0.279 HD
HETATM   21  C   UNL     1      42.780 -10.979  -1.938  1.00  0.00     0.239 C 
HETATM   22  N   UNL     1      40.480 -13.330   3.121  1.00  0.00    -0.332 N 
HETATM   23  O   UNL     1      41.270 -11.354   2.357  1.00  0.00    -0.267 OA
HETATM   24  H   UNL     1      40.427 -12.910   4.038  1.00  0.00     0.165 HD
ENDBRANCH   1   7
BRANCH   3  25
HETATM   25  O   UNL     1      43.435 -15.409   6.629  1.00  0.00    -0.353 OA
HETATM   26  C   UNL     1      44.221 -14.270   6.309  1.00  0.00     0.210 C 
ENDBRANCH   3  25
BRANCH   4  27
HETATM   27  O   UNL     1      43.256 -18.026   6.408  1.00  0.00    -0.272 OA
BRANCH  27  28
HETATM   28  C   UNL     1      44.551 -18.349   6.054  1.00  0.00     0.300 C 
HETATM   29  O   UNL     1      45.602 -17.930   6.506  1.00  0.00    -0.259 OA
BRANCH  28  30
HETATM   30  C   UNL     1      44.472 -19.290   4.928  1.00  0.00     0.061 A 
HETATM   31  C   UNL     1      44.317 -20.665   5.134  1.00  0.00     0.051 A 
HETATM   32 CL   UNL     1      44.231 -21.362   6.712  1.00  0.00    -0.083 Cl
HETATM   33  C   UNL     1      44.262 -21.527   4.036  1.00  0.00     0.048 A 
HETATM   34  C   UNL     1      44.369 -21.011   2.745  1.00  0.00     0.035 A 
HETATM   35 CL   UNL     1      44.303 -22.077   1.396  1.00  0.00    -0.084 Cl
HETATM   36  C   UNL     1      44.539 -19.642   2.536  1.00  0.00     0.025 A 
HETATM   37  C   UNL     1      44.598 -18.776   3.630  1.00  0.00     0.021 A 
ENDBRANCH  28  30
ENDBRANCH  27  28
ENDBRANCH   4  27
TORSDOF 5
ENDMDL
MODEL 7
REMARK VINA RESULT:      -8.6      6.583      9.353
REMARK  5 active torsions:
REMARK  status: ('A' for Active; 'I' for Inactive)
REMARK    1  A    between atoms: C_10  and  C_11 
REMARK    2  A    between atoms: C_13  and  O_14 
REMARK    3  A    between atoms: C_16  and  O_17 
REMARK    4  A    between atoms: O_17  and  C_18 
REMARK    5  A    between atoms: C_18  and  C_19 
ROOT
HETATM    1  C   UNL     1      40.571 -14.945   1.132  1.00  0.00    -0.013 A 
HETATM    2  C   UNL     1      40.067 -13.711   1.591  1.00  0.00     0.050 A 
HETATM    3  C   UNL     1      40.293 -12.531   0.878  1.00  0.00     0.102 A 
HETATM    4  C   UNL     1      41.025 -12.593  -0.316  1.00  0.00     0.112 A 
HETATM    5  C   UNL     1      41.570 -13.795  -0.764  1.00  0.00     0.041 A 
HETATM    6  C   UNL     1      41.335 -14.968  -0.046  1.00  0.00     0.014 A 
ENDROOT
BRANCH   1   7
HETATM    7  C   UNL     1      40.302 -16.228   1.894  1.00  0.00     0.219 A 
HETATM    8  N   UNL     1      40.210 -15.953   3.310  1.00  0.00    -0.358 N 
HETATM    9  C   UNL     1      41.040 -16.524   4.198  1.00  0.00     0.088 A 
HETATM   10  H   UNL     1      39.570 -15.209   3.577  1.00  0.00     0.162 HD
HETATM   11  C   UNL     1      41.996 -17.449   3.856  1.00  0.00     0.073 A 
HETATM   12  S   UNL     1      41.030 -16.177   5.863  1.00  0.00    -0.074 SA
HETATM   13  C   UNL     1      42.738 -17.893   4.997  1.00  0.00    -0.023 A 
HETATM   14  C   UNL     1      42.133 -17.842   2.469  1.00  0.00     0.256 A 
HETATM   15  C   UNL     1      42.292 -17.280   6.154  1.00  0.00     0.018 A 
HETATM   16  C   UNL     1      43.843 -18.908   5.021  1.00  0.00     0.068 C 
HETATM   17  C   UNL     1      42.847 -17.513   7.515  1.00  0.00     0.281 C 
HETATM   18  N   UNL     1      43.673 -18.793   7.535  1.00  0.00    -0.070 N 
HETATM   19  C   UNL     1      44.373 -18.987   8.844  1.00  0.00     0.270 C 
HETATM   20  H   UNL     1      43.001 -19.563   7.426  1.00  0.00     0.279 HD
HETATM   21  C   UNL     1      44.627 -18.866   6.346  1.00  0.00     0.239 C 
HETATM   22  N   UNL     1      41.299 -17.222   1.588  1.00  0.00    -0.332 N 
HETATM   23  O   UNL     1      42.954 -18.676   2.100  1.00  0.00    -0.267 OA
HETATM   24  H   UNL     1      41.414 -17.491   0.622  1.00  0.00     0.165 HD
ENDBRANCH   1   7
BRANCH   3  25
HETATM   25  O   UNL     1      39.843 -11.290   1.245  1.00  0.00    -0.353 OA
HETATM   26  C   UNL     1      38.441 -11.066   1.226  1.00  0.00     0.210 C 
ENDBRANCH   3  25
BRANCH   4  27
HETATM   27  O   UNL     1      41.214 -11.371  -1.001  1.00  0.00    -0.272 OA
BRANCH  27  28
HETATM   28  C   UNL     1      42.483 -10.909  -1.288  1.00  0.00     0.300 C 
HETATM   29  O   UNL     1      43.465 -10.854  -0.569  1.00  0.00    -0.259 OA
BRANCH  28  30
HETATM   30  C   UNL     1      42.458 -10.394  -2.664  1.00  0.00     0.061 A 
HETATM   31  C   UNL     1      42.406  -9.021  -2.929  1.00  0.00     0.051 A 
HETATM   32 CL   UNL     1      42.346  -7.836  -1.674  1.00  0.00    -0.083 Cl
HETATM   33  C   UNL     1      42.367  -8.573  -4.252  1.00  0.00     0.048 A 
HETATM   34  C   UNL     1      42.373  -9.498  -5.296  1.00  0.00     0.035 A 
HETATM   35 CL   UNL     1      42.322  -8.942  -6.923  1.00  0.00    -0.084 Cl
HETATM   36  C   UNL     1      42.408 -10.868  -5.035  1.00  0.00     0.025 A 
HETATM   37  C   UNL     1      42.444 -11.321  -3.714  1.00  0.00     0.021 A 
ENDBRANCH  28  30
ENDBRANCH  27  28
ENDBRANCH   4  27
TORSDOF 5
ENDMDL
MODEL 8
REMARK VINA RESULT:      -8.5      5.987     10.713
REMARK  5 active torsions:
REMARK  status: ('A' for Active; 'I' for Inactive)
REMARK    1  A    between atoms: C_10  and  C_11 
REMARK    2  A    between atoms: C_13  and  O_14 
REMARK    3  A    between atoms: C_16  and  O_17 
REMARK    4  A    between atoms: O_17  and  C_18 
REMARK    5  A    between atoms: C_18  and  C_19 
ROOT
HETATM    1  C   UNL     1      40.913 -15.273  -0.324  1.00  0.00    -0.013 A 
HETATM    2  C   UNL     1      40.254 -14.695   0.781  1.00  0.00     0.050 A 
HETATM    3  C   UNL     1      40.369 -15.251   2.058  1.00  0.00     0.102 A 
HETATM    4  C   UNL     1      41.161 -16.395   2.228  1.00  0.00     0.112 A 
HETATM    5  C   UNL     1      41.783 -17.007   1.141  1.00  0.00     0.041 A 
HETATM    6  C   UNL     1      41.666 -16.441  -0.129  1.00  0.00     0.014 A 
ENDROOT
BRANCH   1   7
HETATM    7  C   UNL     1      40.807 -14.653  -1.704  1.00  0.00     0.219 A 
HETATM    8  N   UNL     1      40.083 -13.404  -1.632  1.00  0.00    -0.358 N 
HETATM    9  C   UNL     1      38.945 -13.206  -2.316  1.00  0.00     0.088 A 
HETATM   10  H   UNL     1      40.415 -12.738  -0.938  1.00  0.00     0.162 HD
HETATM   11  C   UNL     1      38.405 -14.131  -3.176  1.00  0.00     0.073 A 
HETATM   12  S   UNL     1      38.010 -11.788  -2.208  1.00  0.00    -0.074 SA
HETATM   13  C   UNL     1      37.191 -13.660  -3.771  1.00  0.00    -0.023 A 
HETATM   14  C   UNL     1      39.085 -15.395  -3.368  1.00  0.00     0.256 A 
HETATM   15  C   UNL     1      36.880 -12.385  -3.331  1.00  0.00     0.018 A 
HETATM   16  C   UNL     1      36.333 -14.377  -4.770  1.00  0.00     0.068 C 
HETATM   17  C   UNL     1      35.685 -11.603  -3.749  1.00  0.00     0.281 C 
HETATM   18  N   UNL     1      35.079 -12.202  -5.012  1.00  0.00    -0.070 N 
HETATM   19  C   UNL     1      33.789 -11.539  -5.384  1.00  0.00     0.270 C 
HETATM   20  H   UNL     1      35.754 -12.012  -5.764  1.00  0.00     0.279 HD
HETATM   21  C   UNL     1      34.948 -13.719  -4.909  1.00  0.00     0.239 C 
HETATM   22  N   UNL     1      40.219 -15.580  -2.637  1.00  0.00    -0.332 N 
HETATM   23  O   UNL     1      38.666 -16.256  -4.135  1.00  0.00    -0.267 OA
HETATM   24  H   UNL     1      40.676 -16.471  -2.766  1.00  0.00     0.165 HD
ENDBRANCH   1   7
BRANCH   3  25
HETATM   25  O   UNL     1      39.769 -14.760   3.187  1.00  0.00    -0.353 OA
HETATM   26  C   UNL     1      40.086 -13.431   3.576  1.00  0.00     0.210 C 
ENDBRANCH   3  25
BRANCH   4  27
HETATM   27  O   UNL     1      41.250 -16.908   3.543  1.00  0.00    -0.272 OA
BRANCH  27  28
HETATM   28  C   UNL     1      42.424 -17.468   4.006  1.00  0.00     0.300 C 
HETATM   29  O   UNL     1      42.894 -18.569   3.783  1.00  0.00    -0.259 OA
BRANCH  28  30
HETATM   30  C   UNL     1      43.034 -16.498   4.926  1.00  0.00     0.061 A 
HETATM   31  C   UNL     1      43.377 -16.850   6.236  1.00  0.00     0.051 A 
HETATM   32 CL   UNL     1      43.094 -18.429   6.877  1.00  0.00    -0.083 Cl
HETATM   33  C   UNL     1      43.941 -15.894   7.084  1.00  0.00     0.048 A 
HETATM   34  C   UNL     1      44.150 -14.595   6.621  1.00  0.00     0.035 A 
HETATM   35 CL   UNL     1      44.842 -13.420   7.670  1.00  0.00    -0.084 Cl
HETATM   36  C   UNL     1      43.794 -14.236   5.321  1.00  0.00     0.025 A 
HETATM   37  C   UNL     1      43.228 -15.188   4.469  1.00  0.00     0.021 A 
ENDBRANCH  28  30
ENDBRANCH  27  28
ENDBRANCH   4  27
TORSDOF 5
ENDMDL
MODEL 9
REMARK VINA RESULT:      -8.5      6.573      9.818
REMARK  5 active torsions:
REMARK  status: ('A' for Active; 'I' for Inactive)
REMARK    1  A    between atoms: C_10  and  C_11 
REMARK    2  A    between atoms: C_13  and  O_14 
REMARK    3  A    between atoms: C_16  and  O_17 
REMARK    4  A    between atoms: O_17  and  C_18 
REMARK    5  A    between atoms: C_18  and  C_19 
ROOT
HETATM    1  C   UNL     1      41.131 -15.713  -0.204  1.00  0.00    -0.013 A 
HETATM    2  C   UNL     1      40.981 -14.663   0.725  1.00  0.00     0.050 A 
HETATM    3  C   UNL     1      41.134 -14.887   2.095  1.00  0.00     0.102 A 
HETATM    4  C   UNL     1      41.451 -16.179   2.537  1.00  0.00     0.112 A 
HETATM    5  C   UNL     1      41.560 -17.240   1.639  1.00  0.00     0.041 A 
HETATM    6  C   UNL     1      41.409 -17.004   0.272  1.00  0.00     0.014 A 
ENDROOT
BRANCH   1   7
HETATM    7  C   UNL     1      40.990 -15.461  -1.693  1.00  0.00     0.219 A 
HETATM    8  N   UNL     1      41.883 -14.401  -2.103  1.00  0.00    -0.358 N 
HETATM    9  C   UNL     1      41.426 -13.270  -2.666  1.00  0.00     0.088 A 
HETATM   10  H   UNL     1      42.855 -14.506  -1.824  1.00  0.00     0.162 HD
HETATM   11  C   UNL     1      40.102 -13.045  -2.952  1.00  0.00     0.073 A 
HETATM   12  S   UNL     1      42.420 -11.957  -3.095  1.00  0.00    -0.074 SA
HETATM   13  C   UNL     1      39.897 -11.760  -3.549  1.00  0.00    -0.023 A 
HETATM   14  C   UNL     1      39.129 -14.071  -2.636  1.00  0.00     0.256 A 
HETATM   15  C   UNL     1      41.092 -11.079  -3.692  1.00  0.00     0.018 A 
HETATM   16  C   UNL     1      38.597 -11.173  -4.014  1.00  0.00     0.068 C 
HETATM   17  C   UNL     1      41.236  -9.716  -4.273  1.00  0.00     0.281 C 
HETATM   18  N   UNL     1      39.983  -9.341  -5.055  1.00  0.00    -0.070 N 
HETATM   19  C   UNL     1      40.023  -7.923  -5.531  1.00  0.00     0.270 C 
HETATM   20  H   UNL     1      39.979  -9.947  -5.886  1.00  0.00     0.279 HD
HETATM   21  C   UNL     1      38.714  -9.660  -4.269  1.00  0.00     0.239 C 
HETATM   22  N   UNL     1      39.617 -15.193  -2.038  1.00  0.00    -0.332 N 
HETATM   23  O   UNL     1      37.934 -13.942  -2.883  1.00  0.00    -0.267 OA
HETATM   24  H   UNL     1      38.929 -15.894  -1.807  1.00  0.00     0.165 HD
ENDBRANCH   1   7
BRANCH   3  25
HETATM   25  O   UNL     1      41.009 -13.931   3.068  1.00  0.00    -0.353 OA
HETATM   26  C   UNL     1      39.781 -13.221   3.140  1.00  0.00     0.210 C 
ENDBRANCH   3  25
BRANCH   4  27
HETATM   27  O   UNL     1      41.605 -16.346   3.933  1.00  0.00    -0.272 OA
BRANCH  27  28
HETATM   28  C   UNL     1      42.848 -16.244   4.525  1.00  0.00     0.300 C 
HETATM   29  O   UNL     1      43.519 -15.251   4.744  1.00  0.00    -0.259 OA
BRANCH  28  30
HETATM   30  C   UNL     1      43.305 -17.610   4.813  1.00  0.00     0.061 A 
HETATM   31  C   UNL     1      43.126 -18.190   6.074  1.00  0.00     0.051 A 
HETATM   32 CL   UNL     1      42.381 -17.347   7.385  1.00  0.00    -0.083 Cl
HETATM   33  C   UNL     1      43.589 -19.486   6.312  1.00  0.00     0.048 A 
HETATM   34  C   UNL     1      44.233 -20.188   5.293  1.00  0.00     0.035 A 
HETATM   35 CL   UNL     1      44.805 -21.784   5.592  1.00  0.00    -0.084 Cl
HETATM   36  C   UNL     1      44.428 -19.608   4.040  1.00  0.00     0.025 A 
HETATM   37  C   UNL     1      43.969 -18.311   3.797  1.00  0.00     0.021 A 
ENDBRANCH  28  30
ENDBRANCH  27  28
ENDBRANCH   4  27
TORSDOF 5
ENDMDL
MODEL 10
REMARK VINA RESULT:      -8.4      5.402      9.173
REMARK  5 active torsions:
REMARK  status: ('A' for Active; 'I' for Inactive)
REMARK    1  A    between atoms: C_10  and  C_11 
REMARK    2  A    between atoms: C_13  and  O_14 
REMARK    3  A    between atoms: C_16  and  O_17 
REMARK    4  A    between atoms: O_17  and  C_18 
REMARK    5  A    between atoms: C_18  and  C_19 
ROOT
HETATM    1  C   UNL     1      41.640 -13.053   2.243  1.00  0.00    -0.013 A 
HETATM    2  C   UNL     1      41.942 -13.075   3.620  1.00  0.00     0.050 A 
HETATM    3  C   UNL     1      42.498 -14.210   4.217  1.00  0.00     0.102 A 
HETATM    4  C   UNL     1      42.761 -15.332   3.418  1.00  0.00     0.112 A 
HETATM    5  C   UNL     1      42.429 -15.346   2.065  1.00  0.00     0.041 A 
HETATM    6  C   UNL     1      41.878 -14.205   1.479  1.00  0.00     0.014 A 
ENDROOT
BRANCH   1   7
HETATM    7  C   UNL     1      41.062 -11.810   1.593  1.00  0.00     0.219 A 
HETATM    8  N   UNL     1      40.219 -12.181   0.478  1.00  0.00    -0.358 N 
HETATM    9  C   UNL     1      40.474 -11.761  -0.771  1.00  0.00     0.088 A 
HETATM   10  H   UNL     1      39.505 -12.878   0.674  1.00  0.00     0.162 HD
HETATM   11  C   UNL     1      41.503 -10.909  -1.091  1.00  0.00     0.073 A 
HETATM   12  S   UNL     1      39.566 -12.229  -2.131  1.00  0.00    -0.074 SA
HETATM   13  C   UNL     1      41.544 -10.625  -2.493  1.00  0.00    -0.023 A 
HETATM   14  C   UNL     1      42.373 -10.428  -0.037  1.00  0.00     0.256 A 
HETATM   15  C   UNL     1      40.525 -11.278  -3.165  1.00  0.00     0.018 A 
HETATM   16  C   UNL     1      42.508  -9.726  -3.209  1.00  0.00     0.068 C 
HETATM   17  C   UNL     1      40.280 -11.202  -4.631  1.00  0.00     0.281 C 
HETATM   18  N   UNL     1      41.023 -10.013  -5.228  1.00  0.00    -0.070 N 
HETATM   19  C   UNL     1      40.928  -9.985  -6.722  1.00  0.00     0.270 C 
HETATM   20  H   UNL     1      40.545  -9.176  -4.871  1.00  0.00     0.279 HD
HETATM   21  C   UNL     1      42.465  -9.943  -4.733  1.00  0.00     0.239 C 
HETATM   22  N   UNL     1      42.109 -10.897   1.215  1.00  0.00    -0.332 N 
HETATM   23  O   UNL     1      43.298  -9.651  -0.251  1.00  0.00    -0.267 OA
HETATM   24  H   UNL     1      42.731 -10.569   1.939  1.00  0.00     0.165 HD
ENDBRANCH   1   7
BRANCH   3  25
HETATM   25  O   UNL     1      42.824 -14.323   5.542  1.00  0.00    -0.353 OA
HETATM   26  C   UNL     1      44.037 -13.724   5.975  1.00  0.00     0.210 C 
ENDBRANCH   3  25
BRANCH   4  27
HETATM   27  O   UNL     1      43.333 -16.448   4.072  1.00  0.00    -0.272 OA
BRANCH  27  28
HETATM   28  C   UNL     1      42.557 -17.532   4.431  1.00  0.00     0.300 C 
HETATM   29  O   UNL     1      41.590 -17.577   5.171  1.00  0.00    -0.259 OA
BRANCH  28  30
HETATM   30  C   UNL     1      43.150 -18.718   3.799  1.00  0.00     0.061 A 
HETATM   31  C   UNL     1      44.101 -19.501   4.462  1.00  0.00     0.051 A 
HETATM   32 CL   UNL     1      44.666 -19.126   6.051  1.00  0.00    -0.083 Cl
HETATM   33  C   UNL     1      44.652 -20.612   3.820  1.00  0.00     0.048 A 
HETATM   34  C   UNL     1      44.255 -20.928   2.521  1.00  0.00     0.035 A 
HETATM   35 CL   UNL     1      44.938 -22.297   1.733  1.00  0.00    -0.084 Cl
HETATM   36  C   UNL     1      43.318 -20.141   1.851  1.00  0.00     0.025 A 
HETATM   37  C   UNL     1      42.767 -19.027   2.487  1.00  0.00     0.021 A 
ENDBRANCH  28  30
ENDBRANCH  27  28
ENDBRANCH   4  27
TORSDOF 5
ENDMDL
