MODEL 1
REMARK VINA RESULT:      -9.0      0.000      0.000
REMARK  3 active torsions:
REMARK  status: ('A' for Active; 'I' for Inactive)
REMARK    1  A    between atoms: C_8  and  C_9 
REMARK    2  A    between atoms: C_14  and  C_15 
REMARK    3  A    between atoms: C_16  and  O_17 
ROOT
HETATM    1  C   UNL     1      41.626 -14.804  -0.190  1.00  0.00     0.143 A 
HETATM    2  N   UNL     1      40.634 -14.616   0.656  1.00  0.00    -0.223 NA
HETATM    3  C   UNL     1      41.062 -15.089   1.880  1.00  0.00     0.149 A 
HETATM    4  C   UNL     1      42.351 -15.580   1.761  1.00  0.00     0.046 A 
HETATM    5  C   UNL     1      43.291 -16.079   2.801  1.00  0.00     0.070 C 
HETATM    6  C   UNL     1      42.718 -17.191   3.704  1.00  0.00     0.045 C 
HETATM    7  C   UNL     1      41.178 -17.241   3.824  1.00  0.00     0.132 C 
HETATM    8  N   UNL     1      40.553 -15.959   4.093  1.00  0.00    -0.355 N 
HETATM    9  C   UNL     1      40.267 -15.027   3.110  1.00  0.00     0.272 C 
HETATM   10  O   UNL     1      39.376 -14.204   3.307  1.00  0.00    -0.266 OA
HETATM   11  N   UNL     1      42.680 -15.413   0.441  1.00  0.00    -0.341 N 
HETATM   12  H   UNL     1      43.564 -15.641   0.013  1.00  0.00     0.167 HD
HETATM   13  H   UNL     1      39.894 -15.900   4.860  1.00  0.00     0.162 HD
ENDROOT
BRANCH   1  14
HETATM   14  C   UNL     1      41.585 -14.387  -1.618  1.00  0.00     0.059 A 
HETATM   15  C   UNL     1      42.093 -13.232  -2.184  1.00  0.00     0.040 A 
HETATM   16  C   UNL     1      42.817 -12.058  -1.649  1.00  0.00     0.071 C 
HETATM   17  N   UNL     1      41.786 -13.325  -3.516  1.00  0.00    -0.281 N 
HETATM   18  H   UNL     1      41.995 -12.662  -4.254  1.00  0.00     0.189 HD
HETATM   19  N   UNL     1      41.128 -14.442  -3.853  1.00  0.00    -0.179 NA
HETATM   20  C   UNL     1      40.993 -15.101  -2.693  1.00  0.00     0.067 A 
HETATM   21  C   UNL     1      40.286 -16.407  -2.656  1.00  0.00     0.073 C 
ENDBRANCH   1  14
BRANCH   6  22
HETATM   22  C   UNL     1      43.310 -18.550   3.321  1.00  0.00    -0.019 A 
HETATM   23  C   UNL     1      44.282 -19.171   4.136  1.00  0.00     0.074 A 
HETATM   24  C   UNL     1      44.804 -20.417   3.769  1.00  0.00     0.037 A 
HETATM   25  C   UNL     1      44.385 -21.044   2.595  1.00  0.00     0.003 A 
HETATM   26  C   UNL     1      43.452 -20.426   1.770  1.00  0.00     0.001 A 
HETATM   27  C   UNL     1      42.925 -19.184   2.124  1.00  0.00     0.010 A 
BRANCH  23  28
HETATM   28  O   UNL     1      44.660 -18.479   5.257  1.00  0.00    -0.355 OA
HETATM   29  C   UNL     1      44.294 -19.016   6.523  1.00  0.00     0.210 C 
ENDBRANCH  23  28
ENDBRANCH   6  22
TORSDOF 3
ENDMDL
MODEL 2
REMARK VINA RESULT:      -8.5      2.667      4.959
REMARK  3 active torsions:
REMARK  status: ('A' for Active; 'I' for Inactive)
REMARK    1  A    between atoms: C_8  and  C_9 
REMARK    2  A    between atoms: C_14  and  C_15 
REMARK    3  A    between atoms: C_16  and  O_17 
ROOT
HETATM    1  C   UNL     1      39.843 -13.861   2.726  1.00  0.00     0.143 A 
HETATM    2  N   UNL     1      40.317 -13.737   1.503  1.00  0.00    -0.223 NA
HETATM    3  C   UNL     1      40.737 -14.992   1.111  1.00  0.00     0.149 A 
HETATM    4  C   UNL     1      40.510 -15.897   2.135  1.00  0.00     0.046 A 
HETATM    5  C   UNL     1      40.670 -17.375   2.165  1.00  0.00     0.070 C 
HETATM    6  C   UNL     1      42.063 -17.879   1.735  1.00  0.00     0.045 C 
HETATM    7  C   UNL     1      42.875 -16.933   0.822  1.00  0.00     0.132 C 
HETATM    8  N   UNL     1      42.131 -16.396  -0.302  1.00  0.00    -0.355 N 
HETATM    9  C   UNL     1      41.294 -15.298  -0.210  1.00  0.00     0.272 C 
HETATM   10  O   UNL     1      41.059 -14.639  -1.220  1.00  0.00    -0.266 OA
HETATM   11  N   UNL     1      39.967 -15.158   3.154  1.00  0.00    -0.341 N 
HETATM   12  H   UNL     1      39.655 -15.511   4.045  1.00  0.00     0.167 HD
HETATM   13  H   UNL     1      42.540 -16.471  -1.226  1.00  0.00     0.162 HD
ENDROOT
BRANCH   1  14
HETATM   14  C   UNL     1      39.246 -12.739   3.500  1.00  0.00     0.059 A 
HETATM   15  C   UNL     1      38.428 -11.725   3.038  1.00  0.00     0.040 A 
HETATM   16  C   UNL     1      37.864 -11.382   1.714  1.00  0.00     0.071 C 
HETATM   17  N   UNL     1      38.166 -10.952   4.139  1.00  0.00    -0.281 N 
HETATM   18  H   UNL     1      37.600 -10.112   4.193  1.00  0.00     0.189 HD
HETATM   19  N   UNL     1      38.744 -11.384   5.266  1.00  0.00    -0.179 NA
HETATM   20  C   UNL     1      39.416 -12.480   4.886  1.00  0.00     0.067 A 
HETATM   21  C   UNL     1      40.215 -13.246   5.877  1.00  0.00     0.073 C 
ENDBRANCH   1  14
BRANCH   6  22
HETATM   22  C   UNL     1      42.869 -18.332   2.956  1.00  0.00    -0.019 A 
HETATM   23  C   UNL     1      43.621 -19.527   2.924  1.00  0.00     0.074 A 
HETATM   24  C   UNL     1      44.355 -19.918   4.050  1.00  0.00     0.037 A 
HETATM   25  C   UNL     1      44.336 -19.145   5.212  1.00  0.00     0.003 A 
HETATM   26  C   UNL     1      43.573 -17.985   5.264  1.00  0.00     0.001 A 
HETATM   27  C   UNL     1      42.837 -17.585   4.149  1.00  0.00     0.010 A 
BRANCH  23  28
HETATM   28  O   UNL     1      43.567 -20.242   1.756  1.00  0.00    -0.355 OA
HETATM   29  C   UNL     1      43.946 -21.612   1.798  1.00  0.00     0.210 C 
ENDBRANCH  23  28
ENDBRANCH   6  22
TORSDOF 3
ENDMDL
MODEL 3
REMARK VINA RESULT:      -8.3      2.636      4.965
REMARK  3 active torsions:
REMARK  status: ('A' for Active; 'I' for Inactive)
REMARK    1  A    between atoms: C_8  and  C_9 
REMARK    2  A    between atoms: C_14  and  C_15 
REMARK    3  A    between atoms: C_16  and  O_17 
ROOT
HETATM    1  C   UNL     1      40.089 -13.855   2.988  1.00  0.00     0.143 A 
HETATM    2  N   UNL     1      40.495 -13.724   1.741  1.00  0.00    -0.223 NA
HETATM    3  C   UNL     1      40.865 -14.983   1.310  1.00  0.00     0.149 A 
HETATM    4  C   UNL     1      40.678 -15.896   2.334  1.00  0.00     0.046 A 
HETATM    5  C   UNL     1      40.809 -17.377   2.338  1.00  0.00     0.070 C 
HETATM    6  C   UNL     1      42.164 -17.904   1.823  1.00  0.00     0.045 C 
HETATM    7  C   UNL     1      42.942 -16.962   0.876  1.00  0.00     0.132 C 
HETATM    8  N   UNL     1      42.147 -16.396  -0.198  1.00  0.00    -0.355 N 
HETATM    9  C   UNL     1      41.340 -15.282  -0.044  1.00  0.00     0.272 C 
HETATM   10  O   UNL     1      41.061 -14.605  -1.031  1.00  0.00    -0.266 OA
HETATM   11  N   UNL     1      40.210 -15.160   3.392  1.00  0.00    -0.341 N 
HETATM   12  H   UNL     1      39.942 -15.518   4.295  1.00  0.00     0.167 HD
HETATM   13  H   UNL     1      42.501 -16.467  -1.144  1.00  0.00     0.162 HD
ENDROOT
BRANCH   1  14
HETATM   14  C   UNL     1      39.561 -12.732   3.808  1.00  0.00     0.059 A 
HETATM   15  C   UNL     1      39.852 -12.425   5.124  1.00  0.00     0.040 A 
HETATM   16  C   UNL     1      40.729 -13.032   6.150  1.00  0.00     0.071 C 
HETATM   17  N   UNL     1      39.102 -11.313   5.404  1.00  0.00    -0.281 N 
HETATM   18  H   UNL     1      39.049 -10.798   6.275  1.00  0.00     0.189 HD
HETATM   19  N   UNL     1      38.357 -10.880   4.379  1.00  0.00    -0.179 NA
HETATM   20  C   UNL     1      38.625 -11.747   3.393  1.00  0.00     0.067 A 
HETATM   21  C   UNL     1      37.961 -11.602   2.072  1.00  0.00     0.073 C 
ENDBRANCH   1  14
BRANCH   6  22
HETATM   22  C   UNL     1      43.028 -18.389   2.990  1.00  0.00    -0.019 A 
HETATM   23  C   UNL     1      43.725 -19.615   2.913  1.00  0.00     0.074 A 
HETATM   24  C   UNL     1      44.515 -20.035   3.990  1.00  0.00     0.037 A 
HETATM   25  C   UNL     1      44.605 -19.261   5.147  1.00  0.00     0.003 A 
HETATM   26  C   UNL     1      43.897 -18.069   5.245  1.00  0.00     0.001 A 
HETATM   27  C   UNL     1      43.107 -17.640   4.179  1.00  0.00     0.010 A 
BRANCH  23  28
HETATM   28  O   UNL     1      43.564 -20.329   1.754  1.00  0.00    -0.355 OA
HETATM   29  C   UNL     1      43.815 -21.728   1.795  1.00  0.00     0.210 C 
ENDBRANCH  23  28
ENDBRANCH   6  22
TORSDOF 3
ENDMDL
MODEL 4
REMARK VINA RESULT:      -8.1      4.146      7.823
REMARK  3 active torsions:
REMARK  status: ('A' for Active; 'I' for Inactive)
REMARK    1  A    between atoms: C_8  and  C_9 
REMARK    2  A    between atoms: C_14  and  C_15 
REMARK    3  A    between atoms: C_16  and  O_17 
ROOT
HETATM    1  C   UNL     1      43.443 -18.263   5.529  1.00  0.00     0.143 A 
HETATM    2  N   UNL     1      44.168 -17.293   6.049  1.00  0.00    -0.223 NA
HETATM    3  C   UNL     1      43.332 -16.203   6.187  1.00  0.00     0.149 A 
HETATM    4  C   UNL     1      42.066 -16.531   5.731  1.00  0.00     0.046 A 
HETATM    5  C   UNL     1      40.797 -15.757   5.777  1.00  0.00     0.070 C 
HETATM    6  C   UNL     1      40.886 -14.340   5.172  1.00  0.00     0.045 C 
HETATM    7  C   UNL     1      42.294 -13.704   5.138  1.00  0.00     0.132 C 
HETATM    8  N   UNL     1      43.028 -13.799   6.386  1.00  0.00    -0.355 N 
HETATM    9  C   UNL     1      43.740 -14.922   6.770  1.00  0.00     0.272 C 
HETATM   10  O   UNL     1      44.666 -14.798   7.569  1.00  0.00    -0.266 OA
HETATM   11  N   UNL     1      42.163 -17.828   5.298  1.00  0.00    -0.341 N 
HETATM   12  H   UNL     1      41.414 -18.390   4.927  1.00  0.00     0.167 HD
HETATM   13  H   UNL     1      43.440 -12.954   6.764  1.00  0.00     0.162 HD
ENDROOT
BRANCH   1  14
HETATM   14  C   UNL     1      43.963 -19.631   5.262  1.00  0.00     0.059 A 
HETATM   15  C   UNL     1      44.414 -20.154   4.064  1.00  0.00     0.040 A 
HETATM   16  C   UNL     1      44.554 -19.611   2.694  1.00  0.00     0.071 C 
HETATM   17  N   UNL     1      44.768 -21.446   4.352  1.00  0.00    -0.281 N 
HETATM   18  H   UNL     1      45.141 -22.147   3.721  1.00  0.00     0.189 HD
HETATM   19  N   UNL     1      44.583 -21.796   5.631  1.00  0.00    -0.179 NA
HETATM   20  C   UNL     1      44.083 -20.690   6.201  1.00  0.00     0.067 A 
HETATM   21  C   UNL     1      43.728 -20.691   7.643  1.00  0.00     0.073 C 
ENDBRANCH   1  14
BRANCH   6  22
HETATM   22  C   UNL     1      40.202 -14.299   3.802  1.00  0.00    -0.019 A 
HETATM   23  C   UNL     1      39.453 -13.171   3.402  1.00  0.00     0.074 A 
HETATM   24  C   UNL     1      38.843 -13.153   2.142  1.00  0.00     0.037 A 
HETATM   25  C   UNL     1      38.953 -14.249   1.285  1.00  0.00     0.003 A 
HETATM   26  C   UNL     1      39.662 -15.376   1.683  1.00  0.00     0.001 A 
HETATM   27  C   UNL     1      40.274 -15.407   2.936  1.00  0.00     0.010 A 
BRANCH  23  28
HETATM   28  O   UNL     1      39.370 -12.148   4.310  1.00  0.00    -0.355 OA
HETATM   29  C   UNL     1      38.562 -11.027   3.976  1.00  0.00     0.210 C 
ENDBRANCH  23  28
ENDBRANCH   6  22
TORSDOF 3
ENDMDL
MODEL 5
REMARK VINA RESULT:      -8.1      1.791      2.425
REMARK  3 active torsions:
REMARK  status: ('A' for Active; 'I' for Inactive)
REMARK    1  A    between atoms: C_8  and  C_9 
REMARK    2  A    between atoms: C_14  and  C_15 
REMARK    3  A    between atoms: C_16  and  O_17 
ROOT
HETATM    1  C   UNL     1      40.524 -14.359   1.608  1.00  0.00     0.143 A 
HETATM    2  N   UNL     1      39.965 -14.292   2.800  1.00  0.00    -0.223 NA
HETATM    3  C   UNL     1      40.847 -14.881   3.684  1.00  0.00     0.149 A 
HETATM    4  C   UNL     1      41.968 -15.317   2.999  1.00  0.00     0.046 A 
HETATM    5  C   UNL     1      43.240 -15.896   3.506  1.00  0.00     0.070 C 
HETATM    6  C   UNL     1      43.066 -17.115   4.436  1.00  0.00     0.045 C 
HETATM    7  C   UNL     1      41.707 -17.224   5.164  1.00  0.00     0.132 C 
HETATM    8  N   UNL     1      41.266 -15.997   5.803  1.00  0.00    -0.355 N 
HETATM    9  C   UNL     1      40.621 -14.975   5.130  1.00  0.00     0.272 C 
HETATM   10  O   UNL     1      39.900 -14.205   5.761  1.00  0.00    -0.266 OA
HETATM   11  N   UNL     1      41.734 -15.000   1.686  1.00  0.00    -0.341 N 
HETATM   12  H   UNL     1      42.363 -15.154   0.915  1.00  0.00     0.167 HD
HETATM   13  H   UNL     1      40.977 -16.041   6.773  1.00  0.00     0.162 HD
ENDROOT
BRANCH   1  14
HETATM   14  C   UNL     1      39.914 -13.792   0.375  1.00  0.00     0.059 A 
HETATM   15  C   UNL     1      38.574 -13.720   0.042  1.00  0.00     0.040 A 
HETATM   16  C   UNL     1      37.324 -14.134   0.717  1.00  0.00     0.071 C 
HETATM   17  N   UNL     1      38.547 -13.124  -1.192  1.00  0.00    -0.281 N 
HETATM   18  H   UNL     1      37.738 -12.905  -1.763  1.00  0.00     0.189 HD
HETATM   19  N   UNL     1      39.753 -12.807  -1.677  1.00  0.00    -0.179 NA
HETATM   20  C   UNL     1      40.604 -13.218  -0.725  1.00  0.00     0.067 A 
HETATM   21  C   UNL     1      42.068 -13.048  -0.910  1.00  0.00     0.073 C 
ENDBRANCH   1  14
BRANCH   6  22
HETATM   22  C   UNL     1      43.429 -18.407   3.699  1.00  0.00    -0.019 A 
HETATM   23  C   UNL     1      44.183 -19.416   4.337  1.00  0.00     0.074 A 
HETATM   24  C   UNL     1      44.497 -20.592   3.645  1.00  0.00     0.037 A 
HETATM   25  C   UNL     1      44.086 -20.768   2.323  1.00  0.00     0.003 A 
HETATM   26  C   UNL     1      43.371 -19.767   1.676  1.00  0.00     0.001 A 
HETATM   27  C   UNL     1      43.052 -18.591   2.354  1.00  0.00     0.010 A 
BRANCH  23  28
HETATM   28  O   UNL     1      44.571 -19.156   5.625  1.00  0.00    -0.355 OA
HETATM   29  C   UNL     1      43.929 -19.876   6.670  1.00  0.00     0.210 C 
ENDBRANCH  23  28
ENDBRANCH   6  22
TORSDOF 3
ENDMDL
MODEL 6
REMARK VINA RESULT:      -8.1      4.168      7.825
REMARK  3 active torsions:
REMARK  status: ('A' for Active; 'I' for Inactive)
REMARK    1  A    between atoms: C_8  and  C_9 
REMARK    2  A    between atoms: C_14  and  C_15 
REMARK    3  A    between atoms: C_16  and  O_17 
ROOT
HETATM    1  C   UNL     1      43.402 -18.160   5.560  1.00  0.00     0.143 A 
HETATM    2  N   UNL     1      44.143 -17.192   6.059  1.00  0.00    -0.223 NA
HETATM    3  C   UNL     1      43.321 -16.092   6.193  1.00  0.00     0.149 A 
HETATM    4  C   UNL     1      42.046 -16.411   5.756  1.00  0.00     0.046 A 
HETATM    5  C   UNL     1      40.787 -15.623   5.808  1.00  0.00     0.070 C 
HETATM    6  C   UNL     1      40.883 -14.215   5.184  1.00  0.00     0.045 C 
HETATM    7  C   UNL     1      42.297 -13.595   5.125  1.00  0.00     0.132 C 
HETATM    8  N   UNL     1      43.045 -13.682   6.366  1.00  0.00    -0.355 N 
HETATM    9  C   UNL     1      43.750 -14.808   6.755  1.00  0.00     0.272 C 
HETATM   10  O   UNL     1      44.687 -14.685   7.541  1.00  0.00    -0.266 OA
HETATM   11  N   UNL     1      42.124 -17.714   5.338  1.00  0.00    -0.341 N 
HETATM   12  H   UNL     1      41.364 -18.273   4.984  1.00  0.00     0.167 HD
HETATM   13  H   UNL     1      43.471 -12.837   6.728  1.00  0.00     0.162 HD
ENDROOT
BRANCH   1  14
HETATM   14  C   UNL     1      43.903 -19.538   5.303  1.00  0.00     0.059 A 
HETATM   15  C   UNL     1      44.041 -20.577   6.204  1.00  0.00     0.040 A 
HETATM   16  C   UNL     1      43.766 -20.727   7.650  1.00  0.00     0.071 C 
HETATM   17  N   UNL     1      44.550 -21.617   5.471  1.00  0.00    -0.281 N 
HETATM   18  H   UNL     1      44.788 -22.550   5.790  1.00  0.00     0.189 HD
HETATM   19  N   UNL     1      44.749 -21.334   4.178  1.00  0.00    -0.179 NA
HETATM   20  C   UNL     1      44.360 -20.056   4.062  1.00  0.00     0.067 A 
HETATM   21  C   UNL     1      44.448 -19.366   2.750  1.00  0.00     0.073 C 
ENDBRANCH   1  14
BRANCH   6  22
HETATM   22  C   UNL     1      40.183 -14.183   3.822  1.00  0.00    -0.019 A 
HETATM   23  C   UNL     1      39.502 -13.026   3.386  1.00  0.00     0.074 A 
HETATM   24  C   UNL     1      38.875 -13.017   2.134  1.00  0.00     0.037 A 
HETATM   25  C   UNL     1      38.903 -14.151   1.321  1.00  0.00     0.003 A 
HETATM   26  C   UNL     1      39.544 -15.305   1.755  1.00  0.00     0.001 A 
HETATM   27  C   UNL     1      40.171 -15.326   3.000  1.00  0.00     0.010 A 
BRANCH  23  28
HETATM   28  O   UNL     1      39.498 -11.965   4.254  1.00  0.00    -0.355 OA
HETATM   29  C   UNL     1      38.495 -10.972   4.085  1.00  0.00     0.210 C 
ENDBRANCH  23  28
ENDBRANCH   6  22
TORSDOF 3
ENDMDL
MODEL 7
REMARK VINA RESULT:      -7.8      1.799      2.091
REMARK  3 active torsions:
REMARK  status: ('A' for Active; 'I' for Inactive)
REMARK    1  A    between atoms: C_8  and  C_9 
REMARK    2  A    between atoms: C_14  and  C_15 
REMARK    3  A    between atoms: C_16  and  O_17 
ROOT
HETATM    1  C   UNL     1      40.419 -14.383   1.428  1.00  0.00     0.143 A 
HETATM    2  N   UNL     1      39.788 -14.279   2.579  1.00  0.00    -0.223 NA
HETATM    3  C   UNL     1      40.650 -14.752   3.548  1.00  0.00     0.149 A 
HETATM    4  C   UNL     1      41.834 -15.156   2.955  1.00  0.00     0.046 A 
HETATM    5  C   UNL     1      43.108 -15.617   3.568  1.00  0.00     0.070 C 
HETATM    6  C   UNL     1      42.955 -16.785   4.566  1.00  0.00     0.045 C 
HETATM    7  C   UNL     1      41.566 -16.937   5.224  1.00  0.00     0.132 C 
HETATM    8  N   UNL     1      41.013 -15.704   5.756  1.00  0.00    -0.355 N 
HETATM    9  C   UNL     1      40.346 -14.771   4.982  1.00  0.00     0.272 C 
HETATM   10  O   UNL     1      39.544 -14.011   5.521  1.00  0.00    -0.266 OA
HETATM   11  N   UNL     1      41.659 -14.937   1.614  1.00  0.00    -0.341 N 
HETATM   12  H   UNL     1      42.341 -15.098   0.889  1.00  0.00     0.167 HD
HETATM   13  H   UNL     1      40.671 -15.706   6.709  1.00  0.00     0.162 HD
ENDROOT
BRANCH   1  14
HETATM   14  C   UNL     1      39.847 -13.936   0.128  1.00  0.00     0.059 A 
HETATM   15  C   UNL     1      40.524 -13.544  -1.012  1.00  0.00     0.040 A 
HETATM   16  C   UNL     1      41.956 -13.427  -1.367  1.00  0.00     0.071 C 
HETATM   17  N   UNL     1      39.544 -13.221  -1.913  1.00  0.00    -0.281 N 
HETATM   18  H   UNL     1      39.654 -12.887  -2.864  1.00  0.00     0.189 HD
HETATM   19  N   UNL     1      38.298 -13.374  -1.449  1.00  0.00    -0.179 NA
HETATM   20  C   UNL     1      38.470 -13.808  -0.193  1.00  0.00     0.067 A 
HETATM   21  C   UNL     1      37.291 -14.082   0.669  1.00  0.00     0.073 C 
ENDBRANCH   1  14
BRANCH   6  22
HETATM   22  C   UNL     1      43.440 -18.094   3.936  1.00  0.00    -0.019 A 
HETATM   23  C   UNL     1      44.115 -19.062   4.711  1.00  0.00     0.074 A 
HETATM   24  C   UNL     1      44.543 -20.255   4.116  1.00  0.00     0.037 A 
HETATM   25  C   UNL     1      44.325 -20.487   2.757  1.00  0.00     0.003 A 
HETATM   26  C   UNL     1      43.690 -19.526   1.979  1.00  0.00     0.001 A 
HETATM   27  C   UNL     1      43.259 -18.334   2.561  1.00  0.00     0.010 A 
BRANCH  23  28
HETATM   28  O   UNL     1      44.314 -18.748   6.031  1.00  0.00    -0.355 OA
HETATM   29  C   UNL     1      45.552 -18.149   6.391  1.00  0.00     0.210 C 
ENDBRANCH  23  28
ENDBRANCH   6  22
TORSDOF 3
ENDMDL
MODEL 8
REMARK VINA RESULT:      -7.8      2.825      7.161
REMARK  3 active torsions:
REMARK  status: ('A' for Active; 'I' for Inactive)
REMARK    1  A    between atoms: C_8  and  C_9 
REMARK    2  A    between atoms: C_14  and  C_15 
REMARK    3  A    between atoms: C_16  and  O_17 
ROOT
HETATM    1  C   UNL     1      43.254 -17.217   3.735  1.00  0.00     0.143 A 
HETATM    2  N   UNL     1      43.762 -16.065   4.121  1.00  0.00    -0.223 NA
HETATM    3  C   UNL     1      42.877 -15.086   3.716  1.00  0.00     0.149 A 
HETATM    4  C   UNL     1      41.806 -15.673   3.063  1.00  0.00     0.046 A 
HETATM    5  C   UNL     1      40.545 -15.073   2.553  1.00  0.00     0.070 C 
HETATM    6  C   UNL     1      40.741 -13.869   1.609  1.00  0.00     0.045 C 
HETATM    7  C   UNL     1      42.074 -13.101   1.758  1.00  0.00     0.132 C 
HETATM    8  N   UNL     1      42.429 -12.770   3.126  1.00  0.00    -0.355 N 
HETATM    9  C   UNL     1      43.050 -13.656   3.989  1.00  0.00     0.272 C 
HETATM   10  O   UNL     1      43.707 -13.214   4.929  1.00  0.00    -0.266 OA
HETATM   11  N   UNL     1      42.075 -17.017   3.065  1.00  0.00    -0.341 N 
HETATM   12  H   UNL     1      41.485 -17.743   2.692  1.00  0.00     0.167 HD
HETATM   13  H   UNL     1      42.682 -11.812   3.336  1.00  0.00     0.162 HD
ENDROOT
BRANCH   1  14
HETATM   14  C   UNL     1      43.885 -18.535   4.019  1.00  0.00     0.059 A 
HETATM   15  C   UNL     1      44.542 -18.937   5.167  1.00  0.00     0.040 A 
HETATM   16  C   UNL     1      44.850 -18.281   6.458  1.00  0.00     0.071 C 
HETATM   17  N   UNL     1      44.939 -20.225   4.917  1.00  0.00    -0.281 N 
HETATM   18  H   UNL     1      45.454 -20.850   5.527  1.00  0.00     0.189 HD
HETATM   19  N   UNL     1      44.591 -20.682   3.708  1.00  0.00    -0.179 NA
HETATM   20  C   UNL     1      43.947 -19.651   3.143  1.00  0.00     0.067 A 
HETATM   21  C   UNL     1      43.412 -19.772   1.763  1.00  0.00     0.073 C 
ENDBRANCH   1  14
BRANCH   6  22
HETATM   22  C   UNL     1      40.471 -14.277   0.158  1.00  0.00    -0.019 A 
HETATM   23  C   UNL     1      39.361 -13.758  -0.544  1.00  0.00     0.074 A 
HETATM   24  C   UNL     1      39.137 -14.140  -1.872  1.00  0.00     0.037 A 
HETATM   25  C   UNL     1      39.993 -15.043  -2.504  1.00  0.00     0.003 A 
HETATM   26  C   UNL     1      41.070 -15.584  -1.811  1.00  0.00     0.001 A 
HETATM   27  C   UNL     1      41.303 -15.212  -0.487  1.00  0.00     0.010 A 
BRANCH  23  28
HETATM   28  O   UNL     1      38.554 -12.897   0.154  1.00  0.00    -0.355 OA
HETATM   29  C   UNL     1      37.311 -13.394   0.632  1.00  0.00     0.210 C 
ENDBRANCH  23  28
ENDBRANCH   6  22
TORSDOF 3
ENDMDL
MODEL 9
REMARK VINA RESULT:      -7.8      2.802      7.273
REMARK  3 active torsions:
REMARK  status: ('A' for Active; 'I' for Inactive)
REMARK    1  A    between atoms: C_8  and  C_9 
REMARK    2  A    between atoms: C_14  and  C_15 
REMARK    3  A    between atoms: C_16  and  O_17 
ROOT
HETATM    1  C   UNL     1      43.239 -17.257   3.643  1.00  0.00     0.143 A 
HETATM    2  N   UNL     1      43.754 -16.110   4.035  1.00  0.00    -0.223 NA
HETATM    3  C   UNL     1      42.871 -15.124   3.643  1.00  0.00     0.149 A 
HETATM    4  C   UNL     1      41.794 -15.700   2.991  1.00  0.00     0.046 A 
HETATM    5  C   UNL     1      40.533 -15.090   2.492  1.00  0.00     0.070 C 
HETATM    6  C   UNL     1      40.732 -13.879   1.556  1.00  0.00     0.045 C 
HETATM    7  C   UNL     1      42.069 -13.119   1.704  1.00  0.00     0.132 C 
HETATM    8  N   UNL     1      42.432 -12.801   3.072  1.00  0.00    -0.355 N 
HETATM    9  C   UNL     1      43.053 -13.697   3.925  1.00  0.00     0.272 C 
HETATM   10  O   UNL     1      43.717 -13.265   4.866  1.00  0.00    -0.266 OA
HETATM   11  N   UNL     1      42.057 -17.045   2.980  1.00  0.00    -0.341 N 
HETATM   12  H   UNL     1      41.461 -17.766   2.605  1.00  0.00     0.167 HD
HETATM   13  H   UNL     1      42.691 -11.846   3.289  1.00  0.00     0.162 HD
ENDROOT
BRANCH   1  14
HETATM   14  C   UNL     1      43.864 -18.580   3.914  1.00  0.00     0.059 A 
HETATM   15  C   UNL     1      43.890 -19.694   3.096  1.00  0.00     0.040 A 
HETATM   16  C   UNL     1      43.362 -19.991   1.746  1.00  0.00     0.071 C 
HETATM   17  N   UNL     1      44.574 -20.643   3.811  1.00  0.00    -0.281 N 
HETATM   18  H   UNL     1      44.793 -21.595   3.537  1.00  0.00     0.189 HD
HETATM   19  N   UNL     1      44.990 -20.231   5.015  1.00  0.00    -0.179 NA
HETATM   20  C   UNL     1      44.554 -18.965   5.093  1.00  0.00     0.067 A 
HETATM   21  C   UNL     1      44.814 -18.162   6.316  1.00  0.00     0.073 C 
ENDBRANCH   1  14
BRANCH   6  22
HETATM   22  C   UNL     1      40.452 -14.275   0.103  1.00  0.00    -0.019 A 
HETATM   23  C   UNL     1      39.330 -13.759  -0.583  1.00  0.00     0.074 A 
HETATM   24  C   UNL     1      39.098 -14.129  -1.914  1.00  0.00     0.037 A 
HETATM   25  C   UNL     1      39.957 -15.018  -2.562  1.00  0.00     0.003 A 
HETATM   26  C   UNL     1      41.045 -15.555  -1.885  1.00  0.00     0.001 A 
HETATM   27  C   UNL     1      41.287 -15.195  -0.560  1.00  0.00     0.010 A 
BRANCH  23  28
HETATM   28  O   UNL     1      38.521 -12.914   0.131  1.00  0.00    -0.355 OA
HETATM   29  C   UNL     1      37.294 -13.433   0.628  1.00  0.00     0.210 C 
ENDBRANCH  23  28
ENDBRANCH   6  22
TORSDOF 3
ENDMDL
MODEL 10
REMARK VINA RESULT:      -7.7      2.616      4.714
REMARK  3 active torsions:
REMARK  status: ('A' for Active; 'I' for Inactive)
REMARK    1  A    between atoms: C_8  and  C_9 
REMARK    2  A    between atoms: C_14  and  C_15 
REMARK    3  A    between atoms: C_16  and  O_17 
ROOT
HETATM    1  C   UNL     1      39.989 -13.834   2.771  1.00  0.00     0.143 A 
HETATM    2  N   UNL     1      40.463 -14.023   1.557  1.00  0.00    -0.223 NA
HETATM    3  C   UNL     1      41.003 -15.293   1.535  1.00  0.00     0.149 A 
HETATM    4  C   UNL     1      40.850 -15.882   2.778  1.00  0.00     0.046 A 
HETATM    5  C   UNL     1      41.147 -17.268   3.229  1.00  0.00     0.070 C 
HETATM    6  C   UNL     1      42.586 -17.743   2.940  1.00  0.00     0.045 C 
HETATM    7  C   UNL     1      43.317 -17.028   1.781  1.00  0.00     0.132 C 
HETATM    8  N   UNL     1      42.538 -16.908   0.562  1.00  0.00    -0.355 N 
HETATM    9  C   UNL     1      41.602 -15.912   0.348  1.00  0.00     0.272 C 
HETATM   10  O   UNL     1      41.317 -15.596  -0.805  1.00  0.00    -0.266 OA
HETATM   11  N   UNL     1      40.229 -14.936   3.552  1.00  0.00    -0.341 N 
HETATM   12  H   UNL     1      39.941 -15.045   4.511  1.00  0.00     0.167 HD
HETATM   13  H   UNL     1      42.963 -17.207  -0.308  1.00  0.00     0.162 HD
ENDROOT
BRANCH   1  14
HETATM   14  C   UNL     1      39.280 -12.598   3.200  1.00  0.00     0.059 A 
HETATM   15  C   UNL     1      39.366 -11.942   4.414  1.00  0.00     0.040 A 
HETATM   16  C   UNL     1      40.129 -12.181   5.659  1.00  0.00     0.071 C 
HETATM   17  N   UNL     1      38.514 -10.875   4.302  1.00  0.00    -0.281 N 
HETATM   18  H   UNL     1      38.308 -10.164   4.995  1.00  0.00     0.189 HD
HETATM   19  N   UNL     1      37.892 -10.789   3.120  1.00  0.00    -0.179 NA
HETATM   20  C   UNL     1      38.350 -11.846   2.434  1.00  0.00     0.067 A 
HETATM   21  C   UNL     1      37.868 -12.104   1.053  1.00  0.00     0.073 C 
ENDBRANCH   1  14
BRANCH   6  22
HETATM   22  C   UNL     1      43.416 -17.749   4.227  1.00  0.00    -0.019 A 
HETATM   23  C   UNL     1      44.257 -18.840   4.540  1.00  0.00     0.074 A 
HETATM   24  C   UNL     1      45.013 -18.821   5.718  1.00  0.00     0.037 A 
HETATM   25  C   UNL     1      44.928 -17.740   6.597  1.00  0.00     0.003 A 
HETATM   26  C   UNL     1      44.079 -16.676   6.313  1.00  0.00     0.001 A 
HETATM   27  C   UNL     1      43.321 -16.684   5.143  1.00  0.00     0.010 A 
BRANCH  23  28
HETATM   28  O   UNL     1      44.265 -19.873   3.639  1.00  0.00    -0.355 OA
HETATM   29  C   UNL     1      44.815 -21.115   4.060  1.00  0.00     0.210 C 
ENDBRANCH  23  28
ENDBRANCH   6  22
TORSDOF 3
ENDMDL
