MODEL 1
REMARK VINA RESULT:      -8.0      0.000      0.000
REMARK  5 active torsions:
REMARK  status: ('A' for Active; 'I' for Inactive)
REMARK    1  A    between atoms: C_8  and  C_9 
REMARK    2  A    between atoms: C_9  and  N_10 
REMARK    3  A    between atoms: N_10  and  C_13 
REMARK    4  A    between atoms: C_16  and  O_17 
REMARK    5  A    between atoms: O_17  and  C_18 
ROOT
HETATM    1  C   UNL     1      42.206 -15.030   1.549  1.00  0.00     0.164 A 
HETATM    2  N   UNL     1      41.786 -13.804   1.173  1.00  0.00    -0.236 NA
HETATM    3  C   UNL     1      41.121 -13.721  -0.007  1.00  0.00     0.142 A 
HETATM    4  C   UNL     1      40.867 -14.808  -0.830  1.00  0.00     0.062 A 
HETATM    5  C   UNL     1      40.160 -14.638  -2.059  1.00  0.00     0.101 C 
HETATM    6  N   UNL     1      39.590 -14.495  -3.059  1.00  0.00    -0.191 NA
HETATM    7  C   UNL     1      41.325 -16.059  -0.418  1.00  0.00     0.028 A 
HETATM    8  C   UNL     1      42.015 -16.172   0.789  1.00  0.00     0.059 A 
ENDROOT
BRANCH   1   9
HETATM    9  O   UNL     1      42.916 -15.172   2.726  1.00  0.00    -0.329 OA
BRANCH   9  10
HETATM   10  C   UNL     1      42.196 -14.735   3.889  1.00  0.00     0.130 C 
HETATM   11  C   UNL     1      41.069 -15.753   4.128  1.00  0.00     0.034 C 
HETATM   12  C   UNL     1      41.594 -17.130   4.546  1.00  0.00     0.035 C 
HETATM   13  C   UNL     1      42.508 -17.022   5.769  1.00  0.00     0.186 C 
HETATM   14  C   UNL     1      43.661 -16.057   5.507  1.00  0.00     0.035 C 
HETATM   15  C   UNL     1      43.129 -14.678   5.108  1.00  0.00     0.034 C 
BRANCH  13  16
HETATM   16  N   UNL     1      43.018 -18.389   6.099  1.00  0.00    -0.067 N 
HETATM   17  H   UNL     1      42.329 -19.114   5.861  1.00  0.00     0.277 HD
HETATM   18  H   UNL     1      43.140 -18.447   7.122  1.00  0.00     0.277 HD
BRANCH  16  19
HETATM   19  C   UNL     1      44.340 -18.761   5.505  1.00  0.00     0.274 C 
BRANCH  19  20
HETATM   20  C   UNL     1      44.195 -19.563   4.250  1.00  0.00     0.004 A 
HETATM   21  C   UNL     1      44.476 -20.920   4.234  1.00  0.00     0.113 A 
HETATM   22  C   UNL     1      44.402 -21.674   3.087  1.00  0.00     0.105 A 
HETATM   23  O   UNL     1      44.834 -21.665   5.319  1.00  0.00    -0.322 OA
HETATM   24  C   UNL     1      44.034 -21.120   1.881  1.00  0.00     0.040 A 
HETATM   25  O   UNL     1      44.723 -22.975   3.298  1.00  0.00    -0.323 OA
HETATM   26  C   UNL     1      43.739 -19.755   1.857  1.00  0.00     0.003 A 
HETATM   27  C   UNL     1      43.821 -18.980   3.029  1.00  0.00     0.012 A 
HETATM   28  C   UNL     1      45.072 -22.956   4.694  1.00  0.00     0.352 A 
ENDBRANCH  19  20
ENDBRANCH  16  19
ENDBRANCH  13  16
ENDBRANCH   9  10
ENDBRANCH   1   9
TORSDOF 5
ENDMDL
MODEL 2
REMARK VINA RESULT:      -8.0      2.624      7.879
REMARK  5 active torsions:
REMARK  status: ('A' for Active; 'I' for Inactive)
REMARK    1  A    between atoms: C_8  and  C_9 
REMARK    2  A    between atoms: C_9  and  N_10 
REMARK    3  A    between atoms: N_10  and  C_13 
REMARK    4  A    between atoms: C_16  and  O_17 
REMARK    5  A    between atoms: O_17  and  C_18 
ROOT
HETATM    1  C   UNL     1      43.837 -17.733   3.064  1.00  0.00     0.164 A 
HETATM    2  N   UNL     1      44.125 -18.322   4.243  1.00  0.00    -0.236 NA
HETATM    3  C   UNL     1      44.334 -19.662   4.222  1.00  0.00     0.142 A 
HETATM    4  C   UNL     1      44.256 -20.439   3.076  1.00  0.00     0.062 A 
HETATM    5  C   UNL     1      44.488 -21.846   3.137  1.00  0.00     0.101 C 
HETATM    6  N   UNL     1      44.673 -22.990   3.191  1.00  0.00    -0.191 NA
HETATM    7  C   UNL     1      43.943 -19.802   1.876  1.00  0.00     0.028 A 
HETATM    8  C   UNL     1      43.720 -18.425   1.870  1.00  0.00     0.059 A 
ENDROOT
BRANCH   1   9
HETATM    9  O   UNL     1      43.583 -16.374   3.028  1.00  0.00    -0.329 OA
BRANCH   9  10
HETATM   10  C   UNL     1      42.523 -15.964   3.906  1.00  0.00     0.130 C 
HETATM   11  C   UNL     1      42.685 -14.451   4.129  1.00  0.00     0.034 C 
HETATM   12  C   UNL     1      42.417 -13.634   2.862  1.00  0.00     0.035 C 
HETATM   13  C   UNL     1      41.042 -13.961   2.276  1.00  0.00     0.186 C 
HETATM   14  C   UNL     1      40.907 -15.456   1.998  1.00  0.00     0.035 C 
HETATM   15  C   UNL     1      41.156 -16.266   3.273  1.00  0.00     0.034 C 
BRANCH  13  16
HETATM   16  N   UNL     1      40.860 -13.165   1.023  1.00  0.00    -0.067 N 
HETATM   17  H   UNL     1      40.119 -12.461   1.131  1.00  0.00     0.277 HD
HETATM   18  H   UNL     1      40.531 -13.803   0.282  1.00  0.00     0.277 HD
BRANCH  16  19
HETATM   19  C   UNL     1      42.087 -12.502   0.479  1.00  0.00     0.274 C 
BRANCH  19  20
HETATM   20  C   UNL     1      42.048 -12.367  -1.010  1.00  0.00     0.004 A 
HETATM   21  C   UNL     1      41.667 -13.431  -1.813  1.00  0.00     0.113 A 
HETATM   22  C   UNL     1      41.670 -13.356  -3.186  1.00  0.00     0.105 A 
HETATM   23  O   UNL     1      41.236 -14.645  -1.364  1.00  0.00    -0.322 OA
HETATM   24  C   UNL     1      42.048 -12.208  -3.846  1.00  0.00     0.040 A 
HETATM   25  O   UNL     1      41.267 -14.512  -3.771  1.00  0.00    -0.323 OA
HETATM   26  C   UNL     1      42.436 -11.112  -3.072  1.00  0.00     0.003 A 
HETATM   27  C   UNL     1      42.440 -11.189  -1.666  1.00  0.00     0.012 A 
HETATM   28  C   UNL     1      41.066 -15.354  -2.621  1.00  0.00     0.352 A 
ENDBRANCH  19  20
ENDBRANCH  16  19
ENDBRANCH  13  16
ENDBRANCH   9  10
ENDBRANCH   1   9
TORSDOF 5
ENDMDL
MODEL 3
REMARK VINA RESULT:      -8.0      1.508      2.301
REMARK  5 active torsions:
REMARK  status: ('A' for Active; 'I' for Inactive)
REMARK    1  A    between atoms: C_8  and  C_9 
REMARK    2  A    between atoms: C_9  and  N_10 
REMARK    3  A    between atoms: N_10  and  C_13 
REMARK    4  A    between atoms: C_16  and  O_17 
REMARK    5  A    between atoms: O_17  and  C_18 
ROOT
HETATM    1  C   UNL     1      42.600 -14.890   2.491  1.00  0.00     0.164 A 
HETATM    2  N   UNL     1      42.115 -15.666   1.500  1.00  0.00    -0.236 NA
HETATM    3  C   UNL     1      41.547 -15.028   0.446  1.00  0.00     0.142 A 
HETATM    4  C   UNL     1      41.436 -13.649   0.344  1.00  0.00     0.062 A 
HETATM    5  C   UNL     1      40.823 -13.053  -0.799  1.00  0.00     0.101 C 
HETATM    6  N   UNL     1      40.321 -12.572  -1.728  1.00  0.00    -0.191 NA
HETATM    7  C   UNL     1      41.936 -12.876   1.391  1.00  0.00     0.028 A 
HETATM    8  C   UNL     1      42.521 -13.506   2.489  1.00  0.00     0.059 A 
ENDROOT
BRANCH   1   9
HETATM    9  O   UNL     1      43.162 -15.484   3.606  1.00  0.00    -0.329 OA
BRANCH   9  10
HETATM   10  C   UNL     1      42.507 -15.134   4.835  1.00  0.00     0.130 C 
HETATM   11  C   UNL     1      41.345 -16.123   5.021  1.00  0.00     0.034 C 
HETATM   12  C   UNL     1      41.821 -17.554   5.282  1.00  0.00     0.035 C 
HETATM   13  C   UNL     1      42.785 -17.605   6.470  1.00  0.00     0.186 C 
HETATM   14  C   UNL     1      43.971 -16.668   6.253  1.00  0.00     0.035 C 
HETATM   15  C   UNL     1      43.488 -15.236   6.013  1.00  0.00     0.034 C 
BRANCH  13  16
HETATM   16  N   UNL     1      43.245 -19.018   6.645  1.00  0.00    -0.067 N 
HETATM   17  H   UNL     1      42.572 -19.684   6.242  1.00  0.00     0.277 HD
HETATM   18  H   UNL     1      43.269 -19.225   7.655  1.00  0.00     0.277 HD
BRANCH  16  19
HETATM   19  C   UNL     1      44.613 -19.336   6.128  1.00  0.00     0.274 C 
BRANCH  19  20
HETATM   20  C   UNL     1      44.582 -20.334   5.013  1.00  0.00     0.004 A 
HETATM   21  C   UNL     1      44.301 -19.944   3.713  1.00  0.00     0.113 A 
HETATM   22  C   UNL     1      44.214 -20.843   2.676  1.00  0.00     0.105 A 
HETATM   23  O   UNL     1      44.095 -18.660   3.301  1.00  0.00    -0.322 OA
HETATM   24  C   UNL     1      44.413 -22.191   2.872  1.00  0.00     0.040 A 
HETATM   25  O   UNL     1      43.924 -20.246   1.493  1.00  0.00    -0.323 OA
HETATM   26  C   UNL     1      44.703 -22.624   4.168  1.00  0.00     0.003 A 
HETATM   27  C   UNL     1      44.784 -21.706   5.232  1.00  0.00     0.012 A 
HETATM   28  C   UNL     1      43.772 -18.874   1.900  1.00  0.00     0.352 A 
ENDBRANCH  19  20
ENDBRANCH  16  19
ENDBRANCH  13  16
ENDBRANCH   9  10
ENDBRANCH   1   9
TORSDOF 5
ENDMDL
MODEL 4
REMARK VINA RESULT:      -7.9      4.753      8.723
REMARK  5 active torsions:
REMARK  status: ('A' for Active; 'I' for Inactive)
REMARK    1  A    between atoms: C_8  and  C_9 
REMARK    2  A    between atoms: C_9  and  N_10 
REMARK    3  A    between atoms: N_10  and  C_13 
REMARK    4  A    between atoms: C_16  and  O_17 
REMARK    5  A    between atoms: O_17  and  C_18 
ROOT
HETATM    1  C   UNL     1      43.165 -17.699   3.992  1.00  0.00     0.164 A 
HETATM    2  N   UNL     1      44.069 -18.525   4.558  1.00  0.00    -0.236 NA
HETATM    3  C   UNL     1      44.359 -19.668   3.887  1.00  0.00     0.142 A 
HETATM    4  C   UNL     1      43.778 -20.023   2.679  1.00  0.00     0.062 A 
HETATM    5  C   UNL     1      44.137 -21.245   2.034  1.00  0.00     0.101 C 
HETATM    6  N   UNL     1      44.427 -22.241   1.515  1.00  0.00    -0.191 NA
HETATM    7  C   UNL     1      42.839 -19.154   2.126  1.00  0.00     0.028 A 
HETATM    8  C   UNL     1      42.519 -17.974   2.797  1.00  0.00     0.059 A 
ENDROOT
BRANCH   1   9
HETATM    9  O   UNL     1      42.805 -16.535   4.645  1.00  0.00    -0.329 OA
BRANCH   9  10
HETATM   10  C   UNL     1      42.437 -15.468   3.757  1.00  0.00     0.130 C 
HETATM   11  C   UNL     1      41.097 -14.908   4.261  1.00  0.00     0.034 C 
HETATM   12  C   UNL     1      41.222 -14.201   5.614  1.00  0.00     0.035 C 
HETATM   13  C   UNL     1      42.294 -13.110   5.567  1.00  0.00     0.186 C 
HETATM   14  C   UNL     1      43.639 -13.682   5.126  1.00  0.00     0.035 C 
HETATM   15  C   UNL     1      43.511 -14.369   3.765  1.00  0.00     0.034 C 
BRANCH  13  16
HETATM   16  N   UNL     1      42.395 -12.489   6.925  1.00  0.00    -0.067 N 
HETATM   17  H   UNL     1      43.368 -12.469   7.256  1.00  0.00     0.277 HD
HETATM   18  H   UNL     1      41.888 -13.091   7.592  1.00  0.00     0.277 HD
BRANCH  16  19
HETATM   19  C   UNL     1      41.802 -11.123   7.071  1.00  0.00     0.274 C 
BRANCH  19  20
HETATM   20  C   UNL     1      41.803 -10.651   8.491  1.00  0.00     0.004 A 
HETATM   21  C   UNL     1      42.965 -10.667   9.248  1.00  0.00     0.113 A 
HETATM   22  C   UNL     1      42.989 -10.289  10.570  1.00  0.00     0.105 A 
HETATM   23  O   UNL     1      44.199 -11.031   8.793  1.00  0.00    -0.322 OA
HETATM   24  C   UNL     1      41.852  -9.862  11.219  1.00  0.00     0.040 A 
HETATM   25  O   UNL     1      44.227 -10.388  11.116  1.00  0.00    -0.323 OA
HETATM   26  C   UNL     1      40.662  -9.828  10.490  1.00  0.00     0.003 A 
HETATM   27  C   UNL     1      40.634 -10.222   9.138  1.00  0.00     0.012 A 
HETATM   28  C   UNL     1      44.978 -10.931  10.016  1.00  0.00     0.352 A 
ENDBRANCH  19  20
ENDBRANCH  16  19
ENDBRANCH  13  16
ENDBRANCH   9  10
ENDBRANCH   1   9
TORSDOF 5
ENDMDL
MODEL 5
REMARK VINA RESULT:      -7.8      2.331      3.191
REMARK  5 active torsions:
REMARK  status: ('A' for Active; 'I' for Inactive)
REMARK    1  A    between atoms: C_8  and  C_9 
REMARK    2  A    between atoms: C_9  and  N_10 
REMARK    3  A    between atoms: N_10  and  C_13 
REMARK    4  A    between atoms: C_16  and  O_17 
REMARK    5  A    between atoms: O_17  and  C_18 
ROOT
HETATM    1  C   UNL     1      41.881 -14.253   1.061  1.00  0.00     0.164 A 
HETATM    2  N   UNL     1      41.743 -13.242   0.178  1.00  0.00    -0.236 NA
HETATM    3  C   UNL     1      41.349 -13.574  -1.077  1.00  0.00     0.142 A 
HETATM    4  C   UNL     1      41.094 -14.874  -1.488  1.00  0.00     0.062 A 
HETATM    5  C   UNL     1      40.682 -15.143  -2.828  1.00  0.00     0.101 C 
HETATM    6  N   UNL     1      40.352 -15.357  -3.920  1.00  0.00    -0.191 NA
HETATM    7  C   UNL     1      41.258 -15.897  -0.556  1.00  0.00     0.028 A 
HETATM    8  C   UNL     1      41.667 -15.584   0.740  1.00  0.00     0.059 A 
ENDROOT
BRANCH   1   9
HETATM    9  O   UNL     1      42.312 -13.979   2.346  1.00  0.00    -0.329 OA
BRANCH   9  10
HETATM   10  C   UNL     1      41.550 -12.953   3.000  1.00  0.00     0.130 C 
HETATM   11  C   UNL     1      40.138 -13.518   3.226  1.00  0.00     0.034 C 
HETATM   12  C   UNL     1      40.113 -14.665   4.241  1.00  0.00     0.035 C 
HETATM   13  C   UNL     1      40.756 -14.242   5.563  1.00  0.00     0.186 C 
HETATM   14  C   UNL     1      42.181 -13.740   5.344  1.00  0.00     0.035 C 
HETATM   15  C   UNL     1      42.196 -12.581   4.344  1.00  0.00     0.034 C 
BRANCH  13  16
HETATM   16  N   UNL     1      40.739 -15.415   6.493  1.00  0.00    -0.067 N 
HETATM   17  H   UNL     1      40.075 -15.271   7.265  1.00  0.00     0.277 HD
HETATM   18  H   UNL     1      41.668 -15.487   6.935  1.00  0.00     0.277 HD
BRANCH  16  19
HETATM   19  C   UNL     1      40.476 -16.748   5.867  1.00  0.00     0.274 C 
BRANCH  19  20
HETATM   20  C   UNL     1      41.737 -17.454   5.479  1.00  0.00     0.004 A 
HETATM   21  C   UNL     1      42.709 -17.748   6.423  1.00  0.00     0.113 A 
HETATM   22  C   UNL     1      43.901 -18.348   6.091  1.00  0.00     0.105 A 
HETATM   23  O   UNL     1      42.609 -17.504   7.762  1.00  0.00    -0.322 OA
HETATM   24  C   UNL     1      44.194 -18.701   4.793  1.00  0.00     0.040 A 
HETATM   25  O   UNL     1      44.705 -18.537   7.167  1.00  0.00    -0.323 OA
HETATM   26  C   UNL     1      43.238 -18.425   3.813  1.00  0.00     0.003 A 
HETATM   27  C   UNL     1      42.021 -17.803   4.150  1.00  0.00     0.012 A 
HETATM   28  C   UNL     1      43.923 -17.933   8.213  1.00  0.00     0.352 A 
ENDBRANCH  19  20
ENDBRANCH  16  19
ENDBRANCH  13  16
ENDBRANCH   9  10
ENDBRANCH   1   9
TORSDOF 5
ENDMDL
MODEL 6
REMARK VINA RESULT:      -7.8      2.637      6.343
REMARK  5 active torsions:
REMARK  status: ('A' for Active; 'I' for Inactive)
REMARK    1  A    between atoms: C_8  and  C_9 
REMARK    2  A    between atoms: C_9  and  N_10 
REMARK    3  A    between atoms: N_10  and  C_13 
REMARK    4  A    between atoms: C_16  and  O_17 
REMARK    5  A    between atoms: O_17  and  C_18 
ROOT
HETATM    1  C   UNL     1      43.964 -18.034   2.662  1.00  0.00     0.164 A 
HETATM    2  N   UNL     1      44.112 -18.009   4.003  1.00  0.00    -0.236 NA
HETATM    3  C   UNL     1      44.413 -19.186   4.608  1.00  0.00     0.142 A 
HETATM    4  C   UNL     1      44.563 -20.387   3.931  1.00  0.00     0.062 A 
HETATM    5  C   UNL     1      44.880 -21.584   4.640  1.00  0.00     0.101 C 
HETATM    6  N   UNL     1      45.134 -22.556   5.221  1.00  0.00    -0.191 NA
HETATM    7  C   UNL     1      44.391 -20.381   2.547  1.00  0.00     0.028 A 
HETATM    8  C   UNL     1      44.077 -19.186   1.901  1.00  0.00     0.059 A 
ENDROOT
BRANCH   1   9
HETATM    9  O   UNL     1      43.625 -16.872   1.994  1.00  0.00    -0.329 OA
BRANCH   9  10
HETATM   10  C   UNL     1      42.432 -16.991   1.204  1.00  0.00     0.130 C 
HETATM   11  C   UNL     1      41.351 -17.600   2.113  1.00  0.00     0.034 C 
HETATM   12  C   UNL     1      40.924 -16.657   3.241  1.00  0.00     0.035 C 
HETATM   13  C   UNL     1      40.479 -15.302   2.686  1.00  0.00     0.186 C 
HETATM   14  C   UNL     1      41.577 -14.670   1.835  1.00  0.00     0.035 C 
HETATM   15  C   UNL     1      41.985 -15.610   0.698  1.00  0.00     0.034 C 
BRANCH  13  16
HETATM   16  N   UNL     1      40.116 -14.417   3.836  1.00  0.00    -0.067 N 
HETATM   17  H   UNL     1      39.147 -14.081   3.760  1.00  0.00     0.277 HD
HETATM   18  H   UNL     1      40.707 -13.572   3.790  1.00  0.00     0.277 HD
BRANCH  16  19
HETATM   19  C   UNL     1      40.326 -14.991   5.202  1.00  0.00     0.274 C 
BRANCH  19  20
HETATM   20  C   UNL     1      41.750 -14.883   5.652  1.00  0.00     0.004 A 
HETATM   21  C   UNL     1      42.334 -15.880   6.418  1.00  0.00     0.113 A 
HETATM   22  C   UNL     1      43.622 -15.788   6.890  1.00  0.00     0.105 A 
HETATM   23  O   UNL     1      41.734 -17.052   6.778  1.00  0.00    -0.322 OA
HETATM   24  C   UNL     1      44.413 -14.695   6.619  1.00  0.00     0.040 A 
HETATM   25  O   UNL     1      43.986 -16.872   7.620  1.00  0.00    -0.323 OA
HETATM   26  C   UNL     1      43.862 -13.670   5.846  1.00  0.00     0.003 A 
HETATM   27  C   UNL     1      42.541 -13.758   5.369  1.00  0.00     0.012 A 
HETATM   28  C   UNL     1      42.768 -17.637   7.616  1.00  0.00     0.352 A 
ENDBRANCH  19  20
ENDBRANCH  16  19
ENDBRANCH  13  16
ENDBRANCH   9  10
ENDBRANCH   1   9
TORSDOF 5
ENDMDL
MODEL 7
REMARK VINA RESULT:      -7.7      1.949      2.771
REMARK  5 active torsions:
REMARK  status: ('A' for Active; 'I' for Inactive)
REMARK    1  A    between atoms: C_8  and  C_9 
REMARK    2  A    between atoms: C_9  and  N_10 
REMARK    3  A    between atoms: N_10  and  C_13 
REMARK    4  A    between atoms: C_16  and  O_17 
REMARK    5  A    between atoms: O_17  and  C_18 
ROOT
HETATM    1  C   UNL     1      39.837 -14.856   1.740  1.00  0.00     0.164 A 
HETATM    2  N   UNL     1      40.762 -15.070   0.781  1.00  0.00    -0.236 NA
HETATM    3  C   UNL     1      40.447 -14.663  -0.474  1.00  0.00     0.142 A 
HETATM    4  C   UNL     1      39.245 -14.061  -0.813  1.00  0.00     0.062 A 
HETATM    5  C   UNL     1      38.988 -13.661  -2.159  1.00  0.00     0.101 C 
HETATM    6  N   UNL     1      38.782 -13.342  -3.255  1.00  0.00    -0.191 NA
HETATM    7  C   UNL     1      38.305 -13.866   0.198  1.00  0.00     0.028 A 
HETATM    8  C   UNL     1      38.602 -14.278   1.497  1.00  0.00     0.059 A 
ENDROOT
BRANCH   1   9
HETATM    9  O   UNL     1      40.088 -15.278   3.032  1.00  0.00    -0.329 OA
BRANCH   9  10
HETATM   10  C   UNL     1      40.338 -14.202   3.950  1.00  0.00     0.130 C 
HETATM   11  C   UNL     1      40.112 -14.758   5.365  1.00  0.00     0.034 C 
HETATM   12  C   UNL     1      41.158 -15.801   5.766  1.00  0.00     0.035 C 
HETATM   13  C   UNL     1      42.576 -15.246   5.612  1.00  0.00     0.186 C 
HETATM   14  C   UNL     1      42.819 -14.753   4.188  1.00  0.00     0.035 C 
HETATM   15  C   UNL     1      41.781 -13.696   3.801  1.00  0.00     0.034 C 
BRANCH  13  16
HETATM   16  N   UNL     1      43.548 -16.324   5.978  1.00  0.00    -0.067 N 
HETATM   17  H   UNL     1      44.052 -16.095   6.843  1.00  0.00     0.277 HD
HETATM   18  H   UNL     1      44.267 -16.371   5.241  1.00  0.00     0.277 HD
BRANCH  16  19
HETATM   19  C   UNL     1      42.986 -17.707   6.093  1.00  0.00     0.274 C 
BRANCH  19  20
HETATM   20  C   UNL     1      43.622 -18.661   5.132  1.00  0.00     0.004 A 
HETATM   21  C   UNL     1      43.273 -18.661   3.790  1.00  0.00     0.113 A 
HETATM   22  C   UNL     1      43.801 -19.559   2.892  1.00  0.00     0.105 A 
HETATM   23  O   UNL     1      42.404 -17.791   3.201  1.00  0.00    -0.322 OA
HETATM   24  C   UNL     1      44.719 -20.510   3.277  1.00  0.00     0.040 A 
HETATM   25  O   UNL     1      43.316 -19.383   1.637  1.00  0.00    -0.323 OA
HETATM   26  C   UNL     1      45.099 -20.539   4.620  1.00  0.00     0.003 A 
HETATM   27  C   UNL     1      44.555 -19.627   5.543  1.00  0.00     0.012 A 
HETATM   28  C   UNL     1      42.374 -18.316   1.845  1.00  0.00     0.352 A 
ENDBRANCH  19  20
ENDBRANCH  16  19
ENDBRANCH  13  16
ENDBRANCH   9  10
ENDBRANCH   1   9
TORSDOF 5
ENDMDL
MODEL 8
REMARK VINA RESULT:      -7.6      2.887      7.044
REMARK  5 active torsions:
REMARK  status: ('A' for Active; 'I' for Inactive)
REMARK    1  A    between atoms: C_8  and  C_9 
REMARK    2  A    between atoms: C_9  and  N_10 
REMARK    3  A    between atoms: N_10  and  C_13 
REMARK    4  A    between atoms: C_16  and  O_17 
REMARK    5  A    between atoms: O_17  and  C_18 
ROOT
HETATM    1  C   UNL     1      43.741 -17.705   3.847  1.00  0.00     0.164 A 
HETATM    2  N   UNL     1      44.353 -18.597   4.653  1.00  0.00    -0.236 NA
HETATM    3  C   UNL     1      44.559 -19.839   4.146  1.00  0.00     0.142 A 
HETATM    4  C   UNL     1      44.171 -20.229   2.873  1.00  0.00     0.062 A 
HETATM    5  C   UNL     1      44.423 -21.556   2.413  1.00  0.00     0.101 C 
HETATM    6  N   UNL     1      44.626 -22.637   2.044  1.00  0.00    -0.191 NA
HETATM    7  C   UNL     1      43.529 -19.287   2.070  1.00  0.00     0.028 A 
HETATM    8  C   UNL     1      43.301 -18.004   2.567  1.00  0.00     0.059 A 
ENDROOT
BRANCH   1   9
HETATM    9  O   UNL     1      43.475 -16.433   4.319  1.00  0.00    -0.329 OA
BRANCH   9  10
HETATM   10  C   UNL     1      43.204 -16.389   5.728  1.00  0.00     0.130 C 
HETATM   11  C   UNL     1      43.297 -14.915   6.157  1.00  0.00     0.034 C 
HETATM   12  C   UNL     1      42.179 -14.053   5.565  1.00  0.00     0.035 C 
HETATM   13  C   UNL     1      40.803 -14.637   5.892  1.00  0.00     0.186 C 
HETATM   14  C   UNL     1      40.691 -16.080   5.409  1.00  0.00     0.035 C 
HETATM   15  C   UNL     1      41.800 -16.940   6.021  1.00  0.00     0.034 C 
BRANCH  13  16
HETATM   16  N   UNL     1      39.760 -13.775   5.252  1.00  0.00    -0.067 N 
HETATM   17  H   UNL     1      39.180 -13.303   5.957  1.00  0.00     0.277 HD
HETATM   18  H   UNL     1      39.117 -14.387   4.727  1.00  0.00     0.277 HD
BRANCH  16  19
HETATM   19  C   UNL     1      40.256 -12.760   4.270  1.00  0.00     0.274 C 
BRANCH  19  20
HETATM   20  C   UNL     1      39.651 -12.939   2.913  1.00  0.00     0.004 A 
HETATM   21  C   UNL     1      40.193 -13.833   2.002  1.00  0.00     0.113 A 
HETATM   22  C   UNL     1      39.693 -13.983   0.730  1.00  0.00     0.105 A 
HETATM   23  O   UNL     1      41.246 -14.665   2.244  1.00  0.00    -0.322 OA
HETATM   24  C   UNL     1      38.612 -13.253   0.289  1.00  0.00     0.040 A 
HETATM   25  O   UNL     1      40.377 -14.906   0.008  1.00  0.00    -0.323 OA
HETATM   26  C   UNL     1      38.035 -12.344   1.178  1.00  0.00     0.003 A 
HETATM   27  C   UNL     1      38.550 -12.183   2.479  1.00  0.00     0.012 A 
HETATM   28  C   UNL     1      41.408 -15.282   0.938  1.00  0.00     0.352 A 
ENDBRANCH  19  20
ENDBRANCH  16  19
ENDBRANCH  13  16
ENDBRANCH   9  10
ENDBRANCH   1   9
TORSDOF 5
ENDMDL
MODEL 9
REMARK VINA RESULT:      -7.6      2.125      3.264
REMARK  5 active torsions:
REMARK  status: ('A' for Active; 'I' for Inactive)
REMARK    1  A    between atoms: C_8  and  C_9 
REMARK    2  A    between atoms: C_9  and  N_10 
REMARK    3  A    between atoms: N_10  and  C_13 
REMARK    4  A    between atoms: C_16  and  O_17 
REMARK    5  A    between atoms: O_17  and  C_18 
ROOT
HETATM    1  C   UNL     1      39.982 -14.176  -1.072  1.00  0.00     0.164 A 
HETATM    2  N   UNL     1      38.801 -13.529  -0.992  1.00  0.00    -0.236 NA
HETATM    3  C   UNL     1      37.922 -13.732  -2.006  1.00  0.00     0.142 A 
HETATM    4  C   UNL     1      38.178 -14.546  -3.100  1.00  0.00     0.062 A 
HETATM    5  C   UNL     1      37.201 -14.708  -4.128  1.00  0.00     0.101 C 
HETATM    6  N   UNL     1      36.406 -14.833  -4.963  1.00  0.00    -0.191 NA
HETATM    7  C   UNL     1      39.414 -15.190  -3.158  1.00  0.00     0.028 A 
HETATM    8  C   UNL     1      40.337 -14.996  -2.131  1.00  0.00     0.059 A 
ENDROOT
BRANCH   1   9
HETATM    9  O   UNL     1      40.930 -13.983  -0.084  1.00  0.00    -0.329 OA
BRANCH   9  10
HETATM   10  C   UNL     1      40.387 -13.463   1.140  1.00  0.00     0.130 C 
HETATM   11  C   UNL     1      39.754 -14.647   1.889  1.00  0.00     0.034 C 
HETATM   12  C   UNL     1      40.791 -15.661   2.378  1.00  0.00     0.035 C 
HETATM   13  C   UNL     1      41.867 -14.982   3.228  1.00  0.00     0.186 C 
HETATM   14  C   UNL     1      42.537 -13.846   2.459  1.00  0.00     0.035 C 
HETATM   15  C   UNL     1      41.496 -12.826   1.990  1.00  0.00     0.034 C 
BRANCH  13  16
HETATM   16  N   UNL     1      42.868 -16.015   3.637  1.00  0.00    -0.067 N 
HETATM   17  H   UNL     1      42.441 -16.736   4.233  1.00  0.00     0.277 HD
HETATM   18  H   UNL     1      43.581 -15.557   4.225  1.00  0.00     0.277 HD
BRANCH  16  19
HETATM   19  C   UNL     1      43.618 -16.683   2.527  1.00  0.00     0.274 C 
BRANCH  19  20
HETATM   20  C   UNL     1      43.791 -18.151   2.760  1.00  0.00     0.004 A 
HETATM   21  C   UNL     1      44.167 -18.637   4.002  1.00  0.00     0.113 A 
HETATM   22  C   UNL     1      44.384 -19.975   4.235  1.00  0.00     0.105 A 
HETATM   23  O   UNL     1      44.349 -17.882   5.124  1.00  0.00    -0.322 OA
HETATM   24  C   UNL     1      44.231 -20.915   3.241  1.00  0.00     0.040 A 
HETATM   25  O   UNL     1      44.750 -20.227   5.517  1.00  0.00    -0.323 OA
HETATM   26  C   UNL     1      43.849 -20.465   1.975  1.00  0.00     0.003 A 
HETATM   27  C   UNL     1      43.633 -19.095   1.733  1.00  0.00     0.012 A 
HETATM   28  C   UNL     1      44.803 -18.896   6.061  1.00  0.00     0.352 A 
ENDBRANCH  19  20
ENDBRANCH  16  19
ENDBRANCH  13  16
ENDBRANCH   9  10
ENDBRANCH   1   9
TORSDOF 5
ENDMDL
MODEL 10
REMARK VINA RESULT:      -7.6      5.174      8.844
REMARK  5 active torsions:
REMARK  status: ('A' for Active; 'I' for Inactive)
REMARK    1  A    between atoms: C_8  and  C_9 
REMARK    2  A    between atoms: C_9  and  N_10 
REMARK    3  A    between atoms: N_10  and  C_13 
REMARK    4  A    between atoms: C_16  and  O_17 
REMARK    5  A    between atoms: O_17  and  C_18 
ROOT
HETATM    1  C   UNL     1      41.757 -16.650   4.353  1.00  0.00     0.164 A 
HETATM    2  N   UNL     1      41.842 -16.847   3.022  1.00  0.00    -0.236 NA
HETATM    3  C   UNL     1      42.575 -17.911   2.607  1.00  0.00     0.142 A 
HETATM    4  C   UNL     1      43.232 -18.779   3.465  1.00  0.00     0.062 A 
HETATM    5  C   UNL     1      43.985 -19.877   2.950  1.00  0.00     0.101 C 
HETATM    6  N   UNL     1      44.600 -20.766   2.527  1.00  0.00    -0.191 NA
HETATM    7  C   UNL     1      43.135 -18.540   4.835  1.00  0.00     0.028 A 
HETATM    8  C   UNL     1      42.391 -17.450   5.289  1.00  0.00     0.059 A 
ENDROOT
BRANCH   1   9
HETATM    9  O   UNL     1      41.050 -15.563   4.835  1.00  0.00    -0.329 OA
BRANCH   9  10
HETATM   10  C   UNL     1      41.230 -14.370   4.056  1.00  0.00     0.130 C 
HETATM   11  C   UNL     1      40.012 -13.471   4.325  1.00  0.00     0.034 C 
HETATM   12  C   UNL     1      39.973 -12.941   5.761  1.00  0.00     0.035 C 
HETATM   13  C   UNL     1      41.277 -12.225   6.119  1.00  0.00     0.186 C 
HETATM   14  C   UNL     1      42.480 -13.141   5.910  1.00  0.00     0.035 C 
HETATM   15  C   UNL     1      42.524 -13.652   4.467  1.00  0.00     0.034 C 
BRANCH  13  16
HETATM   16  N   UNL     1      41.191 -11.770   7.542  1.00  0.00    -0.067 N 
HETATM   17  H   UNL     1      41.334 -12.551   8.194  1.00  0.00     0.277 HD
HETATM   18  H   UNL     1      40.231 -11.436   7.714  1.00  0.00     0.277 HD
BRANCH  16  19
HETATM   19  C   UNL     1      42.095 -10.641   7.929  1.00  0.00     0.274 C 
BRANCH  19  20
HETATM   20  C   UNL     1      42.659 -10.810   9.304  1.00  0.00     0.004 A 
HETATM   21  C   UNL     1      41.828 -10.961  10.403  1.00  0.00     0.113 A 
HETATM   22  C   UNL     1      42.314 -11.067  11.685  1.00  0.00     0.105 A 
HETATM   23  O   UNL     1      40.467 -11.039  10.359  1.00  0.00    -0.322 OA
HETATM   24  C   UNL     1      43.664 -11.037  11.950  1.00  0.00     0.040 A 
HETATM   25  O   UNL     1      41.326 -11.201  12.606  1.00  0.00    -0.323 OA
HETATM   26  C   UNL     1      44.535 -10.890  10.869  1.00  0.00     0.003 A 
HETATM   27  C   UNL     1      44.040 -10.774   9.556  1.00  0.00     0.012 A 
HETATM   28  C   UNL     1      40.154 -11.105  11.777  1.00  0.00     0.352 A 
ENDBRANCH  19  20
ENDBRANCH  16  19
ENDBRANCH  13  16
ENDBRANCH   9  10
ENDBRANCH   1   9
TORSDOF 5
ENDMDL
