MODEL 1
REMARK VINA RESULT:      -9.3      0.000      0.000
REMARK  7 active torsions:
REMARK  status: ('A' for Active; 'I' for Inactive)
REMARK       I    between atoms: C_2  and  N_3 
REMARK    1  A    between atoms: N_3  and  C_4 
REMARK    2  A    between atoms: C_7  and  N_8 
REMARK       I    between atoms: N_8  and  C_9 
REMARK    3  A    between atoms: C_9  and  C_10 
REMARK       I    between atoms: C_10  and  N_11 
REMARK    4  A    between atoms: N_11  and  C_12 
REMARK    5  A    between atoms: C_12  and  C_13 
REMARK    6  A    between atoms: C_13  and  O_14 
REMARK    7  A    between atoms: C_13  and  C_15 
ROOT
HETATM    1  C   UNL     1      45.434 -12.986   7.858  1.00  0.00     0.309 C 
HETATM    2  N   UNL     1      44.433 -13.915   7.772  1.00  0.00    -0.350 N 
HETATM    3  O   UNL     1      46.486 -12.989   7.232  1.00  0.00    -0.262 OA
HETATM    4  H   UNL     1      43.560 -13.701   8.246  1.00  0.00     0.163 HD
ENDROOT
BRANCH   1   5
HETATM    5  C   UNL     1      45.134 -11.849   8.862  1.00  0.00     0.313 C 
HETATM    6  N   UNL     1      43.943 -12.050   9.529  1.00  0.00    -0.319 N 
HETATM    7  H   UNL     1      43.476 -12.923   9.297  1.00  0.00     0.169 HD
HETATM    8  O   UNL     1      45.936 -10.932   8.971  1.00  0.00    -0.262 OA
BRANCH   6   9
HETATM    9  C   UNL     1      43.311 -11.180  10.433  1.00  0.00     0.035 A 
HETATM   10  C   UNL     1      41.964 -10.829  10.360  1.00  0.00     0.032 A 
HETATM   11  C   UNL     1      41.386  -9.997  11.328  1.00  0.00     0.032 A 
HETATM   12  C   UNL     1      42.149  -9.494  12.382  1.00  0.00     0.034 A 
HETATM   13  C   UNL     1      43.506  -9.826  12.442  1.00  0.00     0.032 A 
HETATM   14  C   UNL     1      44.081 -10.667  11.481  1.00  0.00     0.032 A 
BRANCH  12  15
HETATM   15  N   UNL     1      41.636  -8.672  13.406  1.00  0.00    -0.328 N 
HETATM   16  C   UNL     1      41.320  -9.041  14.702  1.00  0.00     0.218 C 
HETATM   17  C   UNL     1      40.825  -7.878  15.526  1.00  0.00     0.117 C 
HETATM   18  O   UNL     1      41.439 -10.153  15.203  1.00  0.00    -0.274 OA
HETATM   19  H   UNL     1      41.523  -7.695  13.172  1.00  0.00     0.169 HD
ENDBRANCH  12  15
ENDBRANCH   6   9
ENDBRANCH   1   5
BRANCH   2  20
HETATM   20  C   UNL     1      44.476 -15.071   6.894  1.00  0.00     0.159 C 
BRANCH  20  21
HETATM   21  C   UNL     1      43.446 -16.155   7.274  1.00  0.00     0.171 C 
BRANCH  21  22
HETATM   22  O   UNL     1      43.496 -16.361   8.694  1.00  0.00    -0.389 OA
HETATM   23  H   UNL     1      42.653 -16.786   8.930  1.00  0.00     0.210 HD
ENDBRANCH  21  22
BRANCH  21  24
HETATM   24  C   UNL     1      43.633 -17.458   6.545  1.00  0.00     0.000 A 
HETATM   25  C   UNL     1      43.659 -17.652   5.124  1.00  0.00     0.001 A 
HETATM   26  C   UNL     1      43.826 -19.021   4.882  1.00  0.00     0.044 A 
HETATM   27  C   UNL     1      43.546 -16.783   4.017  1.00  0.00     0.014 A 
HETATM   28  C   UNL     1      43.887 -19.545   3.580  1.00  0.00     0.030 A 
HETATM   29  N   UNL     1      43.902 -19.637   6.111  1.00  0.00    -0.360 N 
HETATM   30  C   UNL     1      43.764 -18.661   2.505  1.00  0.00     0.002 A 
HETATM   31  C   UNL     1      43.597 -17.298   2.717  1.00  0.00     0.001 A 
HETATM   32  C   UNL     1      44.089 -21.051   6.353  1.00  0.00     0.155 C 
HETATM   33  C   UNL     1      43.768 -18.713   7.113  1.00  0.00     0.101 A 
ENDBRANCH  21  24
ENDBRANCH  20  21
ENDBRANCH   2  20
TORSDOF 7
ENDMDL
MODEL 2
REMARK VINA RESULT:      -9.3      1.508      1.816
REMARK  7 active torsions:
REMARK  status: ('A' for Active; 'I' for Inactive)
REMARK       I    between atoms: C_2  and  N_3 
REMARK    1  A    between atoms: N_3  and  C_4 
REMARK    2  A    between atoms: C_7  and  N_8 
REMARK       I    between atoms: N_8  and  C_9 
REMARK    3  A    between atoms: C_9  and  C_10 
REMARK       I    between atoms: C_10  and  N_11 
REMARK    4  A    between atoms: N_11  and  C_12 
REMARK    5  A    between atoms: C_12  and  C_13 
REMARK    6  A    between atoms: C_13  and  O_14 
REMARK    7  A    between atoms: C_13  and  C_15 
ROOT
HETATM    1  C   UNL     1      44.705 -12.662   8.615  1.00  0.00     0.309 C 
HETATM    2  N   UNL     1      43.934 -13.251   7.650  1.00  0.00    -0.350 N 
HETATM    3  O   UNL     1      45.878 -12.908   8.859  1.00  0.00    -0.262 OA
HETATM    4  H   UNL     1      43.021 -12.840   7.472  1.00  0.00     0.163 HD
ENDROOT
BRANCH   1   5
HETATM    5  C   UNL     1      43.953 -11.587   9.433  1.00  0.00     0.313 C 
HETATM    6  N   UNL     1      43.995 -11.847  10.788  1.00  0.00    -0.319 N 
HETATM    7  H   UNL     1      44.544 -12.665  11.041  1.00  0.00     0.169 HD
HETATM    8  O   UNL     1      43.425 -10.656   8.841  1.00  0.00    -0.262 OA
BRANCH   6   9
HETATM    9  C   UNL     1      43.343 -11.144  11.815  1.00  0.00     0.035 A 
HETATM   10  C   UNL     1      43.880 -10.024  12.449  1.00  0.00     0.032 A 
HETATM   11  C   UNL     1      43.151  -9.340  13.432  1.00  0.00     0.032 A 
HETATM   12  C   UNL     1      41.877  -9.769  13.802  1.00  0.00     0.034 A 
HETATM   13  C   UNL     1      41.349 -10.906  13.183  1.00  0.00     0.032 A 
HETATM   14  C   UNL     1      42.072 -11.584  12.194  1.00  0.00     0.032 A 
BRANCH  12  15
HETATM   15  N   UNL     1      41.073  -9.121  14.762  1.00  0.00    -0.328 N 
HETATM   16  C   UNL     1      40.293  -7.992  14.583  1.00  0.00     0.218 C 
HETATM   17  C   UNL     1      39.544  -7.607  15.835  1.00  0.00     0.117 C 
HETATM   18  O   UNL     1      40.148  -7.351  13.549  1.00  0.00    -0.274 OA
HETATM   19  H   UNL     1      41.039  -9.557  15.674  1.00  0.00     0.169 HD
ENDBRANCH  12  15
ENDBRANCH   6   9
ENDBRANCH   1   5
BRANCH   2  20
HETATM   20  C   UNL     1      44.414 -14.282   6.747  1.00  0.00     0.159 C 
BRANCH  20  21
HETATM   21  C   UNL     1      43.312 -14.833   5.819  1.00  0.00     0.171 C 
BRANCH  21  22
HETATM   22  O   UNL     1      42.038 -14.642   6.454  1.00  0.00    -0.389 OA
HETATM   23  H   UNL     1      41.538 -15.462   6.296  1.00  0.00     0.210 HD
ENDBRANCH  21  22
BRANCH  21  24
HETATM   24  C   UNL     1      43.499 -16.276   5.438  1.00  0.00     0.000 A 
HETATM   25  C   UNL     1      43.581 -16.811   4.110  1.00  0.00     0.001 A 
HETATM   26  C   UNL     1      43.726 -18.199   4.215  1.00  0.00     0.044 A 
HETATM   27  C   UNL     1      43.537 -16.236   2.821  1.00  0.00     0.014 A 
HETATM   28  C   UNL     1      43.831 -19.025   3.083  1.00  0.00     0.030 A 
HETATM   29  N   UNL     1      43.735 -18.499   5.559  1.00  0.00    -0.360 N 
HETATM   30  C   UNL     1      43.775 -18.428   1.821  1.00  0.00     0.002 A 
HETATM   31  C   UNL     1      43.631 -17.052   1.688  1.00  0.00     0.001 A 
HETATM   32  C   UNL     1      43.879 -19.813   6.145  1.00  0.00     0.155 C 
HETATM   33  C   UNL     1      43.581 -17.357   6.299  1.00  0.00     0.101 A 
ENDBRANCH  21  24
ENDBRANCH  20  21
ENDBRANCH   2  20
TORSDOF 7
ENDMDL
MODEL 3
REMARK VINA RESULT:      -9.2      1.183      1.914
REMARK  7 active torsions:
REMARK  status: ('A' for Active; 'I' for Inactive)
REMARK       I    between atoms: C_2  and  N_3 
REMARK    1  A    between atoms: N_3  and  C_4 
REMARK    2  A    between atoms: C_7  and  N_8 
REMARK       I    between atoms: N_8  and  C_9 
REMARK    3  A    between atoms: C_9  and  C_10 
REMARK       I    between atoms: C_10  and  N_11 
REMARK    4  A    between atoms: N_11  and  C_12 
REMARK    5  A    between atoms: C_12  and  C_13 
REMARK    6  A    between atoms: C_13  and  O_14 
REMARK    7  A    between atoms: C_13  and  C_15 
ROOT
HETATM    1  C   UNL     1      45.331 -13.119   7.795  1.00  0.00     0.309 C 
HETATM    2  N   UNL     1      44.345 -14.067   7.810  1.00  0.00    -0.350 N 
HETATM    3  O   UNL     1      46.336 -13.124   7.097  1.00  0.00    -0.262 OA
HETATM    4  H   UNL     1      43.503 -13.852   8.337  1.00  0.00     0.163 HD
ENDROOT
BRANCH   1   5
HETATM    5  C   UNL     1      45.080 -11.954   8.781  1.00  0.00     0.313 C 
HETATM    6  N   UNL     1      43.908 -12.121   9.489  1.00  0.00    -0.319 N 
HETATM    7  H   UNL     1      43.421 -12.992   9.294  1.00  0.00     0.169 HD
HETATM    8  O   UNL     1      45.898 -11.046   8.842  1.00  0.00    -0.262 OA
BRANCH   6   9
HETATM    9  C   UNL     1      43.318 -11.221  10.392  1.00  0.00     0.035 A 
HETATM   10  C   UNL     1      42.027 -10.715  10.251  1.00  0.00     0.032 A 
HETATM   11  C   UNL     1      41.482  -9.861  11.220  1.00  0.00     0.032 A 
HETATM   12  C   UNL     1      42.224  -9.491  12.341  1.00  0.00     0.034 A 
HETATM   13  C   UNL     1      43.528  -9.977  12.470  1.00  0.00     0.032 A 
HETATM   14  C   UNL     1      44.069 -10.840  11.508  1.00  0.00     0.032 A 
BRANCH  12  15
HETATM   15  N   UNL     1      41.739  -8.656  13.369  1.00  0.00    -0.328 N 
HETATM   16  C   UNL     1      41.408  -9.020  14.662  1.00  0.00     0.218 C 
HETATM   17  C   UNL     1      40.953  -7.844  15.492  1.00  0.00     0.117 C 
HETATM   18  O   UNL     1      41.488 -10.137  15.159  1.00  0.00    -0.274 OA
HETATM   19  H   UNL     1      41.660  -7.674  13.139  1.00  0.00     0.169 HD
ENDBRANCH  12  15
ENDBRANCH   6   9
ENDBRANCH   1   5
BRANCH   2  20
HETATM   20  C   UNL     1      44.349 -15.251   6.969  1.00  0.00     0.159 C 
BRANCH  20  21
HETATM   21  C   UNL     1      42.987 -15.977   6.943  1.00  0.00     0.171 C 
BRANCH  21  22
HETATM   22  O   UNL     1      42.982 -16.982   7.967  1.00  0.00    -0.389 OA
HETATM   23  H   UNL     1      42.062 -17.036   8.281  1.00  0.00     0.210 HD
ENDBRANCH  21  22
BRANCH  21  24
HETATM   24  C   UNL     1      42.643 -16.581   5.609  1.00  0.00     0.000 A 
HETATM   25  C   UNL     1      43.287 -17.698   4.979  1.00  0.00     0.001 A 
HETATM   26  C   UNL     1      42.670 -17.905   3.740  1.00  0.00     0.044 A 
HETATM   27  C   UNL     1      44.351 -18.549   5.351  1.00  0.00     0.014 A 
HETATM   28  C   UNL     1      43.075 -18.930   2.868  1.00  0.00     0.030 A 
HETATM   29  N   UNL     1      41.683 -16.952   3.621  1.00  0.00    -0.360 N 
HETATM   30  C   UNL     1      44.135 -19.751   3.260  1.00  0.00     0.002 A 
HETATM   31  C   UNL     1      44.766 -19.566   4.484  1.00  0.00     0.001 A 
HETATM   32  C   UNL     1      40.775 -16.790   2.507  1.00  0.00     0.155 C 
HETATM   33  C   UNL     1      41.672 -16.142   4.726  1.00  0.00     0.101 A 
ENDBRANCH  21  24
ENDBRANCH  20  21
ENDBRANCH   2  20
TORSDOF 7
ENDMDL
MODEL 4
REMARK VINA RESULT:      -9.1      8.126     12.232
REMARK  7 active torsions:
REMARK  status: ('A' for Active; 'I' for Inactive)
REMARK       I    between atoms: C_2  and  N_3 
REMARK    1  A    between atoms: N_3  and  C_4 
REMARK    2  A    between atoms: C_7  and  N_8 
REMARK       I    between atoms: N_8  and  C_9 
REMARK    3  A    between atoms: C_9  and  C_10 
REMARK       I    between atoms: C_10  and  N_11 
REMARK    4  A    between atoms: N_11  and  C_12 
REMARK    5  A    between atoms: C_12  and  C_13 
REMARK    6  A    between atoms: C_13  and  O_14 
REMARK    7  A    between atoms: C_13  and  C_15 
ROOT
HETATM    1  C   UNL     1      40.887 -15.335   0.322  1.00  0.00     0.309 C 
HETATM    2  N   UNL     1      41.119 -16.681   0.251  1.00  0.00    -0.350 N 
HETATM    3  O   UNL     1      41.035 -14.622   1.306  1.00  0.00    -0.262 OA
HETATM    4  H   UNL     1      41.090 -17.108  -0.671  1.00  0.00     0.163 HD
ENDROOT
BRANCH   1   5
HETATM    5  C   UNL     1      40.397 -14.722  -1.010  1.00  0.00     0.313 C 
HETATM    6  N   UNL     1      39.048 -14.436  -0.980  1.00  0.00    -0.319 N 
HETATM    7  H   UNL     1      38.599 -14.622  -0.087  1.00  0.00     0.169 HD
HETATM    8  O   UNL     1      41.203 -14.553  -1.914  1.00  0.00    -0.262 OA
BRANCH   6   9
HETATM    9  C   UNL     1      38.249 -13.966  -2.036  1.00  0.00     0.035 A 
HETATM   10  C   UNL     1      37.874 -12.632  -2.191  1.00  0.00     0.032 A 
HETATM   11  C   UNL     1      37.118 -12.224  -3.299  1.00  0.00     0.032 A 
HETATM   12  C   UNL     1      36.717 -13.145  -4.265  1.00  0.00     0.034 A 
HETATM   13  C   UNL     1      37.071 -14.487  -4.097  1.00  0.00     0.032 A 
HETATM   14  C   UNL     1      37.836 -14.893  -2.996  1.00  0.00     0.032 A 
BRANCH  12  15
HETATM   15  N   UNL     1      35.976 -12.810  -5.418  1.00  0.00    -0.328 N 
HETATM   16  C   UNL     1      34.607 -12.901  -5.594  1.00  0.00     0.218 C 
HETATM   17  C   UNL     1      34.169 -12.419  -6.955  1.00  0.00     0.117 C 
HETATM   18  O   UNL     1      33.780 -13.280  -4.772  1.00  0.00    -0.274 OA
HETATM   19  H   UNL     1      36.509 -12.426  -6.187  1.00  0.00     0.169 HD
ENDBRANCH  12  15
ENDBRANCH   6   9
ENDBRANCH   1   5
BRANCH   2  20
HETATM   20  C   UNL     1      41.593 -17.481   1.366  1.00  0.00     0.159 C 
BRANCH  20  21
HETATM   21  C   UNL     1      43.098 -17.293   1.648  1.00  0.00     0.171 C 
BRANCH  21  22
HETATM   22  O   UNL     1      43.829 -17.551   0.439  1.00  0.00    -0.389 OA
HETATM   23  H   UNL     1      44.767 -17.569   0.696  1.00  0.00     0.210 HD
ENDBRANCH  21  22
BRANCH  21  24
HETATM   24  C   UNL     1      43.621 -18.145   2.772  1.00  0.00     0.000 A 
HETATM   25  C   UNL     1      43.872 -19.557   2.735  1.00  0.00     0.001 A 
HETATM   26  C   UNL     1      44.323 -19.944   4.002  1.00  0.00     0.044 A 
HETATM   27  C   UNL     1      43.747 -20.545   1.734  1.00  0.00     0.014 A 
HETATM   28  C   UNL     1      44.654 -21.277   4.299  1.00  0.00     0.030 A 
HETATM   29  N   UNL     1      44.348 -18.809   4.781  1.00  0.00    -0.360 N 
HETATM   30  C   UNL     1      44.513 -22.234   3.291  1.00  0.00     0.002 A 
HETATM   31  C   UNL     1      44.067 -21.876   2.025  1.00  0.00     0.001 A 
HETATM   32  C   UNL     1      44.763 -18.727   6.165  1.00  0.00     0.155 C 
HETATM   33  C   UNL     1      43.912 -17.730   4.060  1.00  0.00     0.101 A 
ENDBRANCH  21  24
ENDBRANCH  20  21
ENDBRANCH   2  20
TORSDOF 7
ENDMDL
MODEL 5
REMARK VINA RESULT:      -8.8      2.522     10.618
REMARK  7 active torsions:
REMARK  status: ('A' for Active; 'I' for Inactive)
REMARK       I    between atoms: C_2  and  N_3 
REMARK    1  A    between atoms: N_3  and  C_4 
REMARK    2  A    between atoms: C_7  and  N_8 
REMARK       I    between atoms: N_8  and  C_9 
REMARK    3  A    between atoms: C_9  and  C_10 
REMARK       I    between atoms: C_10  and  N_11 
REMARK    4  A    between atoms: N_11  and  C_12 
REMARK    5  A    between atoms: C_12  and  C_13 
REMARK    6  A    between atoms: C_13  and  O_14 
REMARK    7  A    between atoms: C_13  and  C_15 
ROOT
HETATM    1  C   UNL     1      42.070 -12.427   5.924  1.00  0.00     0.309 C 
HETATM    2  N   UNL     1      42.442 -12.107   7.201  1.00  0.00    -0.350 N 
HETATM    3  O   UNL     1      41.323 -11.783   5.200  1.00  0.00    -0.262 OA
HETATM    4  H   UNL     1      43.182 -12.663   7.622  1.00  0.00     0.163 HD
ENDROOT
BRANCH   1   5
HETATM    5  C   UNL     1      42.698 -13.744   5.411  1.00  0.00     0.313 C 
HETATM    6  N   UNL     1      42.525 -14.781   6.305  1.00  0.00    -0.319 N 
HETATM    7  H   UNL     1      41.978 -14.538   7.127  1.00  0.00     0.169 HD
HETATM    8  O   UNL     1      43.255 -13.747   4.323  1.00  0.00    -0.262 OA
BRANCH   6   9
HETATM    9  C   UNL     1      43.043 -16.084   6.216  1.00  0.00     0.035 A 
HETATM   10  C   UNL     1      44.297 -16.454   6.699  1.00  0.00     0.032 A 
HETATM   11  C   UNL     1      44.730 -17.785   6.624  1.00  0.00     0.032 A 
HETATM   12  C   UNL     1      43.918 -18.766   6.056  1.00  0.00     0.034 A 
HETATM   13  C   UNL     1      42.671 -18.391   5.549  1.00  0.00     0.032 A 
HETATM   14  C   UNL     1      42.233 -17.063   5.634  1.00  0.00     0.032 A 
BRANCH  12  15
HETATM   15  N   UNL     1      44.272 -20.129   5.965  1.00  0.00    -0.328 N 
HETATM   16  C   UNL     1      44.770 -20.797   4.860  1.00  0.00     0.218 C 
HETATM   17  C   UNL     1      45.063 -22.248   5.150  1.00  0.00     0.117 C 
HETATM   18  O   UNL     1      45.008 -20.322   3.755  1.00  0.00    -0.274 OA
HETATM   19  H   UNL     1      44.182 -20.665   6.818  1.00  0.00     0.169 HD
ENDBRANCH  12  15
ENDBRANCH   6   9
ENDBRANCH   1   5
BRANCH   2  20
HETATM   20  C   UNL     1      41.993 -10.916   7.900  1.00  0.00     0.159 C 
BRANCH  20  21
HETATM   21  C   UNL     1      42.721 -10.693   9.242  1.00  0.00     0.171 C 
BRANCH  21  22
HETATM   22  O   UNL     1      43.382 -11.911   9.615  1.00  0.00    -0.389 OA
HETATM   23  H   UNL     1      44.294 -11.830   9.284  1.00  0.00     0.210 HD
ENDBRANCH  21  22
BRANCH  21  24
HETATM   24  C   UNL     1      41.824 -10.219  10.353  1.00  0.00     0.000 A 
HETATM   25  C   UNL     1      42.220  -9.865  11.685  1.00  0.00     0.001 A 
HETATM   26  C   UNL     1      41.066  -9.509  12.394  1.00  0.00     0.044 A 
HETATM   27  C   UNL     1      43.461  -9.822  12.357  1.00  0.00     0.014 A 
HETATM   28  C   UNL     1      41.112  -9.112  13.741  1.00  0.00     0.030 A 
HETATM   29  N   UNL     1      40.007  -9.639  11.523  1.00  0.00    -0.360 N 
HETATM   30  C   UNL     1      42.353  -9.088  14.381  1.00  0.00     0.002 A 
HETATM   31  C   UNL     1      43.514  -9.437  13.701  1.00  0.00     0.001 A 
HETATM   32  C   UNL     1      38.617  -9.364  11.815  1.00  0.00     0.155 C 
HETATM   33  C   UNL     1      40.448 -10.082  10.304  1.00  0.00     0.101 A 
ENDBRANCH  21  24
ENDBRANCH  20  21
ENDBRANCH   2  20
TORSDOF 7
ENDMDL
MODEL 6
REMARK VINA RESULT:      -8.6      2.901     10.652
REMARK  7 active torsions:
REMARK  status: ('A' for Active; 'I' for Inactive)
REMARK       I    between atoms: C_2  and  N_3 
REMARK    1  A    between atoms: N_3  and  C_4 
REMARK    2  A    between atoms: C_7  and  N_8 
REMARK       I    between atoms: N_8  and  C_9 
REMARK    3  A    between atoms: C_9  and  C_10 
REMARK       I    between atoms: C_10  and  N_11 
REMARK    4  A    between atoms: N_11  and  C_12 
REMARK    5  A    between atoms: C_12  and  C_13 
REMARK    6  A    between atoms: C_13  and  O_14 
REMARK    7  A    between atoms: C_13  and  C_15 
ROOT
HETATM    1  C   UNL     1      40.222 -12.093   6.794  1.00  0.00     0.309 C 
HETATM    2  N   UNL     1      41.443 -11.487   6.916  1.00  0.00    -0.350 N 
HETATM    3  O   UNL     1      39.159 -11.682   7.239  1.00  0.00    -0.262 OA
HETATM    4  H   UNL     1      42.208 -11.874   6.370  1.00  0.00     0.163 HD
ENDROOT
BRANCH   1   5
HETATM    5  C   UNL     1      40.268 -13.419   6.000  1.00  0.00     0.313 C 
HETATM    6  N   UNL     1      41.383 -14.168   6.312  1.00  0.00    -0.319 N 
HETATM    7  H   UNL     1      41.970 -13.765   7.038  1.00  0.00     0.169 HD
HETATM    8  O   UNL     1      39.362 -13.670   5.218  1.00  0.00    -0.262 OA
BRANCH   6   9
HETATM    9  C   UNL     1      41.799 -15.373   5.719  1.00  0.00     0.035 A 
HETATM   10  C   UNL     1      41.202 -16.607   5.971  1.00  0.00     0.032 A 
HETATM   11  C   UNL     1      41.635 -17.761   5.303  1.00  0.00     0.032 A 
HETATM   12  C   UNL     1      42.678 -17.701   4.380  1.00  0.00     0.034 A 
HETATM   13  C   UNL     1      43.293 -16.467   4.146  1.00  0.00     0.032 A 
HETATM   14  C   UNL     1      42.854 -15.312   4.805  1.00  0.00     0.032 A 
BRANCH  12  15
HETATM   15  N   UNL     1      43.154 -18.811   3.651  1.00  0.00    -0.328 N 
HETATM   16  C   UNL     1      44.248 -19.605   3.947  1.00  0.00     0.218 C 
HETATM   17  C   UNL     1      44.432 -20.724   2.953  1.00  0.00     0.117 C 
HETATM   18  O   UNL     1      45.001 -19.496   4.908  1.00  0.00    -0.274 OA
HETATM   19  H   UNL     1      42.608 -19.073   2.841  1.00  0.00     0.169 HD
ENDBRANCH  12  15
ENDBRANCH   6   9
ENDBRANCH   1   5
BRANCH   2  20
HETATM   20  C   UNL     1      41.657 -10.229   7.609  1.00  0.00     0.159 C 
BRANCH  20  21
HETATM   21  C   UNL     1      42.427 -10.395   8.936  1.00  0.00     0.171 C 
BRANCH  21  22
HETATM   22  O   UNL     1      42.921 -11.741   9.017  1.00  0.00    -0.389 OA
HETATM   23  H   UNL     1      43.433 -11.885   8.201  1.00  0.00     0.210 HD
ENDBRANCH  21  22
BRANCH  21  24
HETATM   24  C   UNL     1      41.619 -10.056  10.158  1.00  0.00     0.000 A 
HETATM   25  C   UNL     1      42.118  -9.839  11.485  1.00  0.00     0.001 A 
HETATM   26  C   UNL     1      41.021  -9.579  12.317  1.00  0.00     0.044 A 
HETATM   27  C   UNL     1      43.408  -9.848  12.058  1.00  0.00     0.014 A 
HETATM   28  C   UNL     1      41.172  -9.327  13.691  1.00  0.00     0.030 A 
HETATM   29  N   UNL     1      39.897  -9.633  11.524  1.00  0.00    -0.360 N 
HETATM   30  C   UNL     1      42.461  -9.350  14.230  1.00  0.00     0.002 A 
HETATM   31  C   UNL     1      43.566  -9.606  13.427  1.00  0.00     0.001 A 
HETATM   32  C   UNL     1      38.533  -9.413  11.952  1.00  0.00     0.155 C 
HETATM   33  C   UNL     1      40.242  -9.937  10.234  1.00  0.00     0.101 A 
ENDBRANCH  21  24
ENDBRANCH  20  21
ENDBRANCH   2  20
TORSDOF 7
ENDMDL
MODEL 7
REMARK VINA RESULT:      -8.5      3.282     10.415
REMARK  7 active torsions:
REMARK  status: ('A' for Active; 'I' for Inactive)
REMARK       I    between atoms: C_2  and  N_3 
REMARK    1  A    between atoms: N_3  and  C_4 
REMARK    2  A    between atoms: C_7  and  N_8 
REMARK       I    between atoms: N_8  and  C_9 
REMARK    3  A    between atoms: C_9  and  C_10 
REMARK       I    between atoms: C_10  and  N_11 
REMARK    4  A    between atoms: N_11  and  C_12 
REMARK    5  A    between atoms: C_12  and  C_13 
REMARK    6  A    between atoms: C_13  and  O_14 
REMARK    7  A    between atoms: C_13  and  C_15 
ROOT
HETATM    1  C   UNL     1      39.676 -12.111   6.167  1.00  0.00     0.309 C 
HETATM    2  N   UNL     1      40.458 -11.810   7.248  1.00  0.00    -0.350 N 
HETATM    3  O   UNL     1      38.643 -11.546   5.836  1.00  0.00    -0.262 OA
HETATM    4  H   UNL     1      41.361 -12.273   7.311  1.00  0.00     0.163 HD
ENDROOT
BRANCH   1   5
HETATM    5  C   UNL     1      40.218 -13.290   5.325  1.00  0.00     0.313 C 
HETATM    6  N   UNL     1      40.753 -14.286   6.115  1.00  0.00    -0.319 N 
HETATM    7  H   UNL     1      40.668 -14.118   7.115  1.00  0.00     0.169 HD
HETATM    8  O   UNL     1      40.124 -13.237   4.106  1.00  0.00    -0.262 OA
BRANCH   6   9
HETATM    9  C   UNL     1      41.417 -15.450   5.693  1.00  0.00     0.035 A 
HETATM   10  C   UNL     1      40.856 -16.725   5.743  1.00  0.00     0.032 A 
HETATM   11  C   UNL     1      41.557 -17.836   5.256  1.00  0.00     0.032 A 
HETATM   12  C   UNL     1      42.836 -17.692   4.719  1.00  0.00     0.034 A 
HETATM   13  C   UNL     1      43.410 -16.417   4.692  1.00  0.00     0.032 A 
HETATM   14  C   UNL     1      42.704 -15.304   5.168  1.00  0.00     0.032 A 
BRANCH  12  15
HETATM   15  N   UNL     1      43.595 -18.756   4.189  1.00  0.00    -0.328 N 
HETATM   16  C   UNL     1      43.479 -19.327   2.934  1.00  0.00     0.218 C 
HETATM   17  C   UNL     1      44.488 -20.426   2.708  1.00  0.00     0.117 C 
HETATM   18  O   UNL     1      42.701 -19.004   2.044  1.00  0.00    -0.274 OA
HETATM   19  H   UNL     1      44.329 -19.113   4.785  1.00  0.00     0.169 HD
ENDBRANCH  12  15
ENDBRANCH   6   9
ENDBRANCH   1   5
BRANCH   2  20
HETATM   20  C   UNL     1      40.165 -10.739   8.185  1.00  0.00     0.159 C 
BRANCH  20  21
HETATM   21  C   UNL     1      41.335  -9.747   8.352  1.00  0.00     0.171 C 
BRANCH  21  22
HETATM   22  O   UNL     1      41.999  -9.601   7.088  1.00  0.00    -0.389 OA
HETATM   23  H   UNL     1      42.838  -9.147   7.280  1.00  0.00     0.210 HD
ENDBRANCH  21  22
BRANCH  21  24
HETATM   24  C   UNL     1      42.318 -10.136   9.422  1.00  0.00     0.000 A 
HETATM   25  C   UNL     1      42.355  -9.653  10.772  1.00  0.00     0.001 A 
HETATM   26  C   UNL     1      43.446 -10.253  11.411  1.00  0.00     0.044 A 
HETATM   27  C   UNL     1      41.558  -8.749  11.508  1.00  0.00     0.014 A 
HETATM   28  C   UNL     1      43.764  -9.983  12.754  1.00  0.00     0.030 A 
HETATM   29  N   UNL     1      44.050 -11.073  10.485  1.00  0.00    -0.360 N 
HETATM   30  C   UNL     1      42.962  -9.078  13.454  1.00  0.00     0.002 A 
HETATM   31  C   UNL     1      41.873  -8.468  12.843  1.00  0.00     0.001 A 
HETATM   32  C   UNL     1      45.212 -11.907  10.704  1.00  0.00     0.155 C 
HETATM   33  C   UNL     1      43.394 -10.996   9.285  1.00  0.00     0.101 A 
ENDBRANCH  21  24
ENDBRANCH  20  21
ENDBRANCH   2  20
TORSDOF 7
ENDMDL
MODEL 8
REMARK VINA RESULT:      -8.5      8.269     12.293
REMARK  7 active torsions:
REMARK  status: ('A' for Active; 'I' for Inactive)
REMARK       I    between atoms: C_2  and  N_3 
REMARK    1  A    between atoms: N_3  and  C_4 
REMARK    2  A    between atoms: C_7  and  N_8 
REMARK       I    between atoms: N_8  and  C_9 
REMARK    3  A    between atoms: C_9  and  C_10 
REMARK       I    between atoms: C_10  and  N_11 
REMARK    4  A    between atoms: N_11  and  C_12 
REMARK    5  A    between atoms: C_12  and  C_13 
REMARK    6  A    between atoms: C_13  and  O_14 
REMARK    7  A    between atoms: C_13  and  C_15 
ROOT
HETATM    1  C   UNL     1      40.661 -15.194   0.274  1.00  0.00     0.309 C 
HETATM    2  N   UNL     1      40.872 -16.545   0.299  1.00  0.00    -0.350 N 
HETATM    3  O   UNL     1      40.805 -14.417   1.209  1.00  0.00    -0.262 OA
HETATM    4  H   UNL     1      40.850 -17.034  -0.591  1.00  0.00     0.163 HD
ENDROOT
BRANCH   1   5
HETATM    5  C   UNL     1      40.201 -14.668  -1.105  1.00  0.00     0.313 C 
HETATM    6  N   UNL     1      38.847 -14.407  -1.132  1.00  0.00    -0.319 N 
HETATM    7  H   UNL     1      38.374 -14.552  -0.243  1.00  0.00     0.169 HD
HETATM    8  O   UNL     1      41.032 -14.534  -1.993  1.00  0.00    -0.262 OA
BRANCH   6   9
HETATM    9  C   UNL     1      38.072 -14.014  -2.237  1.00  0.00     0.035 A 
HETATM   10  C   UNL     1      37.616 -14.894  -3.217  1.00  0.00     0.032 A 
HETATM   11  C   UNL     1      36.802 -14.440  -4.264  1.00  0.00     0.032 A 
HETATM   12  C   UNL     1      36.440 -13.097  -4.354  1.00  0.00     0.034 A 
HETATM   13  C   UNL     1      36.918 -12.210  -3.385  1.00  0.00     0.032 A 
HETATM   14  C   UNL     1      37.721 -12.664  -2.332  1.00  0.00     0.032 A 
BRANCH  12  15
HETATM   15  N   UNL     1      35.607 -12.569  -5.362  1.00  0.00    -0.328 N 
HETATM   16  C   UNL     1      34.227 -12.648  -5.441  1.00  0.00     0.218 C 
HETATM   17  C   UNL     1      33.679 -11.934  -6.652  1.00  0.00     0.117 C 
HETATM   18  O   UNL     1      33.471 -13.183  -4.638  1.00  0.00    -0.274 OA
HETATM   19  H   UNL     1      36.074 -12.044  -6.089  1.00  0.00     0.169 HD
ENDBRANCH  12  15
ENDBRANCH   6   9
ENDBRANCH   1   5
BRANCH   2  20
HETATM   20  C   UNL     1      41.316 -17.273   1.475  1.00  0.00     0.159 C 
BRANCH  20  21
HETATM   21  C   UNL     1      42.852 -17.315   1.615  1.00  0.00     0.171 C 
BRANCH  21  22
HETATM   22  O   UNL     1      43.435 -17.281   0.304  1.00  0.00    -0.389 OA
HETATM   23  H   UNL     1      42.812 -16.778  -0.250  1.00  0.00     0.210 HD
ENDBRANCH  21  22
BRANCH  21  24
HETATM   24  C   UNL     1      43.363 -18.499   2.389  1.00  0.00     0.000 A 
HETATM   25  C   UNL     1      43.715 -18.531   3.779  1.00  0.00     0.001 A 
HETATM   26  C   UNL     1      44.169 -19.822   4.076  1.00  0.00     0.044 A 
HETATM   27  C   UNL     1      43.695 -17.571   4.814  1.00  0.00     0.014 A 
HETATM   28  C   UNL     1      44.598 -20.182   5.365  1.00  0.00     0.030 A 
HETATM   29  N   UNL     1      44.093 -20.550   2.909  1.00  0.00    -0.360 N 
HETATM   30  C   UNL     1      44.574 -19.209   6.366  1.00  0.00     0.002 A 
HETATM   31  C   UNL     1      44.128 -17.920   6.098  1.00  0.00     0.001 A 
HETATM   32  C   UNL     1      44.447 -21.942   2.742  1.00  0.00     0.155 C 
HETATM   33  C   UNL     1      43.630 -19.762   1.889  1.00  0.00     0.101 A 
ENDBRANCH  21  24
ENDBRANCH  20  21
ENDBRANCH   2  20
TORSDOF 7
ENDMDL
MODEL 9
REMARK VINA RESULT:      -8.4      5.948      8.962
REMARK  7 active torsions:
REMARK  status: ('A' for Active; 'I' for Inactive)
REMARK       I    between atoms: C_2  and  N_3 
REMARK    1  A    between atoms: N_3  and  C_4 
REMARK    2  A    between atoms: C_7  and  N_8 
REMARK       I    between atoms: N_8  and  C_9 
REMARK    3  A    between atoms: C_9  and  C_10 
REMARK       I    between atoms: C_10  and  N_11 
REMARK    4  A    between atoms: N_11  and  C_12 
REMARK    5  A    between atoms: C_12  and  C_13 
REMARK    6  A    between atoms: C_13  and  O_14 
REMARK    7  A    between atoms: C_13  and  C_15 
ROOT
HETATM    1  C   UNL     1      42.579 -15.602   6.012  1.00  0.00     0.309 C 
HETATM    2  N   UNL     1      42.311 -16.937   6.143  1.00  0.00    -0.350 N 
HETATM    3  O   UNL     1      43.413 -14.962   6.639  1.00  0.00    -0.262 OA
HETATM    4  H   UNL     1      41.692 -17.355   5.453  1.00  0.00     0.163 HD
ENDROOT
BRANCH   1   5
HETATM    5  C   UNL     1      41.707 -14.899   4.946  1.00  0.00     0.313 C 
HETATM    6  N   UNL     1      41.475 -15.709   3.854  1.00  0.00    -0.319 N 
HETATM    7  H   UNL     1      41.865 -16.645   3.935  1.00  0.00     0.169 HD
HETATM    8  O   UNL     1      41.320 -13.759   5.158  1.00  0.00    -0.262 OA
BRANCH   6   9
HETATM    9  C   UNL     1      40.811 -15.371   2.662  1.00  0.00     0.035 A 
HETATM   10  C   UNL     1      39.500 -14.900   2.612  1.00  0.00     0.032 A 
HETATM   11  C   UNL     1      38.918 -14.531   1.391  1.00  0.00     0.032 A 
HETATM   12  C   UNL     1      39.634 -14.637   0.200  1.00  0.00     0.034 A 
HETATM   13  C   UNL     1      40.940 -15.133   0.247  1.00  0.00     0.032 A 
HETATM   14  C   UNL     1      41.527 -15.490   1.468  1.00  0.00     0.032 A 
BRANCH  12  15
HETATM   15  N   UNL     1      39.127 -14.265  -1.063  1.00  0.00    -0.328 N 
HETATM   16  C   UNL     1      39.271 -13.045  -1.701  1.00  0.00     0.218 C 
HETATM   17  C   UNL     1      38.617 -13.027  -3.060  1.00  0.00     0.117 C 
HETATM   18  O   UNL     1      39.879 -12.063  -1.289  1.00  0.00    -0.274 OA
HETATM   19  H   UNL     1      38.634 -14.987  -1.570  1.00  0.00     0.169 HD
ENDBRANCH  12  15
ENDBRANCH   6   9
ENDBRANCH   1   5
BRANCH   2  20
HETATM   20  C   UNL     1      43.002 -17.814   7.070  1.00  0.00     0.159 C 
BRANCH  20  21
HETATM   21  C   UNL     1      44.333 -18.358   6.509  1.00  0.00     0.171 C 
BRANCH  21  22
HETATM   22  O   UNL     1      45.334 -17.337   6.628  1.00  0.00    -0.389 OA
HETATM   23  H   UNL     1      44.850 -16.492   6.652  1.00  0.00     0.210 HD
ENDBRANCH  21  22
BRANCH  21  24
HETATM   24  C   UNL     1      44.243 -18.845   5.088  1.00  0.00     0.000 A 
HETATM   25  C   UNL     1      44.395 -20.196   4.631  1.00  0.00     0.001 A 
HETATM   26  C   UNL     1      44.265 -20.193   3.237  1.00  0.00     0.044 A 
HETATM   27  C   UNL     1      44.642 -21.425   5.281  1.00  0.00     0.014 A 
HETATM   28  C   UNL     1      44.369 -21.370   2.477  1.00  0.00     0.030 A 
HETATM   29  N   UNL     1      44.038 -18.888   2.860  1.00  0.00    -0.360 N 
HETATM   30  C   UNL     1      44.621 -22.570   3.147  1.00  0.00     0.002 A 
HETATM   31  C   UNL     1      44.756 -22.601   4.530  1.00  0.00     0.001 A 
HETATM   32  C   UNL     1      43.827 -18.409   1.512  1.00  0.00     0.155 C 
HETATM   33  C   UNL     1      44.042 -18.071   3.959  1.00  0.00     0.101 A 
ENDBRANCH  21  24
ENDBRANCH  20  21
ENDBRANCH   2  20
TORSDOF 7
ENDMDL
MODEL 10
REMARK VINA RESULT:      -8.4      3.109      3.897
REMARK  7 active torsions:
REMARK  status: ('A' for Active; 'I' for Inactive)
REMARK       I    between atoms: C_2  and  N_3 
REMARK    1  A    between atoms: N_3  and  C_4 
REMARK    2  A    between atoms: C_7  and  N_8 
REMARK       I    between atoms: N_8  and  C_9 
REMARK    3  A    between atoms: C_9  and  C_10 
REMARK       I    between atoms: C_10  and  N_11 
REMARK    4  A    between atoms: N_11  and  C_12 
REMARK    5  A    between atoms: C_12  and  C_13 
REMARK    6  A    between atoms: C_13  and  O_14 
REMARK    7  A    between atoms: C_13  and  C_15 
ROOT
HETATM    1  C   UNL     1      39.386 -12.123   6.372  1.00  0.00     0.309 C 
HETATM    2  N   UNL     1      39.977 -13.324   6.655  1.00  0.00    -0.350 N 
HETATM    3  O   UNL     1      38.810 -11.823   5.336  1.00  0.00    -0.262 OA
HETATM    4  H   UNL     1      40.290 -13.473   7.611  1.00  0.00     0.163 HD
ENDROOT
BRANCH   1   5
HETATM    5  C   UNL     1      39.495 -11.097   7.523  1.00  0.00     0.313 C 
HETATM    6  N   UNL     1      40.464 -11.449   8.439  1.00  0.00    -0.319 N 
HETATM    7  H   UNL     1      40.983 -12.290   8.198  1.00  0.00     0.169 HD
HETATM    8  O   UNL     1      38.758 -10.121   7.514  1.00  0.00    -0.262 OA
BRANCH   6   9
HETATM    9  C   UNL     1      40.769 -10.809   9.652  1.00  0.00     0.035 A 
HETATM   10  C   UNL     1      41.769  -9.848   9.792  1.00  0.00     0.032 A 
HETATM   11  C   UNL     1      41.984  -9.212  11.023  1.00  0.00     0.032 A 
HETATM   12  C   UNL     1      41.208  -9.532  12.135  1.00  0.00     0.034 A 
HETATM   13  C   UNL     1      40.221 -10.514  12.002  1.00  0.00     0.032 A 
HETATM   14  C   UNL     1      39.998 -11.142  10.770  1.00  0.00     0.032 A 
BRANCH  12  15
HETATM   15  N   UNL     1      41.347  -8.920  13.399  1.00  0.00    -0.328 N 
HETATM   16  C   UNL     1      41.970  -9.438  14.520  1.00  0.00     0.218 C 
HETATM   17  C   UNL     1      41.950  -8.478  15.684  1.00  0.00     0.117 C 
HETATM   18  O   UNL     1      42.530 -10.524  14.619  1.00  0.00    -0.274 OA
HETATM   19  H   UNL     1      40.978  -7.982  13.476  1.00  0.00     0.169 HD
ENDBRANCH  12  15
ENDBRANCH   6   9
ENDBRANCH   1   5
BRANCH   2  20
HETATM   20  C   UNL     1      40.001 -14.451   5.739  1.00  0.00     0.159 C 
BRANCH  20  21
HETATM   21  C   UNL     1      41.219 -15.374   5.949  1.00  0.00     0.171 C 
BRANCH  21  22
HETATM   22  O   UNL     1      42.359 -14.565   6.276  1.00  0.00    -0.389 OA
HETATM   23  H   UNL     1      43.135 -15.143   6.164  1.00  0.00     0.210 HD
ENDBRANCH  21  22
BRANCH  21  24
HETATM   24  C   UNL     1      41.522 -16.263   4.774  1.00  0.00     0.000 A 
HETATM   25  C   UNL     1      42.511 -17.301   4.714  1.00  0.00     0.001 A 
HETATM   26  C   UNL     1      42.474 -17.852   3.428  1.00  0.00     0.044 A 
HETATM   27  C   UNL     1      43.443 -17.817   5.640  1.00  0.00     0.014 A 
HETATM   28  C   UNL     1      43.330 -18.897   3.040  1.00  0.00     0.030 A 
HETATM   29  N   UNL     1      41.497 -17.176   2.731  1.00  0.00    -0.360 N 
HETATM   30  C   UNL     1      44.247 -19.382   3.976  1.00  0.00     0.002 A 
HETATM   31  C   UNL     1      44.305 -18.852   5.260  1.00  0.00     0.001 A 
HETATM   32  C   UNL     1      41.096 -17.416   1.362  1.00  0.00     0.155 C 
HETATM   33  C   UNL     1      40.934 -16.210   3.522  1.00  0.00     0.101 A 
ENDBRANCH  21  24
ENDBRANCH  20  21
ENDBRANCH   2  20
TORSDOF 7
ENDMDL
