MODEL 1
REMARK VINA RESULT:      -9.8      0.000      0.000
REMARK  9 active torsions:
REMARK  status: ('A' for Active; 'I' for Inactive)
REMARK    1  A    between atoms: C_4  and  C_5 
REMARK    2  A    between atoms: C_7  and  O_8 
REMARK    3  A    between atoms: C_10  and  O_11 
REMARK    4  A    between atoms: C_16  and  C_17 
REMARK    5  A    between atoms: C_20  and  C_21 
REMARK    6  A    between atoms: C_21  and  N_22 
REMARK    7  A    between atoms: N_22  and  C_23 
REMARK    8  A    between atoms: C_23  and  N_24 
REMARK    9  A    between atoms: N_24  and  C_25 
ROOT
HETATM    1  C   UNL     1      41.577 -12.412   4.647  1.00  0.00     0.067 C 
HETATM    2  C   UNL     1      40.187 -12.994   4.308  1.00  0.00     0.001 C 
HETATM    3  C   UNL     1      39.856 -14.262   5.129  1.00  0.00     0.040 C 
HETATM    4  C   UNL     1      40.882 -15.382   4.874  1.00  0.00     0.206 C 
HETATM    5  N   UNL     1      41.996 -14.779   4.030  1.00  0.00    -0.065 N 
HETATM    6  H   UNL     1      42.721 -15.511   3.942  1.00  0.00     0.280 HD
HETATM    7  C   UNL     1      42.612 -13.560   4.683  1.00  0.00     0.246 C 
HETATM    8  C   UNL     1      40.277 -13.472   2.830  1.00  0.00     0.033 C 
HETATM    9  C   UNL     1      41.462 -14.438   2.651  1.00  0.00     0.236 C 
ENDROOT
BRANCH   4  10
HETATM   10  C   UNL     1      41.406 -16.035   6.177  1.00  0.00     0.155 C 
BRANCH  10  11
HETATM   11  N   UNL     1      42.036 -17.351   6.052  1.00  0.00    -0.365 N 
HETATM   12  H   UNL     1      41.654 -17.933   5.310  1.00  0.00     0.161 HD
BRANCH  11  13
HETATM   13  C   UNL     1      43.328 -17.679   6.369  1.00  0.00     0.172 C 
HETATM   14  S   UNL     1      43.841 -18.098   7.898  1.00  0.00    -0.041 SA
BRANCH  13  15
HETATM   15  N   UNL     1      44.185 -17.813   5.313  1.00  0.00    -0.333 N 
HETATM   16  H   UNL     1      44.973 -17.171   5.319  1.00  0.00     0.168 HD
BRANCH  15  17
HETATM   17  C   UNL     1      44.003 -18.513   4.086  1.00  0.00     0.045 A 
HETATM   18  C   UNL     1      44.265 -19.912   4.025  1.00  0.00     0.001 A 
HETATM   19  C   UNL     1      44.127 -20.573   2.776  1.00  0.00    -0.024 A 
HETATM   20  C   UNL     1      44.631 -20.706   5.141  1.00  0.00     0.014 A 
HETATM   21  C   UNL     1      44.367 -21.952   2.673  1.00  0.00     0.012 A 
HETATM   22  C   UNL     1      43.747 -19.851   1.637  1.00  0.00     0.012 A 
HETATM   23  C   UNL     1      44.737 -22.700   3.789  1.00  0.00     0.001 A 
HETATM   24  C   UNL     1      44.866 -22.079   5.023  1.00  0.00     0.001 A 
HETATM   25  C   UNL     1      43.515 -18.482   1.705  1.00  0.00     0.003 A 
HETATM   26  C   UNL     1      43.651 -17.817   2.919  1.00  0.00     0.030 A 
ENDBRANCH  15  17
ENDBRANCH  13  15
ENDBRANCH  11  13
ENDBRANCH  10  11
ENDBRANCH   4  10
BRANCH   1  27
HETATM   27  C   UNL     1      41.791 -11.462   5.793  1.00  0.00     0.038 C 
HETATM   28  N   UNL     1      41.658 -10.098   5.896  1.00  0.00    -0.277 N 
HETATM   29  C   UNL     1      41.421  -9.085   4.897  1.00  0.00     0.179 C 
HETATM   30  N   UNL     1      41.738  -9.656   7.164  1.00  0.00    -0.172 NA
HETATM   31  C   UNL     1      42.113 -10.708   7.898  1.00  0.00     0.089 C 
HETATM   32  C   UNL     1      42.167 -11.855   7.072  1.00  0.00     0.061 C 
BRANCH  31  33
HETATM   33  C   UNL     1      42.358 -10.614   9.341  1.00  0.00    -0.003 A 
HETATM   34  C   UNL     1      41.289 -10.452  10.237  1.00  0.00     0.053 A 
HETATM   35  C   UNL     1      41.507 -10.398  11.620  1.00  0.00     0.102 A 
HETATM   36  C   UNL     1      42.817 -10.508  12.126  1.00  0.00     0.101 A 
HETATM   37  C   UNL     1      43.885 -10.650  11.238  1.00  0.00     0.040 A 
HETATM   38  C   UNL     1      43.657 -10.704   9.859  1.00  0.00     0.017 A 
BRANCH  35  39
HETATM   39  O   UNL     1      40.512 -10.256  12.557  1.00  0.00    -0.353 OA
HETATM   40  C   UNL     1      39.235  -9.828  12.107  1.00  0.00     0.210 C 
ENDBRANCH  35  39
BRANCH  36  41
HETATM   41  O   UNL     1      42.947 -10.456  13.491  1.00  0.00    -0.353 OA
HETATM   42  C   UNL     1      43.229  -9.195  14.082  1.00  0.00     0.210 C 
ENDBRANCH  36  41
ENDBRANCH  31  33
ENDBRANCH   1  27
TORSDOF 9
ENDMDL
MODEL 2
REMARK VINA RESULT:      -9.5      3.642      9.933
REMARK  9 active torsions:
REMARK  status: ('A' for Active; 'I' for Inactive)
REMARK    1  A    between atoms: C_4  and  C_5 
REMARK    2  A    between atoms: C_7  and  O_8 
REMARK    3  A    between atoms: C_10  and  O_11 
REMARK    4  A    between atoms: C_16  and  C_17 
REMARK    5  A    between atoms: C_20  and  C_21 
REMARK    6  A    between atoms: C_21  and  N_22 
REMARK    7  A    between atoms: N_22  and  C_23 
REMARK    8  A    between atoms: C_23  and  N_24 
REMARK    9  A    between atoms: N_24  and  C_25 
ROOT
HETATM    1  C   UNL     1      40.230 -14.230   2.212  1.00  0.00     0.067 C 
HETATM    2  C   UNL     1      40.638 -12.821   1.729  1.00  0.00     0.001 C 
HETATM    3  C   UNL     1      41.623 -12.122   2.696  1.00  0.00     0.040 C 
HETATM    4  C   UNL     1      41.011 -11.953   4.099  1.00  0.00     0.206 C 
HETATM    5  N   UNL     1      39.694 -12.714   4.103  1.00  0.00    -0.065 N 
HETATM    6  H   UNL     1      39.337 -12.671   5.072  1.00  0.00     0.280 HD
HETATM    7  C   UNL     1      39.871 -14.167   3.714  1.00  0.00     0.246 C 
HETATM    8  C   UNL     1      39.340 -11.965   1.775  1.00  0.00     0.033 C 
HETATM    9  C   UNL     1      38.706 -12.028   3.176  1.00  0.00     0.236 C 
ENDROOT
BRANCH   4  10
HETATM   10  C   UNL     1      41.963 -12.401   5.236  1.00  0.00     0.155 C 
BRANCH  10  11
HETATM   11  N   UNL     1      41.413 -12.414   6.594  1.00  0.00    -0.365 N 
HETATM   12  H   UNL     1      41.650 -13.241   7.137  1.00  0.00     0.161 HD
BRANCH  11  13
HETATM   13  C   UNL     1      41.133 -11.327   7.379  1.00  0.00     0.172 C 
HETATM   14  S   UNL     1      39.610 -10.936   7.930  1.00  0.00    -0.041 SA
BRANCH  13  15
HETATM   15  N   UNL     1      42.215 -10.638   7.848  1.00  0.00    -0.333 N 
HETATM   16  H   UNL     1      42.552  -9.903   7.231  1.00  0.00     0.168 HD
BRANCH  15  17
HETATM   17  C   UNL     1      43.095 -10.959   8.920  1.00  0.00     0.045 A 
HETATM   18  C   UNL     1      42.960 -10.290  10.170  1.00  0.00     0.001 A 
HETATM   19  C   UNL     1      43.886 -10.592  11.204  1.00  0.00    -0.024 A 
HETATM   20  C   UNL     1      41.938  -9.354  10.469  1.00  0.00     0.014 A 
HETATM   21  C   UNL     1      43.783  -9.963  12.454  1.00  0.00     0.012 A 
HETATM   22  C   UNL     1      44.908 -11.525  10.981  1.00  0.00     0.012 A 
HETATM   23  C   UNL     1      42.774  -9.038  12.710  1.00  0.00     0.001 A 
HETATM   24  C   UNL     1      41.849  -8.736  11.720  1.00  0.00     0.001 A 
HETATM   25  C   UNL     1      45.042 -12.155   9.749  1.00  0.00     0.003 A 
HETATM   26  C   UNL     1      44.148 -11.867   8.724  1.00  0.00     0.030 A 
ENDBRANCH  15  17
ENDBRANCH  13  15
ENDBRANCH  11  13
ENDBRANCH  10  11
ENDBRANCH   4  10
BRANCH   1  27
HETATM   27  C   UNL     1      41.054 -15.451   1.909  1.00  0.00     0.038 C 
HETATM   28  N   UNL     1      41.515 -15.982   0.727  1.00  0.00    -0.277 N 
HETATM   29  C   UNL     1      41.234 -15.638  -0.645  1.00  0.00     0.179 C 
HETATM   30  N   UNL     1      42.404 -16.974   0.908  1.00  0.00    -0.172 NA
HETATM   31  C   UNL     1      42.400 -17.239   2.218  1.00  0.00     0.089 C 
HETATM   32  C   UNL     1      41.558 -16.313   2.876  1.00  0.00     0.061 C 
BRANCH  31  33
HETATM   33  C   UNL     1      43.214 -18.307   2.808  1.00  0.00    -0.003 A 
HETATM   34  C   UNL     1      43.541 -18.283   4.174  1.00  0.00     0.053 A 
HETATM   35  C   UNL     1      44.287 -19.316   4.756  1.00  0.00     0.102 A 
HETATM   36  C   UNL     1      44.717 -20.400   3.965  1.00  0.00     0.101 A 
HETATM   37  C   UNL     1      44.409 -20.418   2.603  1.00  0.00     0.040 A 
HETATM   38  C   UNL     1      43.664 -19.382   2.031  1.00  0.00     0.017 A 
BRANCH  35  39
HETATM   39  O   UNL     1      44.633 -19.369   6.085  1.00  0.00    -0.353 OA
HETATM   40  C   UNL     1      43.794 -18.699   7.015  1.00  0.00     0.210 C 
ENDBRANCH  35  39
BRANCH  36  41
HETATM   41  O   UNL     1      45.433 -21.376   4.611  1.00  0.00    -0.353 OA
HETATM   42  C   UNL     1      44.783 -22.611   4.872  1.00  0.00     0.210 C 
ENDBRANCH  36  41
ENDBRANCH  31  33
ENDBRANCH   1  27
TORSDOF 9
ENDMDL
MODEL 3
REMARK VINA RESULT:      -9.5      4.003     10.128
REMARK  9 active torsions:
REMARK  status: ('A' for Active; 'I' for Inactive)
REMARK    1  A    between atoms: C_4  and  C_5 
REMARK    2  A    between atoms: C_7  and  O_8 
REMARK    3  A    between atoms: C_10  and  O_11 
REMARK    4  A    between atoms: C_16  and  C_17 
REMARK    5  A    between atoms: C_20  and  C_21 
REMARK    6  A    between atoms: C_21  and  N_22 
REMARK    7  A    between atoms: N_22  and  C_23 
REMARK    8  A    between atoms: C_23  and  N_24 
REMARK    9  A    between atoms: N_24  and  C_25 
ROOT
HETATM    1  C   UNL     1      40.714 -13.405   4.009  1.00  0.00     0.067 C 
HETATM    2  C   UNL     1      41.049 -11.960   3.578  1.00  0.00     0.001 C 
HETATM    3  C   UNL     1      41.380 -11.042   4.778  1.00  0.00     0.040 C 
HETATM    4  C   UNL     1      40.198 -10.951   5.760  1.00  0.00     0.206 C 
HETATM    5  N   UNL     1      39.160 -11.963   5.300  1.00  0.00    -0.065 N 
HETATM    6  H   UNL     1      38.413 -11.959   6.016  1.00  0.00     0.280 HD
HETATM    7  C   UNL     1      39.730 -13.363   5.201  1.00  0.00     0.246 C 
HETATM    8  C   UNL     1      39.738 -11.385   2.969  1.00  0.00     0.033 C 
HETATM    9  C   UNL     1      38.577 -11.526   3.969  1.00  0.00     0.236 C 
ENDROOT
BRANCH   4  10
HETATM   10  C   UNL     1      40.617 -11.154   7.238  1.00  0.00     0.155 C 
BRANCH  10  11
HETATM   11  N   UNL     1      39.542 -11.391   8.205  1.00  0.00    -0.365 N 
HETATM   12  H   UNL     1      39.089 -12.297   8.118  1.00  0.00     0.161 HD
BRANCH  11  13
HETATM   13  C   UNL     1      39.440 -10.866   9.466  1.00  0.00     0.172 C 
HETATM   14  S   UNL     1      38.488  -9.558   9.863  1.00  0.00    -0.041 SA
BRANCH  13  15
HETATM   15  N   UNL     1      40.045 -11.583  10.459  1.00  0.00    -0.333 N 
HETATM   16  H   UNL     1      39.610 -12.479  10.664  1.00  0.00     0.168 HD
BRANCH  15  17
HETATM   17  C   UNL     1      41.007 -11.161  11.420  1.00  0.00     0.045 A 
HETATM   18  C   UNL     1      42.380 -11.067  11.052  1.00  0.00     0.001 A 
HETATM   19  C   UNL     1      43.325 -10.695  12.045  1.00  0.00    -0.024 A 
HETATM   20  C   UNL     1      42.874 -11.294   9.742  1.00  0.00     0.014 A 
HETATM   21  C   UNL     1      44.686 -10.583  11.722  1.00  0.00     0.012 A 
HETATM   22  C   UNL     1      42.901 -10.435  13.355  1.00  0.00     0.012 A 
HETATM   23  C   UNL     1      45.139 -10.825  10.427  1.00  0.00     0.001 A 
HETATM   24  C   UNL     1      44.233 -11.178   9.436  1.00  0.00     0.001 A 
HETATM   25  C   UNL     1      41.561 -10.551  13.708  1.00  0.00     0.003 A 
HETATM   26  C   UNL     1      40.623 -10.919  12.749  1.00  0.00     0.030 A 
ENDBRANCH  15  17
ENDBRANCH  13  15
ENDBRANCH  11  13
ENDBRANCH  10  11
ENDBRANCH   4  10
BRANCH   1  27
HETATM   27  C   UNL     1      41.779 -14.443   4.232  1.00  0.00     0.038 C 
HETATM   28  N   UNL     1      42.792 -14.540   5.155  1.00  0.00    -0.277 N 
HETATM   29  C   UNL     1      43.284 -13.600   6.133  1.00  0.00     0.179 C 
HETATM   30  N   UNL     1      43.399 -15.740   5.147  1.00  0.00    -0.172 NA
HETATM   31  C   UNL     1      42.915 -16.391   4.084  1.00  0.00     0.089 C 
HETATM   32  C   UNL     1      41.906 -15.605   3.479  1.00  0.00     0.061 C 
BRANCH  31  33
HETATM   33  C   UNL     1      43.374 -17.731   3.704  1.00  0.00    -0.003 A 
HETATM   34  C   UNL     1      43.904 -18.603   4.669  1.00  0.00     0.053 A 
HETATM   35  C   UNL     1      44.312 -19.899   4.324  1.00  0.00     0.102 A 
HETATM   36  C   UNL     1      44.190 -20.339   2.992  1.00  0.00     0.101 A 
HETATM   37  C   UNL     1      43.682 -19.468   2.026  1.00  0.00     0.040 A 
HETATM   38  C   UNL     1      43.277 -18.177   2.380  1.00  0.00     0.017 A 
BRANCH  35  39
HETATM   39  O   UNL     1      44.825 -20.812   5.213  1.00  0.00    -0.353 OA
HETATM   40  C   UNL     1      44.069 -21.096   6.381  1.00  0.00     0.210 C 
ENDBRANCH  35  39
BRANCH  36  41
HETATM   41  O   UNL     1      44.602 -21.623   2.737  1.00  0.00    -0.353 OA
HETATM   42  C   UNL     1      44.333 -22.162   1.451  1.00  0.00     0.210 C 
ENDBRANCH  36  41
ENDBRANCH  31  33
ENDBRANCH   1  27
TORSDOF 9
ENDMDL
MODEL 4
REMARK VINA RESULT:      -9.4      4.925      9.228
REMARK  9 active torsions:
REMARK  status: ('A' for Active; 'I' for Inactive)
REMARK    1  A    between atoms: C_4  and  C_5 
REMARK    2  A    between atoms: C_7  and  O_8 
REMARK    3  A    between atoms: C_10  and  O_11 
REMARK    4  A    between atoms: C_16  and  C_17 
REMARK    5  A    between atoms: C_20  and  C_21 
REMARK    6  A    between atoms: C_21  and  N_22 
REMARK    7  A    between atoms: N_22  and  C_23 
REMARK    8  A    between atoms: C_23  and  N_24 
REMARK    9  A    between atoms: N_24  and  C_25 
ROOT
HETATM    1  C   UNL     1      41.375 -14.902  -0.752  1.00  0.00     0.067 C 
HETATM    2  C   UNL     1      41.980 -13.484  -0.848  1.00  0.00     0.001 C 
HETATM    3  C   UNL     1      41.040 -12.396  -0.277  1.00  0.00     0.040 C 
HETATM    4  C   UNL     1      39.697 -12.360  -1.030  1.00  0.00     0.206 C 
HETATM    5  N   UNL     1      39.685 -13.555  -1.972  1.00  0.00    -0.065 N 
HETATM    6  H   UNL     1      38.746 -13.574  -2.404  1.00  0.00     0.280 HD
HETATM    7  C   UNL     1      39.909 -14.862  -1.240  1.00  0.00     0.246 C 
HETATM    8  C   UNL     1      42.093 -13.173  -2.369  1.00  0.00     0.033 C 
HETATM    9  C   UNL     1      40.729 -13.361  -3.056  1.00  0.00     0.236 C 
ENDROOT
BRANCH   4  10
HETATM   10  C   UNL     1      38.470 -12.330  -0.085  1.00  0.00     0.155 C 
BRANCH  10  11
HETATM   11  N   UNL     1      38.732 -12.076   1.333  1.00  0.00    -0.365 N 
HETATM   12  H   UNL     1      39.127 -12.865   1.838  1.00  0.00     0.161 HD
BRANCH  11  13
HETATM   13  C   UNL     1      39.039 -10.872   1.910  1.00  0.00     0.172 C 
HETATM   14  S   UNL     1      38.251  -9.443   1.573  1.00  0.00    -0.041 SA
BRANCH  13  15
HETATM   15  N   UNL     1      39.943 -10.915   2.934  1.00  0.00    -0.333 N 
HETATM   16  H   UNL     1      40.758 -10.322   2.807  1.00  0.00     0.168 HD
BRANCH  15  17
HETATM   17  C   UNL     1      40.051 -11.849   4.003  1.00  0.00     0.045 A 
HETATM   18  C   UNL     1      41.132 -12.777   4.024  1.00  0.00     0.001 A 
HETATM   19  C   UNL     1      41.184 -13.732   5.074  1.00  0.00    -0.024 A 
HETATM   20  C   UNL     1      42.186 -12.798   3.076  1.00  0.00     0.014 A 
HETATM   21  C   UNL     1      42.237 -14.659   5.137  1.00  0.00     0.012 A 
HETATM   22  C   UNL     1      40.186 -13.752   6.056  1.00  0.00     0.012 A 
HETATM   23  C   UNL     1      43.250 -14.659   4.182  1.00  0.00     0.001 A 
HETATM   24  C   UNL     1      43.227 -13.728   3.153  1.00  0.00     0.001 A 
HETATM   25  C   UNL     1      39.124 -12.854   6.013  1.00  0.00     0.003 A 
HETATM   26  C   UNL     1      39.053 -11.916   4.989  1.00  0.00     0.030 A 
ENDBRANCH  15  17
ENDBRANCH  13  15
ENDBRANCH  11  13
ENDBRANCH  10  11
ENDBRANCH   4  10
BRANCH   1  27
HETATM   27  C   UNL     1      41.505 -15.746   0.486  1.00  0.00     0.038 C 
HETATM   28  N   UNL     1      40.660 -15.958   1.549  1.00  0.00    -0.277 N 
HETATM   29  C   UNL     1      39.421 -15.320   1.924  1.00  0.00     0.179 C 
HETATM   30  N   UNL     1      41.063 -16.960   2.350  1.00  0.00    -0.172 NA
HETATM   31  C   UNL     1      42.285 -17.300   1.928  1.00  0.00     0.089 C 
HETATM   32  C   UNL     1      42.600 -16.554   0.769  1.00  0.00     0.061 C 
BRANCH  31  33
HETATM   33  C   UNL     1      43.087 -18.336   2.589  1.00  0.00    -0.003 A 
HETATM   34  C   UNL     1      43.402 -18.231   3.953  1.00  0.00     0.053 A 
HETATM   35  C   UNL     1      44.136 -19.232   4.604  1.00  0.00     0.102 A 
HETATM   36  C   UNL     1      44.566 -20.364   3.883  1.00  0.00     0.101 A 
HETATM   37  C   UNL     1      44.270 -20.462   2.522  1.00  0.00     0.040 A 
HETATM   38  C   UNL     1      43.537 -19.458   1.882  1.00  0.00     0.017 A 
BRANCH  35  39
HETATM   39  O   UNL     1      44.469 -19.207   5.936  1.00  0.00    -0.353 OA
HETATM   40  C   UNL     1      45.129 -18.051   6.432  1.00  0.00     0.210 C 
ENDBRANCH  35  39
BRANCH  36  41
HETATM   41  O   UNL     1      45.270 -21.303   4.593  1.00  0.00    -0.353 OA
HETATM   42  C   UNL     1      44.666 -22.573   4.792  1.00  0.00     0.210 C 
ENDBRANCH  36  41
ENDBRANCH  31  33
ENDBRANCH   1  27
TORSDOF 9
ENDMDL
MODEL 5
REMARK VINA RESULT:      -9.3      5.655      9.926
REMARK  9 active torsions:
REMARK  status: ('A' for Active; 'I' for Inactive)
REMARK    1  A    between atoms: C_4  and  C_5 
REMARK    2  A    between atoms: C_7  and  O_8 
REMARK    3  A    between atoms: C_10  and  O_11 
REMARK    4  A    between atoms: C_16  and  C_17 
REMARK    5  A    between atoms: C_20  and  C_21 
REMARK    6  A    between atoms: C_21  and  N_22 
REMARK    7  A    between atoms: N_22  and  C_23 
REMARK    8  A    between atoms: C_23  and  N_24 
REMARK    9  A    between atoms: N_24  and  C_25 
ROOT
HETATM    1  C   UNL     1      39.175 -13.902   2.401  1.00  0.00     0.067 C 
HETATM    2  C   UNL     1      38.728 -14.146   0.942  1.00  0.00     0.001 C 
HETATM    3  C   UNL     1      39.722 -13.564  -0.090  1.00  0.00     0.040 C 
HETATM    4  C   UNL     1      39.883 -12.042   0.078  1.00  0.00     0.206 C 
HETATM    5  N   UNL     1      39.138 -11.655   1.348  1.00  0.00    -0.065 N 
HETATM    6  H   UNL     1      39.328 -10.650   1.501  1.00  0.00     0.280 HD
HETATM    7  C   UNL     1      39.623 -12.431   2.554  1.00  0.00     0.246 C 
HETATM    8  C   UNL     1      37.417 -13.328   0.759  1.00  0.00     0.033 C 
HETATM    9  C   UNL     1      37.647 -11.856   1.145  1.00  0.00     0.236 C 
ENDROOT
BRANCH   4  10
HETATM   10  C   UNL     1      41.362 -11.584   0.091  1.00  0.00     0.155 C 
BRANCH  10  11
HETATM   11  N   UNL     1      42.205 -12.036  -1.018  1.00  0.00    -0.365 N 
HETATM   12  H   UNL     1      42.437 -13.026  -0.996  1.00  0.00     0.161 HD
BRANCH  11  13
HETATM   13  C   UNL     1      42.255 -11.510  -2.282  1.00  0.00     0.172 C 
HETATM   14  S   UNL     1      42.776  -9.968  -2.636  1.00  0.00    -0.041 SA
BRANCH  13  15
HETATM   15  N   UNL     1      42.005 -12.385  -3.301  1.00  0.00    -0.333 N 
HETATM   16  H   UNL     1      42.408 -12.123  -4.197  1.00  0.00     0.168 HD
BRANCH  15  17
HETATM   17  C   UNL     1      41.057 -13.446  -3.368  1.00  0.00     0.045 A 
HETATM   18  C   UNL     1      39.672 -13.148  -3.516  1.00  0.00     0.001 A 
HETATM   19  C   UNL     1      38.745 -14.224  -3.525  1.00  0.00    -0.024 A 
HETATM   20  C   UNL     1      39.149 -11.842  -3.684  1.00  0.00     0.014 A 
HETATM   21  C   UNL     1      37.372 -13.976  -3.677  1.00  0.00     0.012 A 
HETATM   22  C   UNL     1      39.198 -15.543  -3.385  1.00  0.00     0.012 A 
HETATM   23  C   UNL     1      36.891 -12.678  -3.828  1.00  0.00     0.001 A 
HETATM   24  C   UNL     1      37.778 -11.611  -3.835  1.00  0.00     0.001 A 
HETATM   25  C   UNL     1      40.551 -15.819  -3.220  1.00  0.00     0.003 A 
HETATM   26  C   UNL     1      41.472 -14.777  -3.203  1.00  0.00     0.030 A 
ENDBRANCH  15  17
ENDBRANCH  13  15
ENDBRANCH  11  13
ENDBRANCH  10  11
ENDBRANCH   4  10
BRANCH   1  27
HETATM   27  C   UNL     1      40.122 -14.827   3.114  1.00  0.00     0.038 C 
HETATM   28  N   UNL     1      40.415 -14.997   4.446  1.00  0.00    -0.277 N 
HETATM   29  C   UNL     1      40.033 -14.237   5.611  1.00  0.00     0.179 C 
HETATM   30  N   UNL     1      41.168 -16.086   4.684  1.00  0.00    -0.172 NA
HETATM   31  C   UNL     1      41.540 -16.546   3.486  1.00  0.00     0.089 C 
HETATM   32  C   UNL     1      40.914 -15.777   2.479  1.00  0.00     0.061 C 
BRANCH  31  33
HETATM   33  C   UNL     1      42.421 -17.708   3.327  1.00  0.00    -0.003 A 
HETATM   34  C   UNL     1      43.095 -18.249   4.434  1.00  0.00     0.053 A 
HETATM   35  C   UNL     1      43.910 -19.380   4.301  1.00  0.00     0.102 A 
HETATM   36  C   UNL     1      44.059 -19.991   3.040  1.00  0.00     0.101 A 
HETATM   37  C   UNL     1      43.406 -19.445   1.933  1.00  0.00     0.040 A 
HETATM   38  C   UNL     1      42.594 -18.315   2.076  1.00  0.00     0.017 A 
BRANCH  35  39
HETATM   39  O   UNL     1      44.588 -19.974   5.338  1.00  0.00    -0.353 OA
HETATM   40  C   UNL     1      43.878 -20.207   6.546  1.00  0.00     0.210 C 
ENDBRANCH  35  39
BRANCH  36  41
HETATM   41  O   UNL     1      44.866 -21.100   2.994  1.00  0.00    -0.353 OA
HETATM   42  C   UNL     1      44.555 -22.106   2.041  1.00  0.00     0.210 C 
ENDBRANCH  36  41
ENDBRANCH  31  33
ENDBRANCH   1  27
TORSDOF 9
ENDMDL
MODEL 6
REMARK VINA RESULT:      -9.2      4.605      8.771
REMARK  9 active torsions:
REMARK  status: ('A' for Active; 'I' for Inactive)
REMARK    1  A    between atoms: C_4  and  C_5 
REMARK    2  A    between atoms: C_7  and  O_8 
REMARK    3  A    between atoms: C_10  and  O_11 
REMARK    4  A    between atoms: C_16  and  C_17 
REMARK    5  A    between atoms: C_20  and  C_21 
REMARK    6  A    between atoms: C_21  and  N_22 
REMARK    7  A    between atoms: N_22  and  C_23 
REMARK    8  A    between atoms: C_23  and  N_24 
REMARK    9  A    between atoms: N_24  and  C_25 
ROOT
HETATM    1  C   UNL     1      41.876 -13.013   5.530  1.00  0.00     0.067 C 
HETATM    2  C   UNL     1      40.402 -13.074   5.990  1.00  0.00     0.001 C 
HETATM    3  C   UNL     1      39.450 -13.565   4.875  1.00  0.00     0.040 C 
HETATM    4  C   UNL     1      39.495 -12.637   3.646  1.00  0.00     0.206 C 
HETATM    5  N   UNL     1      40.623 -11.643   3.882  1.00  0.00    -0.065 N 
HETATM    6  H   UNL     1      40.705 -11.085   3.016  1.00  0.00     0.280 HD
HETATM    7  C   UNL     1      41.946 -12.330   4.144  1.00  0.00     0.246 C 
HETATM    8  C   UNL     1      39.985 -11.601   6.269  1.00  0.00     0.033 C 
HETATM    9  C   UNL     1      40.259 -10.724   5.034  1.00  0.00     0.236 C 
ENDROOT
BRANCH   4  10
HETATM   10  C   UNL     1      39.646 -13.404   2.309  1.00  0.00     0.155 C 
BRANCH  10  11
HETATM   11  N   UNL     1      40.095 -14.796   2.391  1.00  0.00    -0.365 N 
HETATM   12  H   UNL     1      39.448 -15.422   2.864  1.00  0.00     0.161 HD
BRANCH  11  13
HETATM   13  C   UNL     1      40.911 -15.451   1.506  1.00  0.00     0.172 C 
HETATM   14  S   UNL     1      40.922 -17.102   1.285  1.00  0.00    -0.041 SA
BRANCH  13  15
HETATM   15  N   UNL     1      41.631 -14.655   0.660  1.00  0.00    -0.333 N 
HETATM   16  H   UNL     1      42.166 -13.921   1.117  1.00  0.00     0.168 HD
BRANCH  15  17
HETATM   17  C   UNL     1      41.536 -14.524  -0.754  1.00  0.00     0.045 A 
HETATM   18  C   UNL     1      41.922 -13.302  -1.378  1.00  0.00     0.001 A 
HETATM   19  C   UNL     1      41.766 -13.181  -2.784  1.00  0.00    -0.024 A 
HETATM   20  C   UNL     1      42.483 -12.196  -0.691  1.00  0.00     0.014 A 
HETATM   21  C   UNL     1      42.142 -11.998  -3.440  1.00  0.00     0.012 A 
HETATM   22  C   UNL     1      41.238 -14.244  -3.527  1.00  0.00     0.012 A 
HETATM   23  C   UNL     1      42.679 -10.925  -2.732  1.00  0.00     0.001 A 
HETATM   24  C   UNL     1      42.852 -11.025  -1.358  1.00  0.00     0.001 A 
HETATM   25  C   UNL     1      40.845 -15.424  -2.904  1.00  0.00     0.003 A 
HETATM   26  C   UNL     1      40.985 -15.559  -1.527  1.00  0.00     0.030 A 
ENDBRANCH  15  17
ENDBRANCH  13  15
ENDBRANCH  11  13
ENDBRANCH  10  11
ENDBRANCH   4  10
BRANCH   1  27
HETATM   27  C   UNL     1      42.782 -14.212   5.583  1.00  0.00     0.038 C 
HETATM   28  N   UNL     1      43.787 -14.570   6.450  1.00  0.00    -0.277 N 
HETATM   29  C   UNL     1      44.427 -13.842   7.518  1.00  0.00     0.179 C 
HETATM   30  N   UNL     1      44.211 -15.833   6.271  1.00  0.00    -0.172 NA
HETATM   31  C   UNL     1      43.618 -16.266   5.154  1.00  0.00     0.089 C 
HETATM   32  C   UNL     1      42.725 -15.274   4.688  1.00  0.00     0.061 C 
BRANCH  31  33
HETATM   33  C   UNL     1      43.870 -17.599   4.594  1.00  0.00    -0.003 A 
HETATM   34  C   UNL     1      44.135 -18.689   5.439  1.00  0.00     0.053 A 
HETATM   35  C   UNL     1      44.341 -19.973   4.918  1.00  0.00     0.102 A 
HETATM   36  C   UNL     1      44.282 -20.180   3.526  1.00  0.00     0.101 A 
HETATM   37  C   UNL     1      44.037 -19.096   2.682  1.00  0.00     0.040 A 
HETATM   38  C   UNL     1      43.832 -17.818   3.211  1.00  0.00     0.017 A 
BRANCH  35  39
HETATM   39  O   UNL     1      44.591 -21.088   5.681  1.00  0.00    -0.353 OA
HETATM   40  C   UNL     1      43.776 -21.304   6.824  1.00  0.00     0.210 C 
ENDBRANCH  35  39
BRANCH  36  41
HETATM   41  O   UNL     1      44.484 -21.468   3.096  1.00  0.00    -0.353 OA
HETATM   42  C   UNL     1      44.054 -21.803   1.784  1.00  0.00     0.210 C 
ENDBRANCH  36  41
ENDBRANCH  31  33
ENDBRANCH   1  27
TORSDOF 9
ENDMDL
MODEL 7
REMARK VINA RESULT:      -9.1      4.814      8.484
REMARK  9 active torsions:
REMARK  status: ('A' for Active; 'I' for Inactive)
REMARK    1  A    between atoms: C_4  and  C_5 
REMARK    2  A    between atoms: C_7  and  O_8 
REMARK    3  A    between atoms: C_10  and  O_11 
REMARK    4  A    between atoms: C_16  and  C_17 
REMARK    5  A    between atoms: C_20  and  C_21 
REMARK    6  A    between atoms: C_21  and  N_22 
REMARK    7  A    between atoms: N_22  and  C_23 
REMARK    8  A    between atoms: C_23  and  N_24 
REMARK    9  A    between atoms: N_24  and  C_25 
ROOT
HETATM    1  C   UNL     1      39.157 -11.338   4.702  1.00  0.00     0.067 C 
HETATM    2  C   UNL     1      40.490 -10.686   5.130  1.00  0.00     0.001 C 
HETATM    3  C   UNL     1      41.668 -11.688   5.138  1.00  0.00     0.040 C 
HETATM    4  C   UNL     1      41.410 -12.854   6.110  1.00  0.00     0.206 C 
HETATM    5  N   UNL     1      39.975 -12.715   6.598  1.00  0.00    -0.065 N 
HETATM    6  H   UNL     1      39.783 -13.550   7.176  1.00  0.00     0.280 HD
HETATM    7  C   UNL     1      38.983 -12.677   5.455  1.00  0.00     0.246 C 
HETATM    8  C   UNL     1      40.297 -10.265   6.616  1.00  0.00     0.033 C 
HETATM    9  C   UNL     1      39.848 -11.471   7.459  1.00  0.00     0.236 C 
ENDROOT
BRANCH   4  10
HETATM   10  C   UNL     1      41.697 -14.242   5.486  1.00  0.00     0.155 C 
BRANCH  10  11
HETATM   11  N   UNL     1      41.284 -15.415   6.260  1.00  0.00    -0.365 N 
HETATM   12  H   UNL     1      40.279 -15.501   6.392  1.00  0.00     0.161 HD
BRANCH  11  13
HETATM   13  C   UNL     1      41.933 -16.618   6.339  1.00  0.00     0.172 C 
HETATM   14  S   UNL     1      42.884 -17.089   7.624  1.00  0.00    -0.041 SA
BRANCH  13  15
HETATM   15  N   UNL     1      41.631 -17.523   5.361  1.00  0.00    -0.333 N 
HETATM   16  H   UNL     1      40.901 -18.187   5.605  1.00  0.00     0.168 HD
BRANCH  15  17
HETATM   17  C   UNL     1      42.352 -17.849   4.177  1.00  0.00     0.045 A 
HETATM   18  C   UNL     1      41.940 -17.306   2.926  1.00  0.00     0.001 A 
HETATM   19  C   UNL     1      42.645 -17.691   1.756  1.00  0.00    -0.024 A 
HETATM   20  C   UNL     1      40.881 -16.376   2.769  1.00  0.00     0.014 A 
HETATM   21  C   UNL     1      42.278 -17.172   0.504  1.00  0.00     0.012 A 
HETATM   22  C   UNL     1      43.716 -18.589   1.844  1.00  0.00     0.012 A 
HETATM   23  C   UNL     1      41.224 -16.270   0.383  1.00  0.00     0.001 A 
HETATM   24  C   UNL     1      40.527 -15.869   1.515  1.00  0.00     0.001 A 
HETATM   25  C   UNL     1      44.096 -19.129   3.068  1.00  0.00     0.003 A 
HETATM   26  C   UNL     1      43.413 -18.768   4.224  1.00  0.00     0.030 A 
ENDBRANCH  15  17
ENDBRANCH  13  15
ENDBRANCH  11  13
ENDBRANCH  10  11
ENDBRANCH   4  10
BRANCH   1  27
HETATM   27  C   UNL     1      38.762 -11.481   3.258  1.00  0.00     0.038 C 
HETATM   28  N   UNL     1      37.932 -10.738   2.452  1.00  0.00    -0.277 N 
HETATM   29  C   UNL     1      37.027  -9.656   2.756  1.00  0.00     0.179 C 
HETATM   30  N   UNL     1      38.016 -11.078   1.154  1.00  0.00    -0.172 NA
HETATM   31  C   UNL     1      38.768 -12.182   1.110  1.00  0.00     0.089 C 
HETATM   32  C   UNL     1      39.244 -12.471   2.410  1.00  0.00     0.061 C 
BRANCH  31  33
HETATM   33  C   UNL     1      39.052 -12.893  -0.141  1.00  0.00    -0.003 A 
HETATM   34  C   UNL     1      40.321 -12.811  -0.736  1.00  0.00     0.053 A 
HETATM   35  C   UNL     1      40.615 -13.514  -1.911  1.00  0.00     0.102 A 
HETATM   36  C   UNL     1      39.626 -14.319  -2.510  1.00  0.00     0.101 A 
HETATM   37  C   UNL     1      38.357 -14.389  -1.932  1.00  0.00     0.040 A 
HETATM   38  C   UNL     1      38.073 -13.683  -0.758  1.00  0.00     0.017 A 
BRANCH  35  39
HETATM   39  O   UNL     1      41.835 -13.495  -2.542  1.00  0.00    -0.353 OA
HETATM   40  C   UNL     1      42.770 -12.501  -2.146  1.00  0.00     0.210 C 
ENDBRANCH  35  39
BRANCH  36  41
HETATM   41  O   UNL     1      39.994 -14.984  -3.653  1.00  0.00    -0.353 OA
HETATM   42  C   UNL     1      39.079 -15.924  -4.196  1.00  0.00     0.210 C 
ENDBRANCH  36  41
ENDBRANCH  31  33
ENDBRANCH   1  27
TORSDOF 9
ENDMDL
MODEL 8
REMARK VINA RESULT:      -9.1      4.840      8.162
REMARK  9 active torsions:
REMARK  status: ('A' for Active; 'I' for Inactive)
REMARK    1  A    between atoms: C_4  and  C_5 
REMARK    2  A    between atoms: C_7  and  O_8 
REMARK    3  A    between atoms: C_10  and  O_11 
REMARK    4  A    between atoms: C_16  and  C_17 
REMARK    5  A    between atoms: C_20  and  C_21 
REMARK    6  A    between atoms: C_21  and  N_22 
REMARK    7  A    between atoms: N_22  and  C_23 
REMARK    8  A    between atoms: C_23  and  N_24 
REMARK    9  A    between atoms: N_24  and  C_25 
ROOT
HETATM    1  C   UNL     1      38.937 -11.418   4.997  1.00  0.00     0.067 C 
HETATM    2  C   UNL     1      39.866 -10.314   5.550  1.00  0.00     0.001 C 
HETATM    3  C   UNL     1      41.356 -10.728   5.537  1.00  0.00     0.040 C 
HETATM    4  C   UNL     1      41.599 -11.985   6.393  1.00  0.00     0.206 C 
HETATM    5  N   UNL     1      40.233 -12.506   6.813  1.00  0.00    -0.065 N 
HETATM    6  H   UNL     1      40.402 -13.398   7.308  1.00  0.00     0.280 HD
HETATM    7  C   UNL     1      39.333 -12.774   5.625  1.00  0.00     0.246 C 
HETATM    8  C   UNL     1      39.494 -10.161   7.053  1.00  0.00     0.033 C 
HETATM    9  C   UNL     1      39.583 -11.521   7.767  1.00  0.00     0.236 C 
ENDROOT
BRANCH   4  10
HETATM   10  C   UNL     1      42.452 -13.057   5.671  1.00  0.00     0.155 C 
BRANCH  10  11
HETATM   11  N   UNL     1      42.630 -14.337   6.361  1.00  0.00    -0.365 N 
HETATM   12  H   UNL     1      42.461 -14.304   7.363  1.00  0.00     0.161 HD
BRANCH  11  13
HETATM   13  C   UNL     1      42.445 -15.588   5.835  1.00  0.00     0.172 C 
HETATM   14  S   UNL     1      41.020 -16.446   5.933  1.00  0.00    -0.041 SA
BRANCH  13  15
HETATM   15  N   UNL     1      43.461 -16.061   5.053  1.00  0.00    -0.333 N 
HETATM   16  H   UNL     1      44.386 -15.721   5.304  1.00  0.00     0.168 HD
BRANCH  15  17
HETATM   17  C   UNL     1      43.398 -16.728   3.796  1.00  0.00     0.045 A 
HETATM   18  C   UNL     1      43.799 -18.091   3.699  1.00  0.00     0.001 A 
HETATM   19  C   UNL     1      43.776 -18.714   2.423  1.00  0.00    -0.024 A 
HETATM   20  C   UNL     1      44.195 -18.889   4.802  1.00  0.00     0.014 A 
HETATM   21  C   UNL     1      44.154 -20.059   2.283  1.00  0.00     0.012 A 
HETATM   22  C   UNL     1      43.374 -17.989   1.294  1.00  0.00     0.012 A 
HETATM   23  C   UNL     1      44.551 -20.810   3.387  1.00  0.00     0.001 A 
HETATM   24  C   UNL     1      44.569 -20.227   4.647  1.00  0.00     0.001 A 
HETATM   25  C   UNL     1      43.006 -16.652   1.398  1.00  0.00     0.003 A 
HETATM   26  C   UNL     1      43.027 -16.024   2.639  1.00  0.00     0.030 A 
ENDBRANCH  15  17
ENDBRANCH  13  15
ENDBRANCH  11  13
ENDBRANCH  10  11
ENDBRANCH   4  10
BRANCH   1  27
HETATM   27  C   UNL     1      38.659 -11.569   3.527  1.00  0.00     0.038 C 
HETATM   28  N   UNL     1      37.923 -10.813   2.646  1.00  0.00    -0.277 N 
HETATM   29  C   UNL     1      37.032  -9.698   2.861  1.00  0.00     0.179 C 
HETATM   30  N   UNL     1      38.103 -11.175   1.364  1.00  0.00    -0.172 NA
HETATM   31  C   UNL     1      38.820 -12.303   1.397  1.00  0.00     0.089 C 
HETATM   32  C   UNL     1      39.177 -12.587   2.735  1.00  0.00     0.061 C 
BRANCH  31  33
HETATM   33  C   UNL     1      39.183 -13.040   0.182  1.00  0.00    -0.003 A 
HETATM   34  C   UNL     1      38.557 -12.752  -1.041  1.00  0.00     0.053 A 
HETATM   35  C   UNL     1      38.921 -13.425  -2.215  1.00  0.00     0.102 A 
HETATM   36  C   UNL     1      39.931 -14.406  -2.174  1.00  0.00     0.101 A 
HETATM   37  C   UNL     1      40.543 -14.708  -0.956  1.00  0.00     0.040 A 
HETATM   38  C   UNL     1      40.173 -14.031   0.210  1.00  0.00     0.017 A 
BRANCH  35  39
HETATM   39  O   UNL     1      38.365 -13.188  -3.449  1.00  0.00    -0.353 OA
HETATM   40  C   UNL     1      37.053 -12.646  -3.491  1.00  0.00     0.210 C 
ENDBRANCH  35  39
BRANCH  36  41
HETATM   41  O   UNL     1      40.238 -15.012  -3.367  1.00  0.00    -0.353 OA
HETATM   42  C   UNL     1      39.848 -16.366  -3.541  1.00  0.00     0.210 C 
ENDBRANCH  36  41
ENDBRANCH  31  33
ENDBRANCH   1  27
TORSDOF 9
ENDMDL
MODEL 9
REMARK VINA RESULT:      -8.9      4.798      8.677
REMARK  9 active torsions:
REMARK  status: ('A' for Active; 'I' for Inactive)
REMARK    1  A    between atoms: C_4  and  C_5 
REMARK    2  A    between atoms: C_7  and  O_8 
REMARK    3  A    between atoms: C_10  and  O_11 
REMARK    4  A    between atoms: C_16  and  C_17 
REMARK    5  A    between atoms: C_20  and  C_21 
REMARK    6  A    between atoms: C_21  and  N_22 
REMARK    7  A    between atoms: N_22  and  C_23 
REMARK    8  A    between atoms: C_23  and  N_24 
REMARK    9  A    between atoms: N_24  and  C_25 
ROOT
HETATM    1  C   UNL     1      39.300 -13.991   0.510  1.00  0.00     0.067 C 
HETATM    2  C   UNL     1      39.547 -12.680  -0.269  1.00  0.00     0.001 C 
HETATM    3  C   UNL     1      40.394 -11.663   0.531  1.00  0.00     0.040 C 
HETATM    4  C   UNL     1      39.706 -11.273   1.852  1.00  0.00     0.206 C 
HETATM    5  N   UNL     1      38.496 -12.182   2.007  1.00  0.00    -0.065 N 
HETATM    6  H   UNL     1      38.095 -11.975   2.938  1.00  0.00     0.280 HD
HETATM    7  C   UNL     1      38.872 -13.648   1.955  1.00  0.00     0.246 C 
HETATM    8  C   UNL     1      38.150 -12.015  -0.433  1.00  0.00     0.033 C 
HETATM    9  C   UNL     1      37.470 -11.853   0.938  1.00  0.00     0.236 C 
ENDROOT
BRANCH   4  10
HETATM   10  C   UNL     1      40.657 -11.330   3.074  1.00  0.00     0.155 C 
BRANCH  10  11
HETATM   11  N   UNL     1      40.033 -11.333   4.399  1.00  0.00    -0.365 N 
HETATM   12  H   UNL     1      39.178 -10.787   4.464  1.00  0.00     0.161 HD
BRANCH  11  13
HETATM   13  C   UNL     1      40.098 -12.330   5.336  1.00  0.00     0.172 C 
HETATM   14  S   UNL     1      39.518 -12.194   6.892  1.00  0.00    -0.041 SA
BRANCH  13  15
HETATM   15  N   UNL     1      40.525 -13.546   4.882  1.00  0.00    -0.333 N 
HETATM   16  H   UNL     1      40.308 -13.737   3.908  1.00  0.00     0.168 HD
BRANCH  15  17
HETATM   17  C   UNL     1      40.976 -14.677   5.620  1.00  0.00     0.045 A 
HETATM   18  C   UNL     1      42.331 -14.742   6.057  1.00  0.00     0.001 A 
HETATM   19  C   UNL     1      42.766 -15.906   6.744  1.00  0.00    -0.024 A 
HETATM   20  C   UNL     1      43.278 -13.702   5.878  1.00  0.00     0.014 A 
HETATM   21  C   UNL     1      44.090 -16.007   7.199  1.00  0.00     0.012 A 
HETATM   22  C   UNL     1      41.874 -16.962   6.973  1.00  0.00     0.012 A 
HETATM   23  C   UNL     1      44.999 -14.971   6.996  1.00  0.00     0.001 A 
HETATM   24  C   UNL     1      44.593 -13.818   6.338  1.00  0.00     0.001 A 
HETATM   25  C   UNL     1      40.560 -16.896   6.522  1.00  0.00     0.003 A 
HETATM   26  C   UNL     1      40.118 -15.766   5.843  1.00  0.00     0.030 A 
ENDBRANCH  15  17
ENDBRANCH  13  15
ENDBRANCH  11  13
ENDBRANCH  10  11
ENDBRANCH   4  10
BRANCH   1  27
HETATM   27  C   UNL     1      40.283 -15.128   0.498  1.00  0.00     0.038 C 
HETATM   28  N   UNL     1      40.997 -15.719  -0.518  1.00  0.00    -0.277 N 
HETATM   29  C   UNL     1      40.929 -15.556  -1.949  1.00  0.00     0.179 C 
HETATM   30  N   UNL     1      41.936 -16.573  -0.074  1.00  0.00    -0.172 NA
HETATM   31  C   UNL     1      41.727 -16.699   1.241  1.00  0.00     0.089 C 
HETATM   32  C   UNL     1      40.693 -15.818   1.633  1.00  0.00     0.061 C 
BRANCH  31  33
HETATM   33  C   UNL     1      42.528 -17.594   2.083  1.00  0.00    -0.003 A 
HETATM   34  C   UNL     1      43.114 -18.749   1.540  1.00  0.00     0.053 A 
HETATM   35  C   UNL     1      43.910 -19.593   2.326  1.00  0.00     0.102 A 
HETATM   36  C   UNL     1      44.132 -19.281   3.682  1.00  0.00     0.101 A 
HETATM   37  C   UNL     1      43.536 -18.144   4.230  1.00  0.00     0.040 A 
HETATM   38  C   UNL     1      42.742 -17.308   3.437  1.00  0.00     0.017 A 
BRANCH  35  39
HETATM   39  O   UNL     1      44.527 -20.730   1.863  1.00  0.00    -0.353 OA
HETATM   40  C   UNL     1      43.748 -21.913   1.767  1.00  0.00     0.210 C 
ENDBRANCH  35  39
BRANCH  36  41
HETATM   41  O   UNL     1      44.931 -20.151   4.381  1.00  0.00    -0.353 OA
HETATM   42  C   UNL     1      44.489 -20.572   5.663  1.00  0.00     0.210 C 
ENDBRANCH  36  41
ENDBRANCH  31  33
ENDBRANCH   1  27
TORSDOF 9
ENDMDL
MODEL 10
REMARK VINA RESULT:      -8.8      5.839     10.036
REMARK  9 active torsions:
REMARK  status: ('A' for Active; 'I' for Inactive)
REMARK    1  A    between atoms: C_4  and  C_5 
REMARK    2  A    between atoms: C_7  and  O_8 
REMARK    3  A    between atoms: C_10  and  O_11 
REMARK    4  A    between atoms: C_16  and  C_17 
REMARK    5  A    between atoms: C_20  and  C_21 
REMARK    6  A    between atoms: C_21  and  N_22 
REMARK    7  A    between atoms: N_22  and  C_23 
REMARK    8  A    between atoms: C_23  and  N_24 
REMARK    9  A    between atoms: N_24  and  C_25 
ROOT
HETATM    1  C   UNL     1      43.582 -16.936   3.920  1.00  0.00     0.067 C 
HETATM    2  C   UNL     1      43.333 -18.193   4.783  1.00  0.00     0.001 C 
HETATM    3  C   UNL     1      42.016 -18.109   5.590  1.00  0.00     0.040 C 
HETATM    4  C   UNL     1      42.019 -16.904   6.549  1.00  0.00     0.206 C 
HETATM    5  N   UNL     1      43.262 -16.086   6.230  1.00  0.00    -0.065 N 
HETATM    6  H   UNL     1      43.207 -15.234   6.813  1.00  0.00     0.280 HD
HETATM    7  C   UNL     1      43.318 -15.675   4.774  1.00  0.00     0.246 C 
HETATM    8  C   UNL     1      44.468 -18.209   5.847  1.00  0.00     0.033 C 
HETATM    9  C   UNL     1      44.502 -16.874   6.613  1.00  0.00     0.236 C 
ENDROOT
BRANCH   4  10
HETATM   10  C   UNL     1      40.718 -16.065   6.476  1.00  0.00     0.155 C 
BRANCH  10  11
HETATM   11  N   UNL     1      40.226 -15.719   5.141  1.00  0.00    -0.365 N 
HETATM   12  H   UNL     1      39.659 -16.439   4.699  1.00  0.00     0.161 HD
BRANCH  11  13
HETATM   13  C   UNL     1      39.952 -14.464   4.665  1.00  0.00     0.172 C 
HETATM   14  S   UNL     1      39.467 -13.185   5.617  1.00  0.00    -0.041 SA
BRANCH  13  15
HETATM   15  N   UNL     1      40.258 -14.245   3.352  1.00  0.00    -0.333 N 
HETATM   16  H   UNL     1      41.252 -14.247   3.140  1.00  0.00     0.168 HD
BRANCH  15  17
HETATM   17  C   UNL     1      39.432 -13.753   2.302  1.00  0.00     0.045 A 
HETATM   18  C   UNL     1      39.555 -12.397   1.882  1.00  0.00     0.001 A 
HETATM   19  C   UNL     1      38.681 -11.920   0.869  1.00  0.00    -0.024 A 
HETATM   20  C   UNL     1      40.518 -11.488   2.387  1.00  0.00     0.014 A 
HETATM   21  C   UNL     1      38.774 -10.593   0.419  1.00  0.00     0.012 A 
HETATM   22  C   UNL     1      37.720 -12.772   0.311  1.00  0.00     0.012 A 
HETATM   23  C   UNL     1      39.725  -9.722   0.948  1.00  0.00     0.001 A 
HETATM   24  C   UNL     1      40.598 -10.170   1.929  1.00  0.00     0.001 A 
HETATM   25  C   UNL     1      37.595 -14.088   0.745  1.00  0.00     0.003 A 
HETATM   26  C   UNL     1      38.439 -14.571   1.739  1.00  0.00     0.030 A 
ENDBRANCH  15  17
ENDBRANCH  13  15
ENDBRANCH  11  13
ENDBRANCH  10  11
ENDBRANCH   4  10
BRANCH   1  27
HETATM   27  C   UNL     1      43.001 -16.782   2.542  1.00  0.00     0.038 C 
HETATM   28  N   UNL     1      42.520 -17.698   1.637  1.00  0.00    -0.277 N 
HETATM   29  C   UNL     1      42.554 -19.140   1.632  1.00  0.00     0.179 C 
HETATM   30  N   UNL     1      41.887 -17.127   0.597  1.00  0.00    -0.172 NA
HETATM   31  C   UNL     1      42.105 -15.813   0.708  1.00  0.00     0.089 C 
HETATM   32  C   UNL     1      42.810 -15.560   1.908  1.00  0.00     0.061 C 
BRANCH  31  33
HETATM   33  C   UNL     1      41.611 -14.846  -0.278  1.00  0.00    -0.003 A 
HETATM   34  C   UNL     1      40.622 -15.215  -1.205  1.00  0.00     0.053 A 
HETATM   35  C   UNL     1      40.116 -14.290  -2.127  1.00  0.00     0.102 A 
HETATM   36  C   UNL     1      40.602 -12.968  -2.130  1.00  0.00     0.101 A 
HETATM   37  C   UNL     1      41.598 -12.602  -1.222  1.00  0.00     0.040 A 
HETATM   38  C   UNL     1      42.097 -13.533  -0.305  1.00  0.00     0.017 A 
BRANCH  35  39
HETATM   39  O   UNL     1      39.140 -14.572  -3.052  1.00  0.00    -0.353 OA
HETATM   40  C   UNL     1      39.324 -15.709  -3.883  1.00  0.00     0.210 C 
ENDBRANCH  35  39
BRANCH  36  41
HETATM   41  O   UNL     1      40.048 -12.120  -3.056  1.00  0.00    -0.353 OA
HETATM   42  C   UNL     1      40.819 -11.003  -3.476  1.00  0.00     0.210 C 
ENDBRANCH  36  41
ENDBRANCH  31  33
ENDBRANCH   1  27
TORSDOF 9
ENDMDL
