MODEL 1
REMARK VINA RESULT:      -9.4      0.000      0.000
REMARK  7 active torsions:
REMARK  status: ('A' for Active; 'I' for Inactive)
REMARK    1  A    between atoms: C_5  and  C_6 
REMARK       I    between atoms: C_6  and  N_7 
REMARK    2  A    between atoms: N_10  and  C_11 
REMARK    3  A    between atoms: C_14  and  N_15 
REMARK    4  A    between atoms: N_15  and  C_16 
REMARK    5  A    between atoms: C_16  and  N_17 
REMARK       I    between atoms: N_17  and  C_18 
REMARK    6  A    between atoms: C_18  and  C_19 
REMARK    7  A    between atoms: C_22  and  O_23 
ROOT
HETATM    1  C   UNL     1      40.865 -11.724   6.877  1.00  0.00     0.030 A 
HETATM    2  C   UNL     1      39.668 -11.380   7.526  1.00  0.00     0.031 A 
HETATM    3  C   UNL     1      39.633 -10.484   8.608  1.00  0.00     0.032 A 
HETATM    4  C   UNL     1      40.800  -9.880   9.071  1.00  0.00     0.034 A 
HETATM    5  C   UNL     1      42.000 -10.194   8.441  1.00  0.00     0.032 A 
HETATM    6  C   UNL     1      42.025 -11.108   7.377  1.00  0.00     0.031 A 
ENDROOT
BRANCH   4   7
HETATM    7  N   UNL     1      40.713  -9.064  10.224  1.00  0.00    -0.333 N 
HETATM    8  H   UNL     1      40.137  -8.236  10.095  1.00  0.00     0.168 HD
BRANCH   7   9
HETATM    9  C   UNL     1      40.850  -9.458  11.518  1.00  0.00     0.179 C 
HETATM   10  S   UNL     1      39.707 -10.456  12.213  1.00  0.00    -0.040 SA
BRANCH   9  11
HETATM   11  N   UNL     1      41.891  -8.990  12.282  1.00  0.00    -0.299 N 
HETATM   12  C   UNL     1      43.103  -9.562  12.652  1.00  0.00     0.257 C 
HETATM   13  O   UNL     1      43.611  -9.307  13.740  1.00  0.00    -0.267 OA
HETATM   14  H   UNL     1      41.696  -8.122  12.766  1.00  0.00     0.171 HD
BRANCH  12  15
HETATM   15  C   UNL     1      43.796 -10.459  11.690  1.00  0.00     0.032 A 
HETATM   16  C   UNL     1      44.690  -9.952  10.741  1.00  0.00     0.020 A 
HETATM   17  C   UNL     1      45.348 -10.822   9.868  1.00  0.00     0.038 A 
HETATM   18  C   UNL     1      45.139 -12.200   9.945  1.00  0.00     0.068 A 
HETATM   19  C   UNL     1      44.266 -12.709  10.909  1.00  0.00     0.038 A 
HETATM   20  C   UNL     1      43.601 -11.840  11.785  1.00  0.00     0.020 A 
BRANCH  18  21
HETATM   21  O   UNL     1      45.846 -12.932   9.031  1.00  0.00    -0.356 OA
HETATM   22  C   UNL     1      45.175 -13.278   7.826  1.00  0.00     0.210 C 
ENDBRANCH  18  21
ENDBRANCH  12  15
ENDBRANCH   9  11
ENDBRANCH   7   9
ENDBRANCH   4   7
BRANCH   1  23
HETATM   23  N   UNL     1      40.939 -12.683   5.857  1.00  0.00    -0.378 N 
HETATM   24  C   UNL     1      39.671 -13.353   5.471  1.00  0.00     0.143 C 
HETATM   25  C   UNL     1      39.801 -14.011   4.088  1.00  0.00     0.146 C 
HETATM   26  N   UNL     1      40.942 -14.923   4.008  1.00  0.00    -0.345 N 
HETATM   27  C   UNL     1      40.908 -15.856   2.968  1.00  0.00     0.253 C 
HETATM   28  C   UNL     1      42.207 -14.314   4.438  1.00  0.00     0.146 C 
HETATM   29  O   UNL     1      40.026 -15.877   2.112  1.00  0.00    -0.267 OA
HETATM   30  C   UNL     1      42.104 -13.596   5.802  1.00  0.00     0.143 C 
BRANCH  27  31
HETATM   31  C   UNL     1      41.939 -16.923   2.927  1.00  0.00     0.032 A 
HETATM   32  C   UNL     1      42.141 -17.763   4.027  1.00  0.00     0.017 A 
HETATM   33  C   UNL     1      43.042 -18.828   3.935  1.00  0.00     0.007 A 
HETATM   34  C   UNL     1      43.743 -19.063   2.744  1.00  0.00    -0.062 A 
HETATM   35  C   UNL     1      44.653 -20.251   2.622  1.00  0.00     0.048 C 
HETATM   36  C   UNL     1      43.517 -18.230   1.640  1.00  0.00     0.007 A 
HETATM   37  C   UNL     1      42.617 -17.165   1.729  1.00  0.00     0.017 A 
ENDBRANCH  27  31
ENDBRANCH   1  23
TORSDOF 7
ENDMDL
MODEL 2
REMARK VINA RESULT:      -8.7      5.095      8.274
REMARK  7 active torsions:
REMARK  status: ('A' for Active; 'I' for Inactive)
REMARK    1  A    between atoms: C_5  and  C_6 
REMARK       I    between atoms: C_6  and  N_7 
REMARK    2  A    between atoms: N_10  and  C_11 
REMARK    3  A    between atoms: C_14  and  N_15 
REMARK    4  A    between atoms: N_15  and  C_16 
REMARK    5  A    between atoms: C_16  and  N_17 
REMARK       I    between atoms: N_17  and  C_18 
REMARK    6  A    between atoms: C_18  and  C_19 
REMARK    7  A    between atoms: C_22  and  O_23 
ROOT
HETATM    1  C   UNL     1      41.326 -13.949   2.392  1.00  0.00     0.030 A 
HETATM    2  C   UNL     1      40.479 -13.806   3.504  1.00  0.00     0.031 A 
HETATM    3  C   UNL     1      40.973 -13.722   4.816  1.00  0.00     0.032 A 
HETATM    4  C   UNL     1      42.343 -13.757   5.065  1.00  0.00     0.034 A 
HETATM    5  C   UNL     1      43.207 -13.888   3.984  1.00  0.00     0.032 A 
HETATM    6  C   UNL     1      42.701 -13.995   2.679  1.00  0.00     0.031 A 
ENDROOT
BRANCH   4   7
HETATM    7  N   UNL     1      42.773 -13.765   6.414  1.00  0.00    -0.333 N 
HETATM    8  H   UNL     1      42.022 -13.615   7.082  1.00  0.00     0.168 HD
BRANCH   7   9
HETATM    9  C   UNL     1      43.860 -14.404   6.923  1.00  0.00     0.179 C 
HETATM   10  S   UNL     1      45.379 -13.735   6.750  1.00  0.00    -0.040 SA
BRANCH   9  11
HETATM   11  N   UNL     1      43.727 -15.630   7.527  1.00  0.00    -0.299 N 
HETATM   12  C   UNL     1      42.985 -16.757   7.191  1.00  0.00     0.257 C 
HETATM   13  O   UNL     1      42.516 -17.483   8.062  1.00  0.00    -0.267 OA
HETATM   14  H   UNL     1      44.145 -15.690   8.447  1.00  0.00     0.171 HD
BRANCH  12  15
HETATM   15  C   UNL     1      42.802 -17.092   5.753  1.00  0.00     0.032 A 
HETATM   16  C   UNL     1      43.895 -17.396   4.935  1.00  0.00     0.020 A 
HETATM   17  C   UNL     1      43.691 -17.734   3.595  1.00  0.00     0.038 A 
HETATM   18  C   UNL     1      42.400 -17.794   3.065  1.00  0.00     0.068 A 
HETATM   19  C   UNL     1      41.307 -17.515   3.888  1.00  0.00     0.038 A 
HETATM   20  C   UNL     1      41.507 -17.172   5.232  1.00  0.00     0.020 A 
BRANCH  18  21
HETATM   21  O   UNL     1      42.347 -18.136   1.742  1.00  0.00    -0.356 OA
HETATM   22  C   UNL     1      43.029 -17.287   0.828  1.00  0.00     0.210 C 
ENDBRANCH  18  21
ENDBRANCH  12  15
ENDBRANCH   9  11
ENDBRANCH   7   9
ENDBRANCH   4   7
BRANCH   1  23
HETATM   23  N   UNL     1      40.855 -14.128   1.084  1.00  0.00    -0.378 N 
HETATM   24  C   UNL     1      41.792 -13.797  -0.019  1.00  0.00     0.143 C 
HETATM   25  C   UNL     1      41.339 -14.450  -1.335  1.00  0.00     0.146 C 
HETATM   26  N   UNL     1      39.958 -14.114  -1.679  1.00  0.00    -0.345 N 
HETATM   27  C   UNL     1      39.595 -14.307  -3.014  1.00  0.00     0.253 C 
HETATM   28  C   UNL     1      39.007 -14.372  -0.590  1.00  0.00     0.146 C 
HETATM   29  O   UNL     1      40.348 -14.804  -3.850  1.00  0.00    -0.267 OA
HETATM   30  C   UNL     1      39.452 -13.775   0.763  1.00  0.00     0.143 C 
BRANCH  27  31
HETATM   31  C   UNL     1      38.269 -13.825  -3.475  1.00  0.00     0.032 A 
HETATM   32  C   UNL     1      37.981 -12.457  -3.519  1.00  0.00     0.017 A 
HETATM   33  C   UNL     1      36.767 -12.017  -4.052  1.00  0.00     0.007 A 
HETATM   34  C   UNL     1      35.834 -12.938  -4.548  1.00  0.00    -0.062 A 
HETATM   35  C   UNL     1      34.564 -12.460  -5.190  1.00  0.00     0.048 C 
HETATM   36  C   UNL     1      36.140 -14.305  -4.522  1.00  0.00     0.007 A 
HETATM   37  C   UNL     1      37.353 -14.748  -3.989  1.00  0.00     0.017 A 
ENDBRANCH  27  31
ENDBRANCH   1  23
TORSDOF 7
ENDMDL
MODEL 3
REMARK VINA RESULT:      -8.6      2.572      3.970
REMARK  7 active torsions:
REMARK  status: ('A' for Active; 'I' for Inactive)
REMARK    1  A    between atoms: C_5  and  C_6 
REMARK       I    between atoms: C_6  and  N_7 
REMARK    2  A    between atoms: N_10  and  C_11 
REMARK    3  A    between atoms: C_14  and  N_15 
REMARK    4  A    between atoms: N_15  and  C_16 
REMARK    5  A    between atoms: C_16  and  N_17 
REMARK       I    between atoms: N_17  and  C_18 
REMARK    6  A    between atoms: C_18  and  C_19 
REMARK    7  A    between atoms: C_22  and  O_23 
ROOT
HETATM    1  C   UNL     1      41.328 -13.210   5.764  1.00  0.00     0.030 A 
HETATM    2  C   UNL     1      40.034 -13.050   6.287  1.00  0.00     0.031 A 
HETATM    3  C   UNL     1      39.397 -11.799   6.342  1.00  0.00     0.032 A 
HETATM    4  C   UNL     1      40.027 -10.657   5.855  1.00  0.00     0.034 A 
HETATM    5  C   UNL     1      41.306 -10.785   5.322  1.00  0.00     0.032 A 
HETATM    6  C   UNL     1      41.941 -12.036   5.294  1.00  0.00     0.031 A 
ENDROOT
BRANCH   4   7
HETATM    7  N   UNL     1      39.374  -9.413   6.027  1.00  0.00    -0.333 N 
HETATM    8  H   UNL     1      38.472  -9.358   5.561  1.00  0.00     0.168 HD
BRANCH   7   9
HETATM    9  C   UNL     1      39.526  -8.544   7.062  1.00  0.00     0.179 C 
HETATM   10  S   UNL     1      40.685  -7.345   6.982  1.00  0.00    -0.040 SA
BRANCH   9  11
HETATM   11  N   UNL     1      38.775  -8.682   8.203  1.00  0.00    -0.299 N 
HETATM   12  C   UNL     1      38.965  -9.437   9.355  1.00  0.00     0.257 C 
HETATM   13  O   UNL     1      38.007  -9.905   9.964  1.00  0.00    -0.267 OA
HETATM   14  H   UNL     1      37.858  -8.256   8.153  1.00  0.00     0.171 HD
BRANCH  12  15
HETATM   15  C   UNL     1      40.349  -9.635   9.863  1.00  0.00     0.032 A 
HETATM   16  C   UNL     1      41.161 -10.662   9.370  1.00  0.00     0.020 A 
HETATM   17  C   UNL     1      42.467 -10.807   9.846  1.00  0.00     0.038 A 
HETATM   18  C   UNL     1      42.981  -9.922  10.796  1.00  0.00     0.068 A 
HETATM   19  C   UNL     1      42.178  -8.882  11.269  1.00  0.00     0.038 A 
HETATM   20  C   UNL     1      40.867  -8.734  10.798  1.00  0.00     0.020 A 
BRANCH  18  21
HETATM   21  O   UNL     1      44.270 -10.182  11.173  1.00  0.00    -0.356 OA
HETATM   22  C   UNL     1      44.971 -11.171  10.431  1.00  0.00     0.210 C 
ENDBRANCH  18  21
ENDBRANCH  12  15
ENDBRANCH   9  11
ENDBRANCH   7   9
ENDBRANCH   4   7
BRANCH   1  23
HETATM   23  N   UNL     1      42.020 -14.429   5.782  1.00  0.00    -0.378 N 
HETATM   24  C   UNL     1      43.480 -14.369   6.049  1.00  0.00     0.143 C 
HETATM   25  C   UNL     1      44.011 -15.744   6.485  1.00  0.00     0.146 C 
HETATM   26  N   UNL     1      43.678 -16.800   5.531  1.00  0.00    -0.345 N 
HETATM   27  C   UNL     1      44.442 -17.967   5.617  1.00  0.00     0.253 C 
HETATM   28  C   UNL     1      42.249 -16.854   5.195  1.00  0.00     0.146 C 
HETATM   29  O   UNL     1      45.294 -18.150   6.485  1.00  0.00    -0.267 OA
HETATM   30  C   UNL     1      41.664 -15.480   4.801  1.00  0.00     0.143 C 
BRANCH  27  31
HETATM   31  C   UNL     1      44.281 -19.010   4.574  1.00  0.00     0.032 A 
HETATM   32  C   UNL     1      43.804 -18.679   3.301  1.00  0.00     0.017 A 
HETATM   33  C   UNL     1      43.757 -19.653   2.300  1.00  0.00     0.007 A 
HETATM   34  C   UNL     1      44.188 -20.961   2.560  1.00  0.00    -0.062 A 
HETATM   35  C   UNL     1      44.209 -21.986   1.464  1.00  0.00     0.048 C 
HETATM   36  C   UNL     1      44.686 -21.277   3.831  1.00  0.00     0.007 A 
HETATM   37  C   UNL     1      44.735 -20.306   4.834  1.00  0.00     0.017 A 
ENDBRANCH  27  31
ENDBRANCH   1  23
TORSDOF 7
ENDMDL
MODEL 4
REMARK VINA RESULT:      -8.4      5.284      8.244
REMARK  7 active torsions:
REMARK  status: ('A' for Active; 'I' for Inactive)
REMARK    1  A    between atoms: C_5  and  C_6 
REMARK       I    between atoms: C_6  and  N_7 
REMARK    2  A    between atoms: N_10  and  C_11 
REMARK    3  A    between atoms: C_14  and  N_15 
REMARK    4  A    between atoms: N_15  and  C_16 
REMARK    5  A    between atoms: C_16  and  N_17 
REMARK       I    between atoms: N_17  and  C_18 
REMARK    6  A    between atoms: C_18  and  C_19 
REMARK    7  A    between atoms: C_22  and  O_23 
ROOT
HETATM    1  C   UNL     1      40.428 -13.382   4.188  1.00  0.00     0.030 A 
HETATM    2  C   UNL     1      39.424 -12.880   5.033  1.00  0.00     0.031 A 
HETATM    3  C   UNL     1      38.674 -11.737   4.710  1.00  0.00     0.032 A 
HETATM    4  C   UNL     1      38.889 -11.059   3.513  1.00  0.00     0.034 A 
HETATM    5  C   UNL     1      39.870 -11.538   2.650  1.00  0.00     0.032 A 
HETATM    6  C   UNL     1      40.628 -12.667   2.995  1.00  0.00     0.031 A 
ENDROOT
BRANCH   4   7
HETATM    7  N   UNL     1      38.170  -9.860   3.290  1.00  0.00    -0.333 N 
HETATM    8  H   UNL     1      38.567  -9.053   3.764  1.00  0.00     0.168 HD
BRANCH   7   9
HETATM    9  C   UNL     1      37.398  -9.557   2.212  1.00  0.00     0.179 C 
HETATM   10  S   UNL     1      37.768  -8.233   1.266  1.00  0.00    -0.040 SA
BRANCH   9  11
HETATM   11  N   UNL     1      36.276 -10.295   1.930  1.00  0.00    -0.299 N 
HETATM   12  C   UNL     1      35.975 -11.171   0.893  1.00  0.00     0.257 C 
HETATM   13  O   UNL     1      34.829 -11.268   0.464  1.00  0.00    -0.267 OA
HETATM   14  H   UNL     1      35.475 -10.075   2.509  1.00  0.00     0.171 HD
BRANCH  12  15
HETATM   15  C   UNL     1      37.061 -12.022   0.336  1.00  0.00     0.032 A 
HETATM   16  C   UNL     1      37.902 -11.552  -0.677  1.00  0.00     0.020 A 
HETATM   17  C   UNL     1      38.932 -12.364  -1.161  1.00  0.00     0.038 A 
HETATM   18  C   UNL     1      39.145 -13.637  -0.628  1.00  0.00     0.068 A 
HETATM   19  C   UNL     1      38.320 -14.096   0.401  1.00  0.00     0.038 A 
HETATM   20  C   UNL     1      37.285 -13.288   0.888  1.00  0.00     0.020 A 
BRANCH  18  21
HETATM   21  O   UNL     1      40.184 -14.322  -1.196  1.00  0.00    -0.356 OA
HETATM   22  C   UNL     1      41.071 -14.995  -0.313  1.00  0.00     0.210 C 
ENDBRANCH  18  21
ENDBRANCH  12  15
ENDBRANCH   9  11
ENDBRANCH   7   9
ENDBRANCH   4   7
BRANCH   1  23
HETATM   23  N   UNL     1      41.251 -14.464   4.529  1.00  0.00    -0.378 N 
HETATM   24  C   UNL     1      42.598 -14.142   5.065  1.00  0.00     0.143 C 
HETATM   25  C   UNL     1      43.194 -15.351   5.804  1.00  0.00     0.146 C 
HETATM   26  N   UNL     1      43.215 -16.557   4.976  1.00  0.00    -0.345 N 
HETATM   27  C   UNL     1      44.086 -17.568   5.389  1.00  0.00     0.253 C 
HETATM   28  C   UNL     1      41.912 -16.876   4.378  1.00  0.00     0.146 C 
HETATM   29  O   UNL     1      44.745 -17.506   6.425  1.00  0.00    -0.267 OA
HETATM   30  C   UNL     1      41.255 -15.671   3.670  1.00  0.00     0.143 C 
BRANCH  27  31
HETATM   31  C   UNL     1      44.291 -18.744   4.507  1.00  0.00     0.032 A 
HETATM   32  C   UNL     1      44.666 -19.981   5.040  1.00  0.00     0.017 A 
HETATM   33  C   UNL     1      44.753 -21.101   4.208  1.00  0.00     0.007 A 
HETATM   34  C   UNL     1      44.463 -20.994   2.841  1.00  0.00    -0.062 A 
HETATM   35  C   UNL     1      44.483 -22.213   1.965  1.00  0.00     0.048 C 
HETATM   36  C   UNL     1      44.066 -19.756   2.320  1.00  0.00     0.007 A 
HETATM   37  C   UNL     1      43.978 -18.635   3.148  1.00  0.00     0.017 A 
ENDBRANCH  27  31
ENDBRANCH   1  23
TORSDOF 7
ENDMDL
MODEL 5
REMARK VINA RESULT:      -8.3      4.620      6.799
REMARK  7 active torsions:
REMARK  status: ('A' for Active; 'I' for Inactive)
REMARK    1  A    between atoms: C_5  and  C_6 
REMARK       I    between atoms: C_6  and  N_7 
REMARK    2  A    between atoms: N_10  and  C_11 
REMARK    3  A    between atoms: C_14  and  N_15 
REMARK    4  A    between atoms: N_15  and  C_16 
REMARK    5  A    between atoms: C_16  and  N_17 
REMARK       I    between atoms: N_17  and  C_18 
REMARK    6  A    between atoms: C_18  and  C_19 
REMARK    7  A    between atoms: C_22  and  O_23 
ROOT
HETATM    1  C   UNL     1      41.126 -13.414   5.563  1.00  0.00     0.030 A 
HETATM    2  C   UNL     1      39.776 -13.327   5.938  1.00  0.00     0.031 A 
HETATM    3  C   UNL     1      39.076 -12.108   5.944  1.00  0.00     0.032 A 
HETATM    4  C   UNL     1      39.702 -10.926   5.554  1.00  0.00     0.034 A 
HETATM    5  C   UNL     1      41.037 -10.982   5.168  1.00  0.00     0.032 A 
HETATM    6  C   UNL     1      41.731 -12.202   5.188  1.00  0.00     0.031 A 
ENDROOT
BRANCH   4   7
HETATM    7  N   UNL     1      38.974  -9.718   5.675  1.00  0.00    -0.333 N 
HETATM    8  H   UNL     1      39.263  -9.145   6.463  1.00  0.00     0.168 HD
BRANCH   7   9
HETATM    9  C   UNL     1      38.355  -9.032   4.678  1.00  0.00     0.179 C 
HETATM   10  S   UNL     1      38.716  -7.422   4.424  1.00  0.00    -0.040 SA
BRANCH   9  11
HETATM   11  N   UNL     1      37.387  -9.635   3.914  1.00  0.00    -0.299 N 
HETATM   12  C   UNL     1      37.428 -10.224   2.655  1.00  0.00     0.257 C 
HETATM   13  O   UNL     1      36.459 -10.168   1.903  1.00  0.00    -0.267 OA
HETATM   14  H   UNL     1      36.446  -9.528   4.272  1.00  0.00     0.171 HD
BRANCH  12  15
HETATM   15  C   UNL     1      38.655 -10.959   2.247  1.00  0.00     0.032 A 
HETATM   16  C   UNL     1      38.720 -12.355   2.314  1.00  0.00     0.020 A 
HETATM   17  C   UNL     1      39.876 -13.020   1.898  1.00  0.00     0.038 A 
HETATM   18  C   UNL     1      40.965 -12.307   1.394  1.00  0.00     0.068 A 
HETATM   19  C   UNL     1      40.891 -10.915   1.304  1.00  0.00     0.038 A 
HETATM   20  C   UNL     1      39.736 -10.243   1.723  1.00  0.00     0.020 A 
BRANCH  18  21
HETATM   21  O   UNL     1      42.029 -13.084   1.026  1.00  0.00    -0.356 OA
HETATM   22  C   UNL     1      41.948 -14.471   1.324  1.00  0.00     0.210 C 
ENDBRANCH  18  21
ENDBRANCH  12  15
ENDBRANCH   9  11
ENDBRANCH   7   9
ENDBRANCH   4   7
BRANCH   1  23
HETATM   23  N   UNL     1      41.870 -14.600   5.636  1.00  0.00    -0.378 N 
HETATM   24  C   UNL     1      43.321 -14.467   5.924  1.00  0.00     0.143 C 
HETATM   25  C   UNL     1      43.904 -15.800   6.418  1.00  0.00     0.146 C 
HETATM   26  N   UNL     1      43.633 -16.904   5.497  1.00  0.00    -0.345 N 
HETATM   27  C   UNL     1      44.446 -18.033   5.638  1.00  0.00     0.253 C 
HETATM   28  C   UNL     1      42.214 -17.032   5.141  1.00  0.00     0.146 C 
HETATM   29  O   UNL     1      45.289 -18.147   6.526  1.00  0.00    -0.267 OA
HETATM   30  C   UNL     1      41.577 -15.700   4.688  1.00  0.00     0.143 C 
BRANCH  27  31
HETATM   31  C   UNL     1      44.348 -19.117   4.630  1.00  0.00     0.032 A 
HETATM   32  C   UNL     1      44.012 -18.832   3.303  1.00  0.00     0.017 A 
HETATM   33  C   UNL     1      44.026 -19.850   2.346  1.00  0.00     0.007 A 
HETATM   34  C   UNL     1      44.379 -21.158   2.706  1.00  0.00    -0.062 A 
HETATM   35  C   UNL     1      44.468 -22.233   1.662  1.00  0.00     0.048 C 
HETATM   36  C   UNL     1      44.737 -21.430   4.033  1.00  0.00     0.007 A 
HETATM   37  C   UNL     1      44.724 -20.415   4.992  1.00  0.00     0.017 A 
ENDBRANCH  27  31
ENDBRANCH   1  23
TORSDOF 7
ENDMDL
MODEL 6
REMARK VINA RESULT:      -8.0      3.437      9.534
REMARK  7 active torsions:
REMARK  status: ('A' for Active; 'I' for Inactive)
REMARK    1  A    between atoms: C_5  and  C_6 
REMARK       I    between atoms: C_6  and  N_7 
REMARK    2  A    between atoms: N_10  and  C_11 
REMARK    3  A    between atoms: C_14  and  N_15 
REMARK    4  A    between atoms: N_15  and  C_16 
REMARK    5  A    between atoms: C_16  and  N_17 
REMARK       I    between atoms: N_17  and  C_18 
REMARK    6  A    between atoms: C_18  and  C_19 
REMARK    7  A    between atoms: C_22  and  O_23 
ROOT
HETATM    1  C   UNL     1      39.429 -12.573   4.694  1.00  0.00     0.030 A 
HETATM    2  C   UNL     1      39.127 -12.122   3.399  1.00  0.00     0.031 A 
HETATM    3  C   UNL     1      39.197 -12.964   2.276  1.00  0.00     0.032 A 
HETATM    4  C   UNL     1      39.556 -14.303   2.412  1.00  0.00     0.034 A 
HETATM    5  C   UNL     1      39.852 -14.781   3.684  1.00  0.00     0.032 A 
HETATM    6  C   UNL     1      39.801 -13.924   4.794  1.00  0.00     0.031 A 
ENDROOT
BRANCH   4   7
HETATM    7  N   UNL     1      39.703 -15.074   1.233  1.00  0.00    -0.333 N 
HETATM    8  H   UNL     1      38.843 -15.172   0.701  1.00  0.00     0.168 HD
BRANCH   7   9
HETATM    9  C   UNL     1      40.838 -15.250   0.506  1.00  0.00     0.179 C 
HETATM   10  S   UNL     1      41.284 -14.114  -0.633  1.00  0.00    -0.040 SA
BRANCH   9  11
HETATM   11  N   UNL     1      41.592 -16.387   0.656  1.00  0.00    -0.299 N 
HETATM   12  C   UNL     1      42.788 -16.629   1.323  1.00  0.00     0.257 C 
HETATM   13  O   UNL     1      43.590 -17.454   0.895  1.00  0.00    -0.267 OA
HETATM   14  H   UNL     1      41.294 -17.164   0.080  1.00  0.00     0.171 HD
BRANCH  12  15
HETATM   15  C   UNL     1      43.063 -15.899   2.590  1.00  0.00     0.032 A 
HETATM   16  C   UNL     1      43.297 -14.520   2.595  1.00  0.00     0.020 A 
HETATM   17  C   UNL     1      43.526 -13.856   3.803  1.00  0.00     0.038 A 
HETATM   18  C   UNL     1      43.502 -14.552   5.013  1.00  0.00     0.068 A 
HETATM   19  C   UNL     1      43.242 -15.924   5.010  1.00  0.00     0.038 A 
HETATM   20  C   UNL     1      43.016 -16.595   3.801  1.00  0.00     0.020 A 
BRANCH  18  21
HETATM   21  O   UNL     1      43.742 -13.779   6.116  1.00  0.00    -0.356 OA
HETATM   22  C   UNL     1      44.489 -14.374   7.169  1.00  0.00     0.210 C 
ENDBRANCH  18  21
ENDBRANCH  12  15
ENDBRANCH   9  11
ENDBRANCH   7   9
ENDBRANCH   4   7
BRANCH   1  23
HETATM   23  N   UNL     1      39.455 -11.731   5.815  1.00  0.00    -0.378 N 
HETATM   24  C   UNL     1      39.836 -10.315   5.584  1.00  0.00     0.143 C 
HETATM   25  C   UNL     1      39.393  -9.431   6.761  1.00  0.00     0.146 C 
HETATM   26  N   UNL     1      39.889  -9.923   8.046  1.00  0.00    -0.345 N 
HETATM   27  C   UNL     1      39.894  -8.999   9.094  1.00  0.00     0.253 C 
HETATM   28  C   UNL     1      39.582 -11.339   8.286  1.00  0.00     0.146 C 
HETATM   29  O   UNL     1      39.441  -7.861   8.989  1.00  0.00    -0.267 OA
HETATM   30  C   UNL     1      39.966 -12.254   7.103  1.00  0.00     0.143 C 
BRANCH  27  31
HETATM   31  C   UNL     1      40.544  -9.371  10.376  1.00  0.00     0.032 A 
HETATM   32  C   UNL     1      41.937  -9.427  10.481  1.00  0.00     0.017 A 
HETATM   33  C   UNL     1      42.533  -9.678  11.720  1.00  0.00     0.007 A 
HETATM   34  C   UNL     1      41.743  -9.869  12.862  1.00  0.00    -0.062 A 
HETATM   35  C   UNL     1      42.386 -10.062  14.205  1.00  0.00     0.048 C 
HETATM   36  C   UNL     1      40.349  -9.788  12.752  1.00  0.00     0.007 A 
HETATM   37  C   UNL     1      39.750  -9.538  11.515  1.00  0.00     0.017 A 
ENDBRANCH  27  31
ENDBRANCH   1  23
TORSDOF 7
ENDMDL
MODEL 7
REMARK VINA RESULT:      -7.9      5.726      9.329
REMARK  7 active torsions:
REMARK  status: ('A' for Active; 'I' for Inactive)
REMARK    1  A    between atoms: C_5  and  C_6 
REMARK       I    between atoms: C_6  and  N_7 
REMARK    2  A    between atoms: N_10  and  C_11 
REMARK    3  A    between atoms: C_14  and  N_15 
REMARK    4  A    between atoms: N_15  and  C_16 
REMARK    5  A    between atoms: C_16  and  N_17 
REMARK       I    between atoms: N_17  and  C_18 
REMARK    6  A    between atoms: C_18  and  C_19 
REMARK    7  A    between atoms: C_22  and  O_23 
ROOT
HETATM    1  C   UNL     1      41.080 -13.975   3.312  1.00  0.00     0.030 A 
HETATM    2  C   UNL     1      39.916 -14.138   2.544  1.00  0.00     0.031 A 
HETATM    3  C   UNL     1      39.395 -13.107   1.743  1.00  0.00     0.032 A 
HETATM    4  C   UNL     1      40.037 -11.873   1.666  1.00  0.00     0.034 A 
HETATM    5  C   UNL     1      41.198 -11.685   2.409  1.00  0.00     0.032 A 
HETATM    6  C   UNL     1      41.694 -12.715   3.223  1.00  0.00     0.031 A 
ENDROOT
BRANCH   4   7
HETATM    7  N   UNL     1      39.411 -10.845   0.920  1.00  0.00    -0.333 N 
HETATM    8  H   UNL     1      39.052 -10.086   1.494  1.00  0.00     0.168 HD
BRANCH   7   9
HETATM    9  C   UNL     1      39.659 -10.505  -0.373  1.00  0.00     0.179 C 
HETATM   10  S   UNL     1      38.391 -10.277  -1.434  1.00  0.00    -0.040 SA
BRANCH   9  11
HETATM   11  N   UNL     1      40.949 -10.407  -0.832  1.00  0.00    -0.299 N 
HETATM   12  C   UNL     1      41.896 -11.371  -1.159  1.00  0.00     0.257 C 
HETATM   13  O   UNL     1      43.092 -11.166  -0.975  1.00  0.00    -0.267 OA
HETATM   14  H   UNL     1      41.328  -9.468  -0.814  1.00  0.00     0.171 HD
BRANCH  12  15
HETATM   15  C   UNL     1      41.437 -12.644  -1.777  1.00  0.00     0.032 A 
HETATM   16  C   UNL     1      40.971 -12.684  -3.095  1.00  0.00     0.020 A 
HETATM   17  C   UNL     1      40.573 -13.899  -3.658  1.00  0.00     0.038 A 
HETATM   18  C   UNL     1      40.656 -15.084  -2.924  1.00  0.00     0.068 A 
HETATM   19  C   UNL     1      41.146 -15.048  -1.617  1.00  0.00     0.038 A 
HETATM   20  C   UNL     1      41.542 -13.832  -1.047  1.00  0.00     0.020 A 
BRANCH  18  21
HETATM   21  O   UNL     1      40.233 -16.197  -3.597  1.00  0.00    -0.356 OA
HETATM   22  C   UNL     1      38.957 -16.128  -4.220  1.00  0.00     0.210 C 
ENDBRANCH  18  21
ENDBRANCH  12  15
ENDBRANCH   9  11
ENDBRANCH   7   9
ENDBRANCH   4   7
BRANCH   1  23
HETATM   23  N   UNL     1      41.567 -14.956   4.188  1.00  0.00    -0.378 N 
HETATM   24  C   UNL     1      42.539 -14.512   5.220  1.00  0.00     0.143 C 
HETATM   25  C   UNL     1      42.633 -15.540   6.359  1.00  0.00     0.146 C 
HETATM   26  N   UNL     1      42.936 -16.886   5.872  1.00  0.00    -0.345 N 
HETATM   27  C   UNL     1      43.438 -17.781   6.820  1.00  0.00     0.253 C 
HETATM   28  C   UNL     1      42.032 -17.339   4.807  1.00  0.00     0.146 C 
HETATM   29  O   UNL     1      43.551 -17.504   8.013  1.00  0.00    -0.267 OA
HETATM   30  C   UNL     1      41.869 -16.309   3.668  1.00  0.00     0.143 C 
BRANCH  27  31
HETATM   31  C   UNL     1      43.931 -19.105   6.367  1.00  0.00     0.032 A 
HETATM   32  C   UNL     1      43.541 -20.277   7.024  1.00  0.00     0.017 A 
HETATM   33  C   UNL     1      43.931 -21.521   6.521  1.00  0.00     0.007 A 
HETATM   34  C   UNL     1      44.708 -21.605   5.358  1.00  0.00    -0.062 A 
HETATM   35  C   UNL     1      45.061 -22.943   4.776  1.00  0.00     0.048 C 
HETATM   36  C   UNL     1      45.075 -20.427   4.693  1.00  0.00     0.007 A 
HETATM   37  C   UNL     1      44.687 -19.182   5.193  1.00  0.00     0.017 A 
ENDBRANCH  27  31
ENDBRANCH   1  23
TORSDOF 7
ENDMDL
MODEL 8
REMARK VINA RESULT:      -7.9      3.022      9.734
REMARK  7 active torsions:
REMARK  status: ('A' for Active; 'I' for Inactive)
REMARK    1  A    between atoms: C_5  and  C_6 
REMARK       I    between atoms: C_6  and  N_7 
REMARK    2  A    between atoms: N_10  and  C_11 
REMARK    3  A    between atoms: C_14  and  N_15 
REMARK    4  A    between atoms: N_15  and  C_16 
REMARK    5  A    between atoms: C_16  and  N_17 
REMARK       I    between atoms: N_17  and  C_18 
REMARK    6  A    between atoms: C_18  and  C_19 
REMARK    7  A    between atoms: C_22  and  O_23 
ROOT
HETATM    1  C   UNL     1      41.280 -12.175   5.802  1.00  0.00     0.030 A 
HETATM    2  C   UNL     1      41.262 -11.483   4.581  1.00  0.00     0.031 A 
HETATM    3  C   UNL     1      40.600 -11.982   3.445  1.00  0.00     0.032 A 
HETATM    4  C   UNL     1      39.912 -13.191   3.497  1.00  0.00     0.034 A 
HETATM    5  C   UNL     1      39.903 -13.895   4.696  1.00  0.00     0.032 A 
HETATM    6  C   UNL     1      40.587 -13.398   5.816  1.00  0.00     0.031 A 
ENDROOT
BRANCH   4   7
HETATM    7  N   UNL     1      39.349 -13.686   2.296  1.00  0.00    -0.333 N 
HETATM    8  H   UNL     1      38.548 -13.152   1.971  1.00  0.00     0.168 HD
BRANCH   7   9
HETATM    9  C   UNL     1      39.984 -14.396   1.326  1.00  0.00     0.179 C 
HETATM   10  S   UNL     1      40.841 -13.599   0.135  1.00  0.00    -0.040 SA
BRANCH   9  11
HETATM   11  N   UNL     1      39.876 -15.763   1.279  1.00  0.00    -0.299 N 
HETATM   12  C   UNL     1      40.706 -16.778   1.740  1.00  0.00     0.257 C 
HETATM   13  O   UNL     1      40.788 -17.846   1.138  1.00  0.00    -0.267 OA
HETATM   14  H   UNL     1      39.118 -16.102   0.699  1.00  0.00     0.171 HD
BRANCH  12  15
HETATM   15  C   UNL     1      41.467 -16.566   3.000  1.00  0.00     0.032 A 
HETATM   16  C   UNL     1      41.128 -17.246   4.174  1.00  0.00     0.020 A 
HETATM   17  C   UNL     1      41.879 -17.046   5.336  1.00  0.00     0.038 A 
HETATM   18  C   UNL     1      42.980 -16.189   5.334  1.00  0.00     0.068 A 
HETATM   19  C   UNL     1      43.334 -15.529   4.155  1.00  0.00     0.038 A 
HETATM   20  C   UNL     1      42.583 -15.723   2.988  1.00  0.00     0.020 A 
BRANCH  18  21
HETATM   21  O   UNL     1      43.621 -16.087   6.538  1.00  0.00    -0.356 OA
HETATM   22  C   UNL     1      44.592 -17.081   6.838  1.00  0.00     0.210 C 
ENDBRANCH  18  21
ENDBRANCH  12  15
ENDBRANCH   9  11
ENDBRANCH   7   9
ENDBRANCH   4   7
BRANCH   1  23
HETATM   23  N   UNL     1      42.008 -11.745   6.920  1.00  0.00    -0.378 N 
HETATM   24  C   UNL     1      43.112 -12.623   7.382  1.00  0.00     0.143 C 
HETATM   25  C   UNL     1      44.085 -11.847   8.285  1.00  0.00     0.146 C 
HETATM   26  N   UNL     1      43.408 -11.194   9.405  1.00  0.00    -0.345 N 
HETATM   27  C   UNL     1      44.220 -10.824  10.480  1.00  0.00     0.253 C 
HETATM   28  C   UNL     1      42.270 -10.362   8.993  1.00  0.00     0.146 C 
HETATM   29  O   UNL     1      45.443 -10.955  10.475  1.00  0.00    -0.267 OA
HETATM   30  C   UNL     1      41.296 -11.090   8.042  1.00  0.00     0.143 C 
BRANCH  27  31
HETATM   31  C   UNL     1      43.582 -10.318  11.720  1.00  0.00     0.032 A 
HETATM   32  C   UNL     1      43.356  -8.949  11.901  1.00  0.00     0.017 A 
HETATM   33  C   UNL     1      42.661  -8.500  13.027  1.00  0.00     0.007 A 
HETATM   34  C   UNL     1      42.184  -9.413  13.978  1.00  0.00    -0.062 A 
HETATM   35  C   UNL     1      41.372  -8.936  15.147  1.00  0.00     0.048 C 
HETATM   36  C   UNL     1      42.395 -10.783  13.777  1.00  0.00     0.007 A 
HETATM   37  C   UNL     1      43.089 -11.236  12.653  1.00  0.00     0.017 A 
ENDBRANCH  27  31
ENDBRANCH   1  23
TORSDOF 7
ENDMDL
MODEL 9
REMARK VINA RESULT:      -7.9      5.471      8.327
REMARK  7 active torsions:
REMARK  status: ('A' for Active; 'I' for Inactive)
REMARK    1  A    between atoms: C_5  and  C_6 
REMARK       I    between atoms: C_6  and  N_7 
REMARK    2  A    between atoms: N_10  and  C_11 
REMARK    3  A    between atoms: C_14  and  N_15 
REMARK    4  A    between atoms: N_15  and  C_16 
REMARK    5  A    between atoms: C_16  and  N_17 
REMARK       I    between atoms: N_17  and  C_18 
REMARK    6  A    between atoms: C_18  and  C_19 
REMARK    7  A    between atoms: C_22  and  O_23 
ROOT
HETATM    1  C   UNL     1      41.556 -13.104   2.553  1.00  0.00     0.030 A 
HETATM    2  C   UNL     1      40.692 -12.913   3.644  1.00  0.00     0.031 A 
HETATM    3  C   UNL     1      41.099 -13.132   4.971  1.00  0.00     0.032 A 
HETATM    4  C   UNL     1      42.400 -13.535   5.259  1.00  0.00     0.034 A 
HETATM    5  C   UNL     1      43.282 -13.723   4.200  1.00  0.00     0.032 A 
HETATM    6  C   UNL     1      42.857 -13.523   2.878  1.00  0.00     0.031 A 
ENDROOT
BRANCH   4   7
HETATM    7  N   UNL     1      42.721 -13.833   6.605  1.00  0.00    -0.333 N 
HETATM    8  H   UNL     1      41.908 -13.910   7.210  1.00  0.00     0.168 HD
BRANCH   7   9
HETATM    9  C   UNL     1      43.824 -14.486   7.059  1.00  0.00     0.179 C 
HETATM   10  S   UNL     1      45.332 -13.789   6.899  1.00  0.00    -0.040 SA
BRANCH   9  11
HETATM   11  N   UNL     1      43.716 -15.746   7.594  1.00  0.00    -0.299 N 
HETATM   12  C   UNL     1      42.978 -16.859   7.210  1.00  0.00     0.257 C 
HETATM   13  O   UNL     1      42.535 -17.639   8.048  1.00  0.00    -0.267 OA
HETATM   14  H   UNL     1      44.154 -15.853   8.500  1.00  0.00     0.171 HD
BRANCH  12  15
HETATM   15  C   UNL     1      42.767 -17.114   5.759  1.00  0.00     0.032 A 
HETATM   16  C   UNL     1      41.512 -16.939   5.168  1.00  0.00     0.020 A 
HETATM   17  C   UNL     1      41.350 -17.159   3.798  1.00  0.00     0.038 A 
HETATM   18  C   UNL     1      42.436 -17.532   3.003  1.00  0.00     0.068 A 
HETATM   19  C   UNL     1      43.695 -17.682   3.590  1.00  0.00     0.038 A 
HETATM   20  C   UNL     1      43.861 -17.466   4.964  1.00  0.00     0.020 A 
BRANCH  18  21
HETATM   21  O   UNL     1      42.135 -17.715   1.682  1.00  0.00    -0.356 OA
HETATM   22  C   UNL     1      43.130 -17.346   0.737  1.00  0.00     0.210 C 
ENDBRANCH  18  21
ENDBRANCH  12  15
ENDBRANCH   9  11
ENDBRANCH   7   9
ENDBRANCH   4   7
BRANCH   1  23
HETATM   23  N   UNL     1      41.149 -12.980   1.217  1.00  0.00    -0.378 N 
HETATM   24  C   UNL     1      41.166 -14.215   0.393  1.00  0.00     0.143 C 
HETATM   25  C   UNL     1      40.293 -14.046  -0.861  1.00  0.00     0.146 C 
HETATM   26  N   UNL     1      40.662 -12.867  -1.644  1.00  0.00    -0.345 N 
HETATM   27  C   UNL     1      40.226 -12.852  -2.971  1.00  0.00     0.253 C 
HETATM   28  C   UNL     1      40.713 -11.632  -0.849  1.00  0.00     0.146 C 
HETATM   29  O   UNL     1      39.507 -13.726  -3.453  1.00  0.00    -0.267 OA
HETATM   30  C   UNL     1      41.539 -11.777   0.447  1.00  0.00     0.143 C 
BRANCH  27  31
HETATM   31  C   UNL     1      40.708 -11.776  -3.873  1.00  0.00     0.032 A 
HETATM   32  C   UNL     1      42.073 -11.621  -4.135  1.00  0.00     0.017 A 
HETATM   33  C   UNL     1      42.500 -10.670  -5.066  1.00  0.00     0.007 A 
HETATM   34  C   UNL     1      41.569  -9.872  -5.744  1.00  0.00    -0.062 A 
HETATM   35  C   UNL     1      42.025  -8.906  -6.799  1.00  0.00     0.048 C 
HETATM   36  C   UNL     1      40.203 -10.050  -5.493  1.00  0.00     0.007 A 
HETATM   37  C   UNL     1      39.772 -10.999  -4.563  1.00  0.00     0.017 A 
ENDBRANCH  27  31
ENDBRANCH   1  23
TORSDOF 7
ENDMDL
MODEL 10
REMARK VINA RESULT:      -7.9      5.473      8.620
REMARK  7 active torsions:
REMARK  status: ('A' for Active; 'I' for Inactive)
REMARK    1  A    between atoms: C_5  and  C_6 
REMARK       I    between atoms: C_6  and  N_7 
REMARK    2  A    between atoms: N_10  and  C_11 
REMARK    3  A    between atoms: C_14  and  N_15 
REMARK    4  A    between atoms: N_15  and  C_16 
REMARK    5  A    between atoms: C_16  and  N_17 
REMARK       I    between atoms: N_17  and  C_18 
REMARK    6  A    between atoms: C_18  and  C_19 
REMARK    7  A    between atoms: C_22  and  O_23 
ROOT
HETATM    1  C   UNL     1      41.734 -13.562   3.667  1.00  0.00     0.030 A 
HETATM    2  C   UNL     1      41.264 -14.067   4.890  1.00  0.00     0.031 A 
HETATM    3  C   UNL     1      42.116 -14.676   5.827  1.00  0.00     0.032 A 
HETATM    4  C   UNL     1      43.482 -14.785   5.581  1.00  0.00     0.034 A 
HETATM    5  C   UNL     1      43.979 -14.286   4.382  1.00  0.00     0.032 A 
HETATM    6  C   UNL     1      43.115 -13.701   3.444  1.00  0.00     0.031 A 
ENDROOT
BRANCH   4   7
HETATM    7  N   UNL     1      44.271 -15.494   6.519  1.00  0.00    -0.333 N 
HETATM    8  H   UNL     1      44.636 -14.912   7.268  1.00  0.00     0.168 HD
BRANCH   7   9
HETATM    9  C   UNL     1      44.190 -16.817   6.823  1.00  0.00     0.179 C 
HETATM   10  S   UNL     1      43.315 -17.316   8.154  1.00  0.00    -0.040 SA
BRANCH   9  11
HETATM   11  N   UNL     1      44.876 -17.745   6.079  1.00  0.00    -0.299 N 
HETATM   12  C   UNL     1      44.493 -18.547   5.010  1.00  0.00     0.257 C 
HETATM   13  O   UNL     1      44.971 -19.668   4.861  1.00  0.00    -0.267 OA
HETATM   14  H   UNL     1      45.788 -17.983   6.447  1.00  0.00     0.171 HD
BRANCH  12  15
HETATM   15  C   UNL     1      43.520 -18.007   4.022  1.00  0.00     0.032 A 
HETATM   16  C   UNL     1      43.929 -17.613   2.744  1.00  0.00     0.020 A 
HETATM   17  C   UNL     1      42.989 -17.136   1.827  1.00  0.00     0.038 A 
HETATM   18  C   UNL     1      41.636 -17.068   2.166  1.00  0.00     0.068 A 
HETATM   19  C   UNL     1      41.224 -17.486   3.433  1.00  0.00     0.038 A 
HETATM   20  C   UNL     1      42.164 -17.962   4.357  1.00  0.00     0.020 A 
BRANCH  18  21
HETATM   21  O   UNL     1      40.828 -16.581   1.175  1.00  0.00    -0.356 OA
HETATM   22  C   UNL     1      41.469 -16.001   0.047  1.00  0.00     0.210 C 
ENDBRANCH  18  21
ENDBRANCH  12  15
ENDBRANCH   9  11
ENDBRANCH   7   9
ENDBRANCH   4   7
BRANCH   1  23
HETATM   23  N   UNL     1      40.892 -13.034   2.678  1.00  0.00    -0.378 N 
HETATM   24  C   UNL     1      39.594 -13.722   2.462  1.00  0.00     0.143 C 
HETATM   25  C   UNL     1      38.611 -12.809   1.713  1.00  0.00     0.146 C 
HETATM   26  N   UNL     1      39.167 -12.297   0.461  1.00  0.00    -0.345 N 
HETATM   27  C   UNL     1      38.242 -11.814  -0.468  1.00  0.00     0.253 C 
HETATM   28  C   UNL     1      40.480 -11.660   0.623  1.00  0.00     0.146 C 
HETATM   29  O   UNL     1      37.036 -11.738  -0.239  1.00  0.00    -0.267 OA
HETATM   30  C   UNL     1      41.483 -12.526   1.418  1.00  0.00     0.143 C 
BRANCH  27  31
HETATM   31  C   UNL     1      38.714 -11.442  -1.825  1.00  0.00     0.032 A 
HETATM   32  C   UNL     1      38.703 -10.108  -2.245  1.00  0.00     0.017 A 
HETATM   33  C   UNL     1      39.248  -9.763  -3.485  1.00  0.00     0.007 A 
HETATM   34  C   UNL     1      39.810 -10.746  -4.312  1.00  0.00    -0.062 A 
HETATM   35  C   UNL     1      40.462 -10.363  -5.608  1.00  0.00     0.048 C 
HETATM   36  C   UNL     1      39.837 -12.076  -3.873  1.00  0.00     0.007 A 
HETATM   37  C   UNL     1      39.294 -12.424  -2.634  1.00  0.00     0.017 A 
ENDBRANCH  27  31
ENDBRANCH   1  23
TORSDOF 7
ENDMDL
