MODEL 1
REMARK VINA RESULT:      -8.6      0.000      0.000
REMARK  6 active torsions:
REMARK  status: ('A' for Active; 'I' for Inactive)
REMARK    1  A    between atoms: C_9  and  C_10 
REMARK    2  A    between atoms: C_10  and  N_11 
REMARK       I    between atoms: N_11  and  C_12 
REMARK    3  A    between atoms: N_11  and  C_22 
REMARK    4  A    between atoms: C_12  and  C_13 
REMARK    5  A    between atoms: C_16  and  O_17 
REMARK    6  A    between atoms: C_22  and  C_23 
ROOT
HETATM    1  N   UNL     1      42.081 -15.746   2.423  1.00  0.00    -0.341 N 
HETATM    2  C   UNL     1      41.653 -17.066   2.609  1.00  0.00     0.254 C 
HETATM    3  O   UNL     1      40.488 -17.432   2.465  1.00  0.00    -0.267 OA
ENDROOT
BRANCH   1   4
HETATM    4  C   UNL     1      41.062 -14.758   2.067  1.00  0.00     0.170 C 
BRANCH   4   5
HETATM    5  C   UNL     1      41.422 -13.978   0.837  1.00  0.00     0.029 A 
HETATM    6  C   UNL     1      41.455 -14.710  -0.465  1.00  0.00     0.253 A 
HETATM    7  N   UNL     1      41.826 -13.993  -1.574  1.00  0.00    -0.322 N 
HETATM    8  O   UNL     1      41.182 -15.905  -0.554  1.00  0.00    -0.268 OA
HETATM    9  C   UNL     1      42.226 -12.653  -1.537  1.00  0.00     0.045 A 
HETATM   10  H   UNL     1      41.839 -14.503  -2.446  1.00  0.00     0.169 HD
HETATM   11  C   UNL     1      42.227 -11.976  -0.314  1.00  0.00    -0.008 A 
HETATM   12  C   UNL     1      42.640 -12.011  -2.702  1.00  0.00     0.031 A 
HETATM   13  C   UNL     1      42.669 -10.651  -0.258  1.00  0.00     0.020 A 
HETATM   14  C   UNL     1      41.788 -12.684   0.885  1.00  0.00     0.028 A 
HETATM   15  C   UNL     1      43.121 -10.004  -1.417  1.00  0.00    -0.061 A 
HETATM   16  C   UNL     1      43.591  -8.580  -1.353  1.00  0.00     0.048 C 
HETATM   17  C   UNL     1      43.082 -10.687  -2.641  1.00  0.00     0.009 A 
ENDBRANCH   4   5
ENDBRANCH   1   4
BRANCH   1  18
HETATM   18  C   UNL     1      43.280 -15.197   3.082  1.00  0.00     0.158 C 
BRANCH  18  19
HETATM   19  C   UNL     1      42.936 -14.200   4.210  1.00  0.00     0.139 C 
HETATM   20  O   UNL     1      44.144 -13.574   4.693  1.00  0.00    -0.384 OA
HETATM   21  C   UNL     1      44.384 -13.997   6.041  1.00  0.00     0.168 C 
HETATM   22  C   UNL     1      43.505 -15.201   6.281  1.00  0.00     0.029 C 
HETATM   23  C   UNL     1      42.309 -14.888   5.416  1.00  0.00     0.035 C 
ENDBRANCH  18  19
ENDBRANCH   1  18
BRANCH   2  24
HETATM   24  C   UNL     1      42.636 -18.092   3.031  1.00  0.00     0.032 A 
HETATM   25  C   UNL     1      42.795 -18.341   4.397  1.00  0.00     0.020 A 
HETATM   26  C   UNL     1      43.733 -19.282   4.824  1.00  0.00     0.038 A 
HETATM   27  C   UNL     1      44.513 -19.981   3.897  1.00  0.00     0.068 A 
HETATM   28  C   UNL     1      44.313 -19.769   2.531  1.00  0.00     0.038 A 
HETATM   29  C   UNL     1      43.365 -18.835   2.097  1.00  0.00     0.020 A 
BRANCH  27  30
HETATM   30  O   UNL     1      45.412 -20.850   4.449  1.00  0.00    -0.356 OA
HETATM   31  C   UNL     1      44.872 -21.969   5.144  1.00  0.00     0.210 C 
ENDBRANCH  27  30
ENDBRANCH   2  24
TORSDOF 6
ENDMDL
MODEL 2
REMARK VINA RESULT:      -8.3      1.826      2.940
REMARK  6 active torsions:
REMARK  status: ('A' for Active; 'I' for Inactive)
REMARK    1  A    between atoms: C_9  and  C_10 
REMARK    2  A    between atoms: C_10  and  N_11 
REMARK       I    between atoms: N_11  and  C_12 
REMARK    3  A    between atoms: N_11  and  C_22 
REMARK    4  A    between atoms: C_12  and  C_13 
REMARK    5  A    between atoms: C_16  and  O_17 
REMARK    6  A    between atoms: C_22  and  C_23 
ROOT
HETATM    1  N   UNL     1      42.345 -15.775   3.154  1.00  0.00    -0.341 N 
HETATM    2  C   UNL     1      41.850 -17.067   3.364  1.00  0.00     0.254 C 
HETATM    3  O   UNL     1      40.666 -17.373   3.231  1.00  0.00    -0.267 OA
ENDROOT
BRANCH   1   4
HETATM    4  C   UNL     1      41.379 -14.741   2.784  1.00  0.00     0.170 C 
BRANCH   4   5
HETATM    5  C   UNL     1      41.404 -14.426   1.317  1.00  0.00     0.029 A 
HETATM    6  C   UNL     1      42.058 -13.153   0.890  1.00  0.00     0.253 A 
HETATM    7  N   UNL     1      42.037 -12.859  -0.450  1.00  0.00    -0.322 N 
HETATM    8  O   UNL     1      42.583 -12.383   1.692  1.00  0.00    -0.268 OA
HETATM    9  C   UNL     1      41.391 -13.648  -1.409  1.00  0.00     0.045 A 
HETATM   10  H   UNL     1      42.487 -11.997  -0.720  1.00  0.00     0.169 HD
HETATM   11  C   UNL     1      40.750 -14.823  -1.005  1.00  0.00    -0.008 A 
HETATM   12  C   UNL     1      41.369 -13.252  -2.744  1.00  0.00     0.031 A 
HETATM   13  C   UNL     1      40.063 -15.593  -1.949  1.00  0.00     0.020 A 
HETATM   14  C   UNL     1      40.794 -15.203   0.404  1.00  0.00     0.028 A 
HETATM   15  C   UNL     1      40.004 -15.188  -3.290  1.00  0.00    -0.061 A 
HETATM   16  C   UNL     1      39.269 -16.020  -4.298  1.00  0.00     0.048 C 
HETATM   17  C   UNL     1      40.680 -14.024  -3.682  1.00  0.00     0.009 A 
ENDBRANCH   4   5
ENDBRANCH   1   4
BRANCH   1  18
HETATM   18  C   UNL     1      43.575 -15.278   3.799  1.00  0.00     0.158 C 
BRANCH  18  19
HETATM   19  C   UNL     1      43.284 -14.318   4.974  1.00  0.00     0.139 C 
HETATM   20  O   UNL     1      44.496 -13.626   5.348  1.00  0.00    -0.384 OA
HETATM   21  C   UNL     1      44.891 -14.051   6.659  1.00  0.00     0.168 C 
HETATM   22  C   UNL     1      44.111 -15.308   6.961  1.00  0.00     0.029 C 
HETATM   23  C   UNL     1      42.820 -15.057   6.222  1.00  0.00     0.035 C 
ENDBRANCH  18  19
ENDBRANCH   1  18
BRANCH   2  24
HETATM   24  C   UNL     1      42.779 -18.136   3.802  1.00  0.00     0.032 A 
HETATM   25  C   UNL     1      43.503 -18.829   2.828  1.00  0.00     0.020 A 
HETATM   26  C   UNL     1      44.364 -19.859   3.209  1.00  0.00     0.038 A 
HETATM   27  C   UNL     1      44.512 -20.201   4.557  1.00  0.00     0.068 A 
HETATM   28  C   UNL     1      43.828 -19.471   5.532  1.00  0.00     0.038 A 
HETATM   29  C   UNL     1      42.972 -18.428   5.155  1.00  0.00     0.020 A 
BRANCH  27  30
HETATM   30  O   UNL     1      45.362 -21.246   4.790  1.00  0.00    -0.356 OA
HETATM   31  C   UNL     1      44.815 -22.554   4.659  1.00  0.00     0.210 C 
ENDBRANCH  27  30
ENDBRANCH   2  24
TORSDOF 6
ENDMDL
MODEL 3
REMARK VINA RESULT:      -8.1      3.146      8.105
REMARK  6 active torsions:
REMARK  status: ('A' for Active; 'I' for Inactive)
REMARK    1  A    between atoms: C_9  and  C_10 
REMARK    2  A    between atoms: C_10  and  N_11 
REMARK       I    between atoms: N_11  and  C_12 
REMARK    3  A    between atoms: N_11  and  C_22 
REMARK    4  A    between atoms: C_12  and  C_13 
REMARK    5  A    between atoms: C_16  and  O_17 
REMARK    6  A    between atoms: C_22  and  C_23 
ROOT
HETATM    1  N   UNL     1      41.746 -14.538   3.372  1.00  0.00    -0.341 N 
HETATM    2  C   UNL     1      41.572 -13.810   2.189  1.00  0.00     0.254 C 
HETATM    3  O   UNL     1      42.503 -13.376   1.511  1.00  0.00    -0.267 OA
ENDROOT
BRANCH   1   4
HETATM    4  C   UNL     1      43.121 -14.756   3.825  1.00  0.00     0.170 C 
BRANCH   4   5
HETATM    5  C   UNL     1      43.416 -16.203   4.092  1.00  0.00     0.029 A 
HETATM    6  C   UNL     1      43.839 -16.583   5.474  1.00  0.00     0.253 A 
HETATM    7  N   UNL     1      44.145 -17.902   5.692  1.00  0.00    -0.322 N 
HETATM    8  O   UNL     1      43.929 -15.760   6.382  1.00  0.00    -0.268 OA
HETATM    9  C   UNL     1      44.141 -18.878   4.689  1.00  0.00     0.045 A 
HETATM   10  H   UNL     1      44.425 -18.141   6.633  1.00  0.00     0.169 HD
HETATM   11  C   UNL     1      43.778 -18.516   3.388  1.00  0.00    -0.008 A 
HETATM   12  C   UNL     1      44.518 -20.187   4.982  1.00  0.00     0.031 A 
HETATM   13  C   UNL     1      43.816 -19.474   2.370  1.00  0.00     0.020 A 
HETATM   14  C   UNL     1      43.392 -17.134   3.121  1.00  0.00     0.028 A 
HETATM   15  C   UNL     1      44.226 -20.787   2.644  1.00  0.00    -0.061 A 
HETATM   16  C   UNL     1      44.261 -21.811   1.548  1.00  0.00     0.048 C 
HETATM   17  C   UNL     1      44.556 -21.139   3.961  1.00  0.00     0.009 A 
ENDBRANCH   4   5
ENDBRANCH   1   4
BRANCH   1  18
HETATM   18  C   UNL     1      40.724 -14.592   4.433  1.00  0.00     0.158 C 
BRANCH  18  19
HETATM   19  C   UNL     1      41.024 -13.624   5.599  1.00  0.00     0.139 C 
HETATM   20  O   UNL     1      39.956 -13.685   6.569  1.00  0.00    -0.384 OA
HETATM   21  C   UNL     1      39.261 -12.432   6.579  1.00  0.00     0.168 C 
HETATM   22  C   UNL     1      39.673 -11.697   5.326  1.00  0.00     0.029 C 
HETATM   23  C   UNL     1      41.092 -12.172   5.140  1.00  0.00     0.035 C 
ENDBRANCH  18  19
ENDBRANCH   1  18
BRANCH   2  24
HETATM   24  C   UNL     1      40.198 -13.509   1.721  1.00  0.00     0.032 A 
HETATM   25  C   UNL     1      39.816 -12.171   1.594  1.00  0.00     0.020 A 
HETATM   26  C   UNL     1      38.520 -11.858   1.182  1.00  0.00     0.038 A 
HETATM   27  C   UNL     1      37.601 -12.871   0.893  1.00  0.00     0.068 A 
HETATM   28  C   UNL     1      38.002 -14.207   0.970  1.00  0.00     0.038 A 
HETATM   29  C   UNL     1      39.305 -14.526   1.371  1.00  0.00     0.020 A 
BRANCH  27  30
HETATM   30  O   UNL     1      36.359 -12.428   0.530  1.00  0.00    -0.356 OA
HETATM   31  C   UNL     1      36.049 -11.075   0.845  1.00  0.00     0.210 C 
ENDBRANCH  27  30
ENDBRANCH   2  24
TORSDOF 6
ENDMDL
MODEL 4
REMARK VINA RESULT:      -8.1      2.604      8.042
REMARK  6 active torsions:
REMARK  status: ('A' for Active; 'I' for Inactive)
REMARK    1  A    between atoms: C_9  and  C_10 
REMARK    2  A    between atoms: C_10  and  N_11 
REMARK       I    between atoms: N_11  and  C_12 
REMARK    3  A    between atoms: N_11  and  C_22 
REMARK    4  A    between atoms: C_12  and  C_13 
REMARK    5  A    between atoms: C_16  and  O_17 
REMARK    6  A    between atoms: C_22  and  C_23 
ROOT
HETATM    1  N   UNL     1      42.300 -15.110   4.100  1.00  0.00    -0.341 N 
HETATM    2  C   UNL     1      42.892 -14.474   3.003  1.00  0.00     0.254 C 
HETATM    3  O   UNL     1      44.101 -14.266   2.906  1.00  0.00    -0.267 OA
ENDROOT
BRANCH   1   4
HETATM    4  C   UNL     1      43.183 -15.515   5.194  1.00  0.00     0.170 C 
BRANCH   4   5
HETATM    5  C   UNL     1      43.512 -16.979   5.157  1.00  0.00     0.029 A 
HETATM    6  C   UNL     1      44.014 -17.611   6.415  1.00  0.00     0.253 A 
HETATM    7  N   UNL     1      44.350 -18.939   6.354  1.00  0.00    -0.322 N 
HETATM    8  O   UNL     1      44.141 -16.979   7.461  1.00  0.00    -0.268 OA
HETATM    9  C   UNL     1      44.305 -19.700   5.180  1.00  0.00     0.045 A 
HETATM   10  H   UNL     1      44.682 -19.350   7.214  1.00  0.00     0.169 HD
HETATM   11  C   UNL     1      43.868 -19.101   3.996  1.00  0.00    -0.008 A 
HETATM   12  C   UNL     1      44.714 -21.032   5.192  1.00  0.00     0.031 A 
HETATM   13  C   UNL     1      43.863 -19.840   2.809  1.00  0.00     0.020 A 
HETATM   14  C   UNL     1      43.449 -17.703   4.025  1.00  0.00     0.028 A 
HETATM   15  C   UNL     1      44.306 -21.171   2.799  1.00  0.00    -0.061 A 
HETATM   16  C   UNL     1      44.296 -21.960   1.524  1.00  0.00     0.048 C 
HETATM   17  C   UNL     1      44.710 -21.766   4.003  1.00  0.00     0.009 A 
ENDBRANCH   4   5
ENDBRANCH   1   4
BRANCH   1  18
HETATM   18  C   UNL     1      40.892 -14.895   4.483  1.00  0.00     0.158 C 
BRANCH  18  19
HETATM   19  C   UNL     1      40.737 -13.874   5.631  1.00  0.00     0.139 C 
HETATM   20  O   UNL     1      39.336 -13.605   5.858  1.00  0.00    -0.384 OA
HETATM   21  C   UNL     1      39.055 -12.247   5.497  1.00  0.00     0.168 C 
HETATM   22  C   UNL     1      40.230 -11.763   4.682  1.00  0.00     0.029 C 
HETATM   23  C   UNL     1      41.373 -12.530   5.299  1.00  0.00     0.035 C 
ENDBRANCH  18  19
ENDBRANCH   1  18
BRANCH   2  24
HETATM   24  C   UNL     1      42.031 -13.988   1.898  1.00  0.00     0.032 A 
HETATM   25  C   UNL     1      41.254 -14.917   1.201  1.00  0.00     0.020 A 
HETATM   26  C   UNL     1      40.456 -14.492   0.139  1.00  0.00     0.038 A 
HETATM   27  C   UNL     1      40.425 -13.144  -0.233  1.00  0.00     0.068 A 
HETATM   28  C   UNL     1      41.161 -12.210   0.500  1.00  0.00     0.038 A 
HETATM   29  C   UNL     1      41.954 -12.630   1.575  1.00  0.00     0.020 A 
BRANCH  27  30
HETATM   30  O   UNL     1      39.626 -12.868  -1.308  1.00  0.00    -0.356 OA
HETATM   31  C   UNL     1      38.618 -13.825  -1.616  1.00  0.00     0.210 C 
ENDBRANCH  27  30
ENDBRANCH   2  24
TORSDOF 6
ENDMDL
MODEL 5
REMARK VINA RESULT:      -8.0      2.278      8.226
REMARK  6 active torsions:
REMARK  status: ('A' for Active; 'I' for Inactive)
REMARK    1  A    between atoms: C_9  and  C_10 
REMARK    2  A    between atoms: C_10  and  N_11 
REMARK       I    between atoms: N_11  and  C_12 
REMARK    3  A    between atoms: N_11  and  C_22 
REMARK    4  A    between atoms: C_12  and  C_13 
REMARK    5  A    between atoms: C_16  and  O_17 
REMARK    6  A    between atoms: C_22  and  C_23 
ROOT
HETATM    1  N   UNL     1      41.162 -14.800   1.922  1.00  0.00    -0.341 N 
HETATM    2  C   UNL     1      41.998 -13.807   1.398  1.00  0.00     0.254 C 
HETATM    3  O   UNL     1      42.829 -13.192   2.066  1.00  0.00    -0.267 OA
ENDROOT
BRANCH   1   4
HETATM    4  C   UNL     1      41.279 -15.085   3.352  1.00  0.00     0.170 C 
BRANCH   4   5
HETATM    5  C   UNL     1      42.113 -16.301   3.631  1.00  0.00     0.029 A 
HETATM    6  C   UNL     1      43.025 -16.262   4.814  1.00  0.00     0.253 A 
HETATM    7  N   UNL     1      43.812 -17.365   5.031  1.00  0.00    -0.322 N 
HETATM    8  O   UNL     1      43.092 -15.287   5.559  1.00  0.00    -0.268 OA
HETATM    9  C   UNL     1      43.846 -18.476   4.181  1.00  0.00     0.045 A 
HETATM   10  H   UNL     1      44.419 -17.322   5.837  1.00  0.00     0.169 HD
HETATM   11  C   UNL     1      43.017 -18.499   3.056  1.00  0.00    -0.008 A 
HETATM   12  C   UNL     1      44.713 -19.534   4.444  1.00  0.00     0.031 A 
HETATM   13  C   UNL     1      43.077 -19.584   2.176  1.00  0.00     0.020 A 
HETATM   14  C   UNL     1      42.123 -17.370   2.814  1.00  0.00     0.028 A 
HETATM   15  C   UNL     1      43.971 -20.639   2.410  1.00  0.00    -0.061 A 
HETATM   16  C   UNL     1      44.028 -21.803   1.464  1.00  0.00     0.048 C 
HETATM   17  C   UNL     1      44.771 -20.615   3.561  1.00  0.00     0.009 A 
ENDBRANCH   4   5
ENDBRANCH   1   4
BRANCH   1  18
HETATM   18  C   UNL     1      39.860 -15.145   1.322  1.00  0.00     0.158 C 
BRANCH  18  19
HETATM   19  C   UNL     1      38.687 -14.362   1.953  1.00  0.00     0.139 C 
HETATM   20  O   UNL     1      37.507 -14.509   1.134  1.00  0.00    -0.384 OA
HETATM   21  C   UNL     1      37.177 -13.240   0.556  1.00  0.00     0.168 C 
HETATM   22  C   UNL     1      38.390 -12.357   0.725  1.00  0.00     0.029 C 
HETATM   23  C   UNL     1      38.965 -12.865   2.024  1.00  0.00     0.035 C 
ENDBRANCH  18  19
ENDBRANCH   1  18
BRANCH   2  24
HETATM   24  C   UNL     1      41.874 -13.438  -0.033  1.00  0.00     0.032 A 
HETATM   25  C   UNL     1      41.979 -12.090  -0.384  1.00  0.00     0.020 A 
HETATM   26  C   UNL     1      41.840 -11.710  -1.720  1.00  0.00     0.038 A 
HETATM   27  C   UNL     1      41.598 -12.668  -2.710  1.00  0.00     0.068 A 
HETATM   28  C   UNL     1      41.547 -14.020  -2.362  1.00  0.00     0.038 A 
HETATM   29  C   UNL     1      41.699 -14.407  -1.025  1.00  0.00     0.020 A 
BRANCH  27  30
HETATM   30  O   UNL     1      41.451 -12.160  -3.971  1.00  0.00    -0.356 OA
HETATM   31  C   UNL     1      42.435 -11.225  -4.399  1.00  0.00     0.210 C 
ENDBRANCH  27  30
ENDBRANCH   2  24
TORSDOF 6
ENDMDL
MODEL 6
REMARK VINA RESULT:      -7.9      3.085      7.958
REMARK  6 active torsions:
REMARK  status: ('A' for Active; 'I' for Inactive)
REMARK    1  A    between atoms: C_9  and  C_10 
REMARK    2  A    between atoms: C_10  and  N_11 
REMARK       I    between atoms: N_11  and  C_12 
REMARK    3  A    between atoms: N_11  and  C_22 
REMARK    4  A    between atoms: C_12  and  C_13 
REMARK    5  A    between atoms: C_16  and  O_17 
REMARK    6  A    between atoms: C_22  and  C_23 
ROOT
HETATM    1  N   UNL     1      41.911 -15.193   2.662  1.00  0.00    -0.341 N 
HETATM    2  C   UNL     1      41.712 -13.965   2.021  1.00  0.00     0.254 C 
HETATM    3  O   UNL     1      42.628 -13.226   1.664  1.00  0.00    -0.267 OA
ENDROOT
BRANCH   1   4
HETATM    4  C   UNL     1      43.294 -15.585   2.941  1.00  0.00     0.170 C 
BRANCH   4   5
HETATM    5  C   UNL     1      43.542 -17.042   2.684  1.00  0.00     0.029 A 
HETATM    6  C   UNL     1      43.172 -17.584   1.342  1.00  0.00     0.253 A 
HETATM    7  N   UNL     1      43.366 -18.927   1.136  1.00  0.00    -0.322 N 
HETATM    8  O   UNL     1      42.698 -16.877   0.456  1.00  0.00    -0.268 OA
HETATM    9  C   UNL     1      43.826 -19.806   2.123  1.00  0.00     0.045 A 
HETATM   10  H   UNL     1      43.114 -19.274   0.222  1.00  0.00     0.169 HD
HETATM   11  C   UNL     1      44.141 -19.306   3.389  1.00  0.00    -0.008 A 
HETATM   12  C   UNL     1      43.946 -21.167   1.849  1.00  0.00     0.031 A 
HETATM   13  C   UNL     1      44.558 -20.183   4.394  1.00  0.00     0.020 A 
HETATM   14  C   UNL     1      44.001 -17.874   3.637  1.00  0.00     0.028 A 
HETATM   15  C   UNL     1      44.649 -21.560   4.143  1.00  0.00    -0.061 A 
HETATM   16  C   UNL     1      45.100 -22.497   5.224  1.00  0.00     0.048 C 
HETATM   17  C   UNL     1      44.360 -22.040   2.857  1.00  0.00     0.009 A 
ENDBRANCH   4   5
ENDBRANCH   1   4
BRANCH   1  18
HETATM   18  C   UNL     1      40.900 -15.806   3.543  1.00  0.00     0.158 C 
BRANCH  18  19
HETATM   19  C   UNL     1      40.895 -15.192   4.961  1.00  0.00     0.139 C 
HETATM   20  O   UNL     1      42.227 -14.754   5.307  1.00  0.00    -0.384 OA
HETATM   21  C   UNL     1      42.723 -15.566   6.378  1.00  0.00     0.168 C 
HETATM   22  C   UNL     1      41.823 -16.776   6.457  1.00  0.00     0.029 C 
HETATM   23  C   UNL     1      40.495 -16.204   6.027  1.00  0.00     0.035 C 
ENDBRANCH  18  19
ENDBRANCH   1  18
BRANCH   2  24
HETATM   24  C   UNL     1      40.328 -13.495   1.773  1.00  0.00     0.032 A 
HETATM   25  C   UNL     1      39.596 -14.090   0.743  1.00  0.00     0.020 A 
HETATM   26  C   UNL     1      38.301 -13.649   0.470  1.00  0.00     0.038 A 
HETATM   27  C   UNL     1      37.728 -12.617   1.219  1.00  0.00     0.068 A 
HETATM   28  C   UNL     1      38.443 -12.060   2.283  1.00  0.00     0.038 A 
HETATM   29  C   UNL     1      39.738 -12.509   2.570  1.00  0.00     0.020 A 
BRANCH  27  30
HETATM   30  O   UNL     1      36.467 -12.260   0.829  1.00  0.00    -0.356 OA
HETATM   31  C   UNL     1      36.258 -10.885   0.530  1.00  0.00     0.210 C 
ENDBRANCH  27  30
ENDBRANCH   2  24
TORSDOF 6
ENDMDL
MODEL 7
REMARK VINA RESULT:      -7.9      2.451      7.657
REMARK  6 active torsions:
REMARK  status: ('A' for Active; 'I' for Inactive)
REMARK    1  A    between atoms: C_9  and  C_10 
REMARK    2  A    between atoms: C_10  and  N_11 
REMARK       I    between atoms: N_11  and  C_12 
REMARK    3  A    between atoms: N_11  and  C_22 
REMARK    4  A    between atoms: C_12  and  C_13 
REMARK    5  A    between atoms: C_16  and  O_17 
REMARK    6  A    between atoms: C_22  and  C_23 
ROOT
HETATM    1  N   UNL     1      41.090 -15.027   2.822  1.00  0.00    -0.341 N 
HETATM    2  C   UNL     1      40.163 -15.334   1.820  1.00  0.00     0.254 C 
HETATM    3  O   UNL     1      39.236 -16.130   1.968  1.00  0.00    -0.267 OA
ENDROOT
BRANCH   1   4
HETATM    4  C   UNL     1      40.948 -15.725   4.100  1.00  0.00     0.170 C 
BRANCH   4   5
HETATM    5  C   UNL     1      41.932 -16.848   4.255  1.00  0.00     0.029 A 
HETATM    6  C   UNL     1      42.873 -16.792   5.414  1.00  0.00     0.253 A 
HETATM    7  N   UNL     1      43.794 -17.803   5.519  1.00  0.00    -0.322 N 
HETATM    8  O   UNL     1      42.848 -15.880   6.237  1.00  0.00    -0.268 OA
HETATM    9  C   UNL     1      43.933 -18.830   4.578  1.00  0.00     0.045 A 
HETATM   10  H   UNL     1      44.419 -17.751   6.311  1.00  0.00     0.169 HD
HETATM   11  C   UNL     1      43.075 -18.864   3.475  1.00  0.00    -0.008 A 
HETATM   12  C   UNL     1      44.931 -19.791   4.730  1.00  0.00     0.031 A 
HETATM   13  C   UNL     1      43.235 -19.859   2.506  1.00  0.00     0.020 A 
HETATM   14  C   UNL     1      42.044 -17.838   3.351  1.00  0.00     0.028 A 
HETATM   15  C   UNL     1      44.258 -20.811   2.628  1.00  0.00    -0.061 A 
HETATM   16  C   UNL     1      44.423 -21.879   1.587  1.00  0.00     0.048 C 
HETATM   17  C   UNL     1      45.088 -20.781   3.758  1.00  0.00     0.009 A 
ENDBRANCH   4   5
ENDBRANCH   1   4
BRANCH   1  18
HETATM   18  C   UNL     1      42.448 -14.534   2.528  1.00  0.00     0.158 C 
BRANCH  18  19
HETATM   19  C   UNL     1      42.677 -13.088   3.023  1.00  0.00     0.139 C 
HETATM   20  O   UNL     1      43.182 -13.111   4.376  1.00  0.00    -0.384 OA
HETATM   21  C   UNL     1      42.197 -12.553   5.253  1.00  0.00     0.168 C 
HETATM   22  C   UNL     1      40.900 -12.515   4.481  1.00  0.00     0.029 C 
HETATM   23  C   UNL     1      41.384 -12.283   3.071  1.00  0.00     0.035 C 
ENDBRANCH  18  19
ENDBRANCH   1  18
BRANCH   2  24
HETATM   24  C   UNL     1      40.301 -14.699   0.487  1.00  0.00     0.032 A 
HETATM   25  C   UNL     1      39.654 -13.483   0.257  1.00  0.00     0.020 A 
HETATM   26  C   UNL     1      39.744 -12.877  -0.996  1.00  0.00     0.038 A 
HETATM   27  C   UNL     1      40.480 -13.475  -2.024  1.00  0.00     0.068 A 
HETATM   28  C   UNL     1      41.171 -14.663  -1.775  1.00  0.00     0.038 A 
HETATM   29  C   UNL     1      41.093 -15.269  -0.515  1.00  0.00     0.020 A 
BRANCH  27  30
HETATM   30  O   UNL     1      40.463 -12.792  -3.209  1.00  0.00    -0.356 OA
HETATM   31  C   UNL     1      41.725 -12.403  -3.738  1.00  0.00     0.210 C 
ENDBRANCH  27  30
ENDBRANCH   2  24
TORSDOF 6
ENDMDL
MODEL 8
REMARK VINA RESULT:      -7.5      5.675      9.548
REMARK  6 active torsions:
REMARK  status: ('A' for Active; 'I' for Inactive)
REMARK    1  A    between atoms: C_9  and  C_10 
REMARK    2  A    between atoms: C_10  and  N_11 
REMARK       I    between atoms: N_11  and  C_12 
REMARK    3  A    between atoms: N_11  and  C_22 
REMARK    4  A    between atoms: C_12  and  C_13 
REMARK    5  A    between atoms: C_16  and  O_17 
REMARK    6  A    between atoms: C_22  and  C_23 
ROOT
HETATM    1  N   UNL     1      41.323 -11.011   7.930  1.00  0.00    -0.341 N 
HETATM    2  C   UNL     1      40.190 -10.640   8.663  1.00  0.00     0.254 C 
HETATM    3  O   UNL     1      39.067 -10.525   8.174  1.00  0.00    -0.267 OA
ENDROOT
BRANCH   1   4
HETATM    4  C   UNL     1      41.144 -11.241   6.496  1.00  0.00     0.170 C 
BRANCH   4   5
HETATM    5  C   UNL     1      41.112 -12.701   6.146  1.00  0.00     0.029 A 
HETATM    6  C   UNL     1      39.776 -13.340   5.953  1.00  0.00     0.253 A 
HETATM    7  N   UNL     1      39.761 -14.683   5.675  1.00  0.00    -0.322 N 
HETATM    8  O   UNL     1      38.725 -12.709   6.050  1.00  0.00    -0.268 OA
HETATM    9  C   UNL     1      40.911 -15.480   5.627  1.00  0.00     0.045 A 
HETATM   10  H   UNL     1      38.850 -15.097   5.543  1.00  0.00     0.169 HD
HETATM   11  C   UNL     1      42.159 -14.889   5.841  1.00  0.00    -0.008 A 
HETATM   12  C   UNL     1      40.806 -16.849   5.391  1.00  0.00     0.031 A 
HETATM   13  C   UNL     1      43.309 -15.684   5.840  1.00  0.00     0.020 A 
HETATM   14  C   UNL     1      42.227 -13.451   6.086  1.00  0.00     0.028 A 
HETATM   15  C   UNL     1      43.215 -17.069   5.639  1.00  0.00    -0.061 A 
HETATM   16  C   UNL     1      44.452 -17.917   5.635  1.00  0.00     0.048 C 
HETATM   17  C   UNL     1      41.958 -17.640   5.393  1.00  0.00     0.009 A 
ENDBRANCH   4   5
ENDBRANCH   1   4
BRANCH   1  18
HETATM   18  C   UNL     1      42.692 -10.644   8.336  1.00  0.00     0.158 C 
BRANCH  18  19
HETATM   19  C   UNL     1      43.351 -11.711   9.238  1.00  0.00     0.139 C 
HETATM   20  O   UNL     1      43.672 -11.132  10.522  1.00  0.00    -0.384 OA
HETATM   21  C   UNL     1      45.097 -11.081  10.669  1.00  0.00     0.168 C 
HETATM   22  C   UNL     1      45.683 -11.296   9.294  1.00  0.00     0.029 C 
HETATM   23  C   UNL     1      44.668 -12.218   8.665  1.00  0.00     0.035 C 
ENDBRANCH  18  19
ENDBRANCH   1  18
BRANCH   2  24
HETATM   24  C   UNL     1      40.332 -10.335  10.108  1.00  0.00     0.032 A 
HETATM   25  C   UNL     1      40.560  -9.010  10.489  1.00  0.00     0.020 A 
HETATM   26  C   UNL     1      40.725  -8.698  11.839  1.00  0.00     0.038 A 
HETATM   27  C   UNL     1      40.660  -9.699  12.814  1.00  0.00     0.068 A 
HETATM   28  C   UNL     1      40.378 -11.013  12.433  1.00  0.00     0.038 A 
HETATM   29  C   UNL     1      40.200 -11.329  11.081  1.00  0.00     0.020 A 
BRANCH  27  30
HETATM   30  O   UNL     1      40.868  -9.263  14.093  1.00  0.00    -0.356 OA
HETATM   31  C   UNL     1      42.024  -9.763  14.756  1.00  0.00     0.210 C 
ENDBRANCH  27  30
ENDBRANCH   2  24
TORSDOF 6
ENDMDL
MODEL 9
REMARK VINA RESULT:      -7.4      2.762      8.565
REMARK  6 active torsions:
REMARK  status: ('A' for Active; 'I' for Inactive)
REMARK    1  A    between atoms: C_9  and  C_10 
REMARK    2  A    between atoms: C_10  and  N_11 
REMARK       I    between atoms: N_11  and  C_12 
REMARK    3  A    between atoms: N_11  and  C_22 
REMARK    4  A    between atoms: C_12  and  C_13 
REMARK    5  A    between atoms: C_16  and  O_17 
REMARK    6  A    between atoms: C_22  and  C_23 
ROOT
HETATM    1  N   UNL     1      39.811 -13.636   0.954  1.00  0.00    -0.341 N 
HETATM    2  C   UNL     1      40.002 -12.322   1.396  1.00  0.00     0.254 C 
HETATM    3  O   UNL     1      39.652 -11.917   2.503  1.00  0.00    -0.267 OA
ENDROOT
BRANCH   1   4
HETATM    4  C   UNL     1      39.127 -14.554   1.865  1.00  0.00     0.170 C 
BRANCH   4   5
HETATM    5  C   UNL     1      40.073 -15.495   2.553  1.00  0.00     0.029 A 
HETATM    6  C   UNL     1      40.475 -15.174   3.955  1.00  0.00     0.253 A 
HETATM    7  N   UNL     1      41.373 -16.020   4.555  1.00  0.00    -0.322 N 
HETATM    8  O   UNL     1      40.044 -14.191   4.554  1.00  0.00    -0.268 OA
HETATM    9  C   UNL     1      41.965 -17.112   3.910  1.00  0.00     0.045 A 
HETATM   10  H   UNL     1      41.630 -15.790   5.505  1.00  0.00     0.169 HD
HETATM   11  C   UNL     1      41.614 -17.393   2.586  1.00  0.00    -0.008 A 
HETATM   12  C   UNL     1      42.909 -17.892   4.574  1.00  0.00     0.031 A 
HETATM   13  C   UNL     1      42.234 -18.453   1.918  1.00  0.00     0.020 A 
HETATM   14  C   UNL     1      40.622 -16.551   1.925  1.00  0.00     0.028 A 
HETATM   15  C   UNL     1      43.211 -19.225   2.563  1.00  0.00    -0.061 A 
HETATM   16  C   UNL     1      43.870 -20.364   1.843  1.00  0.00     0.048 C 
HETATM   17  C   UNL     1      43.527 -18.949   3.901  1.00  0.00     0.009 A 
ENDBRANCH   4   5
ENDBRANCH   1   4
BRANCH   1  18
HETATM   18  C   UNL     1      39.721 -13.992  -0.474  1.00  0.00     0.158 C 
BRANCH  18  19
HETATM   19  C   UNL     1      41.085 -14.400  -1.073  1.00  0.00     0.139 C 
HETATM   20  O   UNL     1      41.412 -13.527  -2.177  1.00  0.00    -0.384 OA
HETATM   21  C   UNL     1      41.396 -14.285  -3.393  1.00  0.00     0.168 C 
HETATM   22  C   UNL     1      40.685 -15.582  -3.087  1.00  0.00     0.029 C 
HETATM   23  C   UNL     1      41.066 -15.811  -1.645  1.00  0.00     0.035 C 
ENDBRANCH  18  19
ENDBRANCH   1  18
BRANCH   2  24
HETATM   24  C   UNL     1      40.634 -11.337   0.485  1.00  0.00     0.032 A 
HETATM   25  C   UNL     1      42.029 -11.262   0.450  1.00  0.00     0.020 A 
HETATM   26  C   UNL     1      42.650 -10.326  -0.378  1.00  0.00     0.038 A 
HETATM   27  C   UNL     1      41.889  -9.465  -1.175  1.00  0.00     0.068 A 
HETATM   28  C   UNL     1      40.497  -9.580  -1.178  1.00  0.00     0.038 A 
HETATM   29  C   UNL     1      39.869 -10.526  -0.358  1.00  0.00     0.020 A 
BRANCH  27  30
HETATM   30  O   UNL     1      42.620  -8.577  -1.915  1.00  0.00    -0.356 OA
HETATM   31  C   UNL     1      42.416  -8.602  -3.323  1.00  0.00     0.210 C 
ENDBRANCH  27  30
ENDBRANCH   2  24
TORSDOF 6
ENDMDL
MODEL 10
REMARK VINA RESULT:      -7.4      2.104      3.703
REMARK  6 active torsions:
REMARK  status: ('A' for Active; 'I' for Inactive)
REMARK    1  A    between atoms: C_9  and  C_10 
REMARK    2  A    between atoms: C_10  and  N_11 
REMARK       I    between atoms: N_11  and  C_12 
REMARK    3  A    between atoms: N_11  and  C_22 
REMARK    4  A    between atoms: C_12  and  C_13 
REMARK    5  A    between atoms: C_16  and  O_17 
REMARK    6  A    between atoms: C_22  and  C_23 
ROOT
HETATM    1  N   UNL     1      41.009 -14.850   2.899  1.00  0.00    -0.341 N 
HETATM    2  C   UNL     1      40.658 -14.763   4.251  1.00  0.00     0.254 C 
HETATM    3  O   UNL     1      39.677 -14.146   4.663  1.00  0.00    -0.267 OA
ENDROOT
BRANCH   1   4
HETATM    4  C   UNL     1      40.164 -14.135   1.942  1.00  0.00     0.170 C 
BRANCH   4   5
HETATM    5  C   UNL     1      40.929 -13.121   1.143  1.00  0.00     0.029 A 
HETATM    6  C   UNL     1      41.452 -11.920   1.862  1.00  0.00     0.253 A 
HETATM    7  N   UNL     1      42.113 -10.982   1.110  1.00  0.00    -0.322 N 
HETATM    8  O   UNL     1      41.292 -11.757   3.069  1.00  0.00    -0.268 OA
HETATM    9  C   UNL     1      42.264 -11.064  -0.279  1.00  0.00     0.045 A 
HETATM   10  H   UNL     1      42.464 -10.180   1.613  1.00  0.00     0.169 HD
HETATM   11  C   UNL     1      41.745 -12.171  -0.957  1.00  0.00    -0.008 A 
HETATM   12  C   UNL     1      42.904 -10.041  -0.977  1.00  0.00     0.031 A 
HETATM   13  C   UNL     1      41.851 -12.239  -2.349  1.00  0.00     0.020 A 
HETATM   14  C   UNL     1      41.081 -13.220  -0.190  1.00  0.00     0.028 A 
HETATM   15  C   UNL     1      42.460 -11.200  -3.067  1.00  0.00    -0.061 A 
HETATM   16  C   UNL     1      42.574 -11.280  -4.561  1.00  0.00     0.048 C 
HETATM   17  C   UNL     1      43.004 -10.113  -2.368  1.00  0.00     0.009 A 
ENDBRANCH   4   5
ENDBRANCH   1   4
BRANCH   1  18
HETATM   18  C   UNL     1      42.391 -15.097   2.448  1.00  0.00     0.158 C 
BRANCH  18  19
HETATM   19  C   UNL     1      42.552 -16.462   1.743  1.00  0.00     0.139 C 
HETATM   20  O   UNL     1      41.685 -17.436   2.364  1.00  0.00    -0.384 OA
HETATM   21  C   UNL     1      42.487 -18.425   3.022  1.00  0.00     0.168 C 
HETATM   22  C   UNL     1      43.881 -17.854   3.124  1.00  0.00     0.029 C 
HETATM   23  C   UNL     1      43.966 -17.015   1.874  1.00  0.00     0.035 C 
ENDBRANCH  18  19
ENDBRANCH   1  18
BRANCH   2  24
HETATM   24  C   UNL     1      41.519 -15.418   5.265  1.00  0.00     0.032 A 
HETATM   25  C   UNL     1      41.079 -16.613   5.840  1.00  0.00     0.020 A 
HETATM   26  C   UNL     1      41.855 -17.238   6.817  1.00  0.00     0.038 A 
HETATM   27  C   UNL     1      43.071 -16.679   7.224  1.00  0.00     0.068 A 
HETATM   28  C   UNL     1      43.534 -15.514   6.608  1.00  0.00     0.038 A 
HETATM   29  C   UNL     1      42.764 -14.890   5.618  1.00  0.00     0.020 A 
BRANCH  27  30
HETATM   30  O   UNL     1      43.717 -17.375   8.208  1.00  0.00    -0.356 OA
HETATM   31  C   UNL     1      44.116 -18.704   7.892  1.00  0.00     0.210 C 
ENDBRANCH  27  30
ENDBRANCH   2  24
TORSDOF 6
ENDMDL
