MODEL 1
REMARK VINA RESULT:      -8.8      0.000      0.000
REMARK  9 active torsions:
REMARK  status: ('A' for Active; 'I' for Inactive)
REMARK    1  A    between atoms: C_2  and  O_3 
REMARK    2  A    between atoms: O_3  and  C_4 
REMARK    3  A    between atoms: C_4  and  C_5 
REMARK    4  A    between atoms: C_8  and  N_9 
REMARK       I    between atoms: N_9  and  C_10 
REMARK    5  A    between atoms: C_10  and  C_11 
REMARK    6  A    between atoms: C_11  and  C_12 
REMARK    7  A    between atoms: N_13  and  C_14 
REMARK    8  A    between atoms: C_14  and  C_15 
REMARK    9  A    between atoms: N_23  and  C_24 
ROOT
HETATM    1  C   UNL     1      42.877 -15.682   4.618  1.00  0.00     0.191 C 
HETATM    2  N   UNL     1      43.274 -16.606   5.660  1.00  0.00    -0.315 N 
HETATM    3  C   UNL     1      43.633 -15.906   6.816  1.00  0.00     0.333 C 
HETATM    4  O   UNL     1      43.634 -16.425   7.923  1.00  0.00    -0.246 OA
HETATM    5  N   UNL     1      43.914 -14.601   6.458  1.00  0.00    -0.232 N 
HETATM    6  C   UNL     1      43.603 -14.434   5.122  1.00  0.00     0.256 C 
HETATM    7  O   UNL     1      43.786 -13.467   4.395  1.00  0.00    -0.270 OA
ENDROOT
BRANCH   1   8
HETATM    8  C   UNL     1      41.368 -15.456   4.624  1.00  0.00     0.138 C 
BRANCH   8   9
HETATM    9  C   UNL     1      40.819 -15.093   3.260  1.00  0.00     0.224 C 
HETATM   10  N   UNL     1      41.784 -15.074   2.266  1.00  0.00    -0.327 N 
HETATM   11  H   UNL     1      42.744 -15.236   2.540  1.00  0.00     0.169 HD
HETATM   12  O   UNL     1      39.618 -14.899   3.118  1.00  0.00    -0.273 OA
BRANCH  10  13
HETATM   13  C   UNL     1      41.565 -14.948   0.876  1.00  0.00     0.034 A 
HETATM   14  C   UNL     1      41.541 -13.728   0.193  1.00  0.00     0.030 A 
HETATM   15  C   UNL     1      41.274 -13.680  -1.183  1.00  0.00     0.020 A 
HETATM   16  C   UNL     1      41.030 -14.856  -1.899  1.00  0.00     0.039 A 
HETATM   17  C   UNL     1      41.060 -16.081  -1.221  1.00  0.00     0.020 A 
HETATM   18  C   UNL     1      41.327 -16.124   0.154  1.00  0.00     0.030 A 
BRANCH  16  19
HETATM   19  C   UNL     1      40.741 -14.863  -3.360  1.00  0.00     0.293 C 
HETATM   20  O   UNL     1      40.980 -13.917  -4.094  1.00  0.00    -0.259 OA
BRANCH  19  21
HETATM   21  O   UNL     1      40.186 -16.042  -3.733  1.00  0.00    -0.318 OA
BRANCH  21  22
HETATM   22  C   UNL     1      38.921 -15.956  -4.406  1.00  0.00     0.174 C 
HETATM   23  C   UNL     1      37.904 -15.243  -3.535  1.00  0.00     0.034 C 
ENDBRANCH  21  22
ENDBRANCH  19  21
ENDBRANCH  16  19
ENDBRANCH  10  13
ENDBRANCH   8   9
ENDBRANCH   1   8
BRANCH   2  24
HETATM   24  C   UNL     1      42.834 -17.990   5.688  1.00  0.00     0.168 C 
BRANCH  24  25
HETATM   25  C   UNL     1      43.521 -18.848   4.663  1.00  0.00    -0.023 A 
HETATM   26  C   UNL     1      44.567 -19.697   5.012  1.00  0.00     0.125 A 
HETATM   27  N   UNL     1      45.220 -20.499   4.139  1.00  0.00    -0.273 NA
HETATM   28  C   UNL     1      44.797 -20.471   2.857  1.00  0.00     0.116 A 
HETATM   29  C   UNL     1      43.761 -19.673   2.406  1.00  0.00     0.020 A 
HETATM   30  C   UNL     1      43.119 -18.849   3.324  1.00  0.00     0.012 A 
ENDBRANCH  24  25
ENDBRANCH   2  24
BRANCH   5  31
HETATM   31  C   UNL     1      44.459 -13.602   7.327  1.00  0.00     0.047 A 
HETATM   32  C   UNL     1      43.642 -12.835   8.176  1.00  0.00     0.031 A 
HETATM   33  C   UNL     1      44.169 -11.858   9.033  1.00  0.00     0.009 A 
HETATM   34  C   UNL     1      45.539 -11.615   9.073  1.00  0.00    -0.062 A 
HETATM   35  C   UNL     1      46.118 -10.589  10.000  1.00  0.00     0.048 C 
HETATM   36  C   UNL     1      46.371 -12.369   8.246  1.00  0.00     0.009 A 
HETATM   37  C   UNL     1      45.837 -13.341   7.385  1.00  0.00     0.031 A 
ENDBRANCH   5  31
TORSDOF 9
ENDMDL
MODEL 2
REMARK VINA RESULT:      -8.5      2.430      9.075
REMARK  9 active torsions:
REMARK  status: ('A' for Active; 'I' for Inactive)
REMARK    1  A    between atoms: C_2  and  O_3 
REMARK    2  A    between atoms: O_3  and  C_4 
REMARK    3  A    between atoms: C_4  and  C_5 
REMARK    4  A    between atoms: C_8  and  N_9 
REMARK       I    between atoms: N_9  and  C_10 
REMARK    5  A    between atoms: C_10  and  C_11 
REMARK    6  A    between atoms: C_11  and  C_12 
REMARK    7  A    between atoms: N_13  and  C_14 
REMARK    8  A    between atoms: C_14  and  C_15 
REMARK    9  A    between atoms: N_23  and  C_24 
ROOT
HETATM    1  C   UNL     1      42.002 -14.531   2.049  1.00  0.00     0.191 C 
HETATM    2  N   UNL     1      41.374 -15.463   1.135  1.00  0.00    -0.315 N 
HETATM    3  C   UNL     1      41.582 -16.777   1.565  1.00  0.00     0.333 C 
HETATM    4  O   UNL     1      40.864 -17.702   1.215  1.00  0.00    -0.246 OA
HETATM    5  N   UNL     1      42.656 -16.779   2.435  1.00  0.00    -0.232 N 
HETATM    6  C   UNL     1      43.037 -15.471   2.667  1.00  0.00     0.256 C 
HETATM    7  O   UNL     1      43.993 -15.039   3.298  1.00  0.00    -0.270 OA
ENDROOT
BRANCH   1   8
HETATM    8  C   UNL     1      41.019 -14.051   3.113  1.00  0.00     0.138 C 
BRANCH   8   9
HETATM    9  C   UNL     1      41.649 -13.112   4.119  1.00  0.00     0.224 C 
HETATM   10  N   UNL     1      41.994 -13.731   5.309  1.00  0.00    -0.327 N 
HETATM   11  H   UNL     1      41.747 -14.705   5.421  1.00  0.00     0.169 HD
HETATM   12  O   UNL     1      41.848 -11.941   3.819  1.00  0.00    -0.273 OA
BRANCH  10  13
HETATM   13  C   UNL     1      42.751 -13.174   6.365  1.00  0.00     0.034 A 
HETATM   14  C   UNL     1      42.381 -12.030   7.077  1.00  0.00     0.030 A 
HETATM   15  C   UNL     1      43.208 -11.512   8.085  1.00  0.00     0.020 A 
HETATM   16  C   UNL     1      44.420 -12.136   8.397  1.00  0.00     0.039 A 
HETATM   17  C   UNL     1      44.791 -13.286   7.692  1.00  0.00     0.020 A 
HETATM   18  C   UNL     1      43.963 -13.800   6.686  1.00  0.00     0.030 A 
BRANCH  16  19
HETATM   19  C   UNL     1      45.335 -11.629   9.457  1.00  0.00     0.293 C 
HETATM   20  O   UNL     1      45.987 -10.603   9.344  1.00  0.00    -0.259 OA
BRANCH  19  21
HETATM   21  O   UNL     1      45.334 -12.460  10.528  1.00  0.00    -0.318 OA
BRANCH  21  22
HETATM   22  C   UNL     1      44.117 -12.501  11.290  1.00  0.00     0.174 C 
HETATM   23  C   UNL     1      43.805 -11.133  11.867  1.00  0.00     0.034 C 
ENDBRANCH  21  22
ENDBRANCH  19  21
ENDBRANCH  16  19
ENDBRANCH  10  13
ENDBRANCH   8   9
ENDBRANCH   1   8
BRANCH   2  24
HETATM   24  C   UNL     1      40.267 -15.087   0.273  1.00  0.00     0.168 C 
BRANCH  24  25
HETATM   25  C   UNL     1      40.712 -14.559  -1.062  1.00  0.00    -0.023 A 
HETATM   26  C   UNL     1      40.914 -15.407  -2.146  1.00  0.00     0.125 A 
HETATM   27  N   UNL     1      41.305 -14.994  -3.373  1.00  0.00    -0.273 NA
HETATM   28  C   UNL     1      41.485 -13.665  -3.538  1.00  0.00     0.116 A 
HETATM   29  C   UNL     1      41.301 -12.734  -2.531  1.00  0.00     0.020 A 
HETATM   30  C   UNL     1      40.912 -13.192  -1.276  1.00  0.00     0.012 A 
ENDBRANCH  24  25
ENDBRANCH   2  24
BRANCH   5  31
HETATM   31  C   UNL     1      43.278 -17.947   2.981  1.00  0.00     0.047 A 
HETATM   32  C   UNL     1      43.321 -18.183   4.366  1.00  0.00     0.031 A 
HETATM   33  C   UNL     1      43.924 -19.327   4.908  1.00  0.00     0.009 A 
HETATM   34  C   UNL     1      44.507 -20.282   4.078  1.00  0.00    -0.062 A 
HETATM   35  C   UNL     1      45.135 -21.520   4.642  1.00  0.00     0.048 C 
HETATM   36  C   UNL     1      44.469 -20.074   2.700  1.00  0.00     0.009 A 
HETATM   37  C   UNL     1      43.869 -18.923   2.164  1.00  0.00     0.031 A 
ENDBRANCH   5  31
TORSDOF 9
ENDMDL
MODEL 3
REMARK VINA RESULT:      -8.4      1.188      1.671
REMARK  9 active torsions:
REMARK  status: ('A' for Active; 'I' for Inactive)
REMARK    1  A    between atoms: C_2  and  O_3 
REMARK    2  A    between atoms: O_3  and  C_4 
REMARK    3  A    between atoms: C_4  and  C_5 
REMARK    4  A    between atoms: C_8  and  N_9 
REMARK       I    between atoms: N_9  and  C_10 
REMARK    5  A    between atoms: C_10  and  C_11 
REMARK    6  A    between atoms: C_11  and  C_12 
REMARK    7  A    between atoms: N_13  and  C_14 
REMARK    8  A    between atoms: C_14  and  C_15 
REMARK    9  A    between atoms: N_23  and  C_24 
ROOT
HETATM    1  C   UNL     1      42.887 -15.719   4.434  1.00  0.00     0.191 C 
HETATM    2  N   UNL     1      43.227 -16.653   5.488  1.00  0.00    -0.315 N 
HETATM    3  C   UNL     1      43.556 -15.962   6.658  1.00  0.00     0.333 C 
HETATM    4  O   UNL     1      43.506 -16.483   7.762  1.00  0.00    -0.246 OA
HETATM    5  N   UNL     1      43.876 -14.663   6.313  1.00  0.00    -0.232 N 
HETATM    6  C   UNL     1      43.618 -14.487   4.967  1.00  0.00     0.256 C 
HETATM    7  O   UNL     1      43.847 -13.522   4.250  1.00  0.00    -0.270 OA
ENDROOT
BRANCH   1   8
HETATM    8  C   UNL     1      41.383 -15.463   4.384  1.00  0.00     0.138 C 
BRANCH   8   9
HETATM    9  C   UNL     1      40.794 -15.668   3.005  1.00  0.00     0.224 C 
HETATM   10  N   UNL     1      40.804 -14.522   2.227  1.00  0.00    -0.327 N 
HETATM   11  H   UNL     1      41.134 -13.667   2.654  1.00  0.00     0.169 HD
HETATM   12  O   UNL     1      40.412 -16.781   2.664  1.00  0.00    -0.273 OA
BRANCH  10  13
HETATM   13  C   UNL     1      40.492 -14.429   0.851  1.00  0.00     0.034 A 
HETATM   14  C   UNL     1      39.279 -13.946   0.353  1.00  0.00     0.030 A 
HETATM   15  C   UNL     1      39.026 -13.926  -1.026  1.00  0.00     0.020 A 
HETATM   16  C   UNL     1      39.989 -14.387  -1.931  1.00  0.00     0.039 A 
HETATM   17  C   UNL     1      41.208 -14.865  -1.437  1.00  0.00     0.020 A 
HETATM   18  C   UNL     1      41.457 -14.884  -0.058  1.00  0.00     0.030 A 
BRANCH  16  19
HETATM   19  C   UNL     1      39.773 -14.388  -3.404  1.00  0.00     0.293 C 
HETATM   20  O   UNL     1      39.898 -15.384  -4.098  1.00  0.00    -0.259 OA
BRANCH  19  21
HETATM   21  O   UNL     1      39.431 -13.150  -3.838  1.00  0.00    -0.318 OA
BRANCH  21  22
HETATM   22  C   UNL     1      40.488 -12.178  -3.860  1.00  0.00     0.174 C 
HETATM   23  C   UNL     1      40.026 -10.906  -4.544  1.00  0.00     0.034 C 
ENDBRANCH  21  22
ENDBRANCH  19  21
ENDBRANCH  16  19
ENDBRANCH  10  13
ENDBRANCH   8   9
ENDBRANCH   1   8
BRANCH   2  24
HETATM   24  C   UNL     1      42.759 -18.028   5.495  1.00  0.00     0.168 C 
BRANCH  24  25
HETATM   25  C   UNL     1      43.509 -18.912   4.539  1.00  0.00    -0.023 A 
HETATM   26  C   UNL     1      44.513 -19.769   4.980  1.00  0.00     0.125 A 
HETATM   27  N   UNL     1      45.219 -20.594   4.173  1.00  0.00    -0.273 NA
HETATM   28  C   UNL     1      44.895 -20.582   2.861  1.00  0.00     0.116 A 
HETATM   29  C   UNL     1      43.909 -19.778   2.320  1.00  0.00     0.020 A 
HETATM   30  C   UNL     1      43.210 -18.930   3.174  1.00  0.00     0.012 A 
ENDBRANCH  24  25
ENDBRANCH   2  24
BRANCH   5  31
HETATM   31  C   UNL     1      44.408 -13.676   7.204  1.00  0.00     0.047 A 
HETATM   32  C   UNL     1      45.791 -13.452   7.318  1.00  0.00     0.031 A 
HETATM   33  C   UNL     1      46.320 -12.484   8.185  1.00  0.00     0.009 A 
HETATM   34  C   UNL     1      45.478 -11.701   8.970  1.00  0.00    -0.062 A 
HETATM   35  C   UNL     1      46.028 -10.648   9.885  1.00  0.00     0.048 C 
HETATM   36  C   UNL     1      44.102 -11.899   8.868  1.00  0.00     0.009 A 
HETATM   37  C   UNL     1      43.579 -12.874   8.004  1.00  0.00     0.031 A 
ENDBRANCH   5  31
TORSDOF 9
ENDMDL
MODEL 4
REMARK VINA RESULT:      -8.2      2.522      5.856
REMARK  9 active torsions:
REMARK  status: ('A' for Active; 'I' for Inactive)
REMARK    1  A    between atoms: C_2  and  O_3 
REMARK    2  A    between atoms: O_3  and  C_4 
REMARK    3  A    between atoms: C_4  and  C_5 
REMARK    4  A    between atoms: C_8  and  N_9 
REMARK       I    between atoms: N_9  and  C_10 
REMARK    5  A    between atoms: C_10  and  C_11 
REMARK    6  A    between atoms: C_11  and  C_12 
REMARK    7  A    between atoms: N_13  and  C_14 
REMARK    8  A    between atoms: C_14  and  C_15 
REMARK    9  A    between atoms: N_23  and  C_24 
ROOT
HETATM    1  C   UNL     1      42.094 -15.121   3.911  1.00  0.00     0.191 C 
HETATM    2  N   UNL     1      42.516 -14.974   5.290  1.00  0.00    -0.315 N 
HETATM    3  C   UNL     1      43.323 -16.052   5.665  1.00  0.00     0.333 C 
HETATM    4  O   UNL     1      44.101 -15.992   6.606  1.00  0.00    -0.246 OA
HETATM    5  N   UNL     1      43.094 -17.089   4.780  1.00  0.00    -0.232 N 
HETATM    6  C   UNL     1      42.264 -16.634   3.774  1.00  0.00     0.256 C 
HETATM    7  O   UNL     1      41.748 -17.252   2.852  1.00  0.00    -0.270 OA
ENDROOT
BRANCH   1   8
HETATM    8  C   UNL     1      43.041 -14.392   2.962  1.00  0.00     0.138 C 
BRANCH   8   9
HETATM    9  C   UNL     1      42.320 -13.686   1.835  1.00  0.00     0.224 C 
HETATM   10  N   UNL     1      41.537 -14.532   1.067  1.00  0.00    -0.327 N 
HETATM   11  H   UNL     1      41.564 -15.520   1.279  1.00  0.00     0.169 HD
HETATM   12  O   UNL     1      42.427 -12.472   1.708  1.00  0.00    -0.273 OA
BRANCH  10  13
HETATM   13  C   UNL     1      40.613 -14.155   0.065  1.00  0.00     0.034 A 
HETATM   14  C   UNL     1      40.974 -13.780  -1.232  1.00  0.00     0.030 A 
HETATM   15  C   UNL     1      40.002 -13.376  -2.159  1.00  0.00     0.020 A 
HETATM   16  C   UNL     1      38.650 -13.345  -1.801  1.00  0.00     0.039 A 
HETATM   17  C   UNL     1      38.284 -13.727  -0.505  1.00  0.00     0.020 A 
HETATM   18  C   UNL     1      39.258 -14.129   0.418  1.00  0.00     0.030 A 
BRANCH  16  19
HETATM   19  C   UNL     1      37.578 -12.925  -2.745  1.00  0.00     0.293 C 
HETATM   20  O   UNL     1      36.740 -12.080  -2.474  1.00  0.00    -0.259 OA
BRANCH  19  21
HETATM   21  O   UNL     1      37.673 -13.609  -3.912  1.00  0.00    -0.318 OA
BRANCH  21  22
HETATM   22  C   UNL     1      37.296 -14.993  -3.861  1.00  0.00     0.174 C 
HETATM   23  C   UNL     1      38.466 -15.877  -4.246  1.00  0.00     0.034 C 
ENDBRANCH  21  22
ENDBRANCH  19  21
ENDBRANCH  16  19
ENDBRANCH  10  13
ENDBRANCH   8   9
ENDBRANCH   1   8
BRANCH   2  24
HETATM   24  C   UNL     1      42.567 -13.686   5.959  1.00  0.00     0.168 C 
BRANCH  24  25
HETATM   25  C   UNL     1      41.363 -12.831   5.685  1.00  0.00    -0.023 A 
HETATM   26  C   UNL     1      40.099 -13.191   6.141  1.00  0.00     0.125 A 
HETATM   27  N   UNL     1      38.978 -12.461   5.935  1.00  0.00    -0.273 NA
HETATM   28  C   UNL     1      39.126 -11.301   5.258  1.00  0.00     0.116 A 
HETATM   29  C   UNL     1      40.337 -10.845   4.770  1.00  0.00     0.020 A 
HETATM   30  C   UNL     1      41.468 -11.624   4.986  1.00  0.00     0.012 A 
ENDBRANCH  24  25
ENDBRANCH   2  24
BRANCH   5  31
HETATM   31  C   UNL     1      43.617 -18.417   4.906  1.00  0.00     0.047 A 
HETATM   32  C   UNL     1      43.439 -19.173   6.077  1.00  0.00     0.031 A 
HETATM   33  C   UNL     1      43.942 -20.476   6.205  1.00  0.00     0.009 A 
HETATM   34  C   UNL     1      44.644 -21.070   5.160  1.00  0.00    -0.062 A 
HETATM   35  C   UNL     1      45.169 -22.470   5.275  1.00  0.00     0.048 C 
HETATM   36  C   UNL     1      44.825 -20.343   3.984  1.00  0.00     0.009 A 
HETATM   37  C   UNL     1      44.324 -19.037   3.864  1.00  0.00     0.031 A 
ENDBRANCH   5  31
TORSDOF 9
ENDMDL
MODEL 5
REMARK VINA RESULT:      -8.1      3.967      7.147
REMARK  9 active torsions:
REMARK  status: ('A' for Active; 'I' for Inactive)
REMARK    1  A    between atoms: C_2  and  O_3 
REMARK    2  A    between atoms: O_3  and  C_4 
REMARK    3  A    between atoms: C_4  and  C_5 
REMARK    4  A    between atoms: C_8  and  N_9 
REMARK       I    between atoms: N_9  and  C_10 
REMARK    5  A    between atoms: C_10  and  C_11 
REMARK    6  A    between atoms: C_11  and  C_12 
REMARK    7  A    between atoms: N_13  and  C_14 
REMARK    8  A    between atoms: C_14  and  C_15 
REMARK    9  A    between atoms: N_23  and  C_24 
ROOT
HETATM    1  C   UNL     1      40.987 -15.239   0.604  1.00  0.00     0.191 C 
HETATM    2  N   UNL     1      41.657 -14.433   1.605  1.00  0.00    -0.315 N 
HETATM    3  C   UNL     1      42.623 -15.194   2.271  1.00  0.00     0.333 C 
HETATM    4  O   UNL     1      43.562 -14.686   2.865  1.00  0.00    -0.246 OA
HETATM    5  N   UNL     1      42.324 -16.530   2.078  1.00  0.00    -0.232 N 
HETATM    6  C   UNL     1      41.271 -16.622   1.188  1.00  0.00     0.256 C 
HETATM    7  O   UNL     1      40.645 -17.609   0.823  1.00  0.00    -0.270 OA
ENDROOT
BRANCH   1   8
HETATM    8  C   UNL     1      41.654 -15.092  -0.761  1.00  0.00     0.138 C 
BRANCH   8   9
HETATM    9  C   UNL     1      40.666 -15.126  -1.907  1.00  0.00     0.224 C 
HETATM   10  N   UNL     1      39.446 -14.546  -1.600  1.00  0.00    -0.327 N 
HETATM   11  H   UNL     1      39.306 -14.220  -0.652  1.00  0.00     0.169 HD
HETATM   12  O   UNL     1      41.002 -15.592  -2.989  1.00  0.00    -0.273 OA
BRANCH  10  13
HETATM   13  C   UNL     1      38.390 -14.265  -2.498  1.00  0.00     0.034 A 
HETATM   14  C   UNL     1      37.774 -15.223  -3.308  1.00  0.00     0.030 A 
HETATM   15  C   UNL     1      36.762 -14.859  -4.207  1.00  0.00     0.020 A 
HETATM   16  C   UNL     1      36.347 -13.527  -4.306  1.00  0.00     0.039 A 
HETATM   17  C   UNL     1      36.956 -12.565  -3.492  1.00  0.00     0.020 A 
HETATM   18  C   UNL     1      37.968 -12.933  -2.595  1.00  0.00     0.030 A 
BRANCH  16  19
HETATM   19  C   UNL     1      35.277 -13.086  -5.243  1.00  0.00     0.293 C 
HETATM   20  O   UNL     1      35.506 -12.593  -6.337  1.00  0.00    -0.259 OA
BRANCH  19  21
HETATM   21  O   UNL     1      34.051 -13.305  -4.708  1.00  0.00    -0.318 OA
BRANCH  21  22
HETATM   22  C   UNL     1      33.301 -12.132  -4.356  1.00  0.00     0.174 C 
HETATM   23  C   UNL     1      32.029 -12.515  -3.624  1.00  0.00     0.034 C 
ENDBRANCH  21  22
ENDBRANCH  19  21
ENDBRANCH  16  19
ENDBRANCH  10  13
ENDBRANCH   8   9
ENDBRANCH   1   8
BRANCH   2  24
HETATM   24  C   UNL     1      41.716 -12.983   1.532  1.00  0.00     0.168 C 
BRANCH  24  25
HETATM   25  C   UNL     1      40.365 -12.333   1.621  1.00  0.00    -0.023 A 
HETATM   26  C   UNL     1      39.625 -12.357   2.799  1.00  0.00     0.125 A 
HETATM   27  N   UNL     1      38.408 -11.785   2.946  1.00  0.00    -0.273 NA
HETATM   28  C   UNL     1      37.909 -11.135   1.872  1.00  0.00     0.116 A 
HETATM   29  C   UNL     1      38.565 -11.041   0.658  1.00  0.00     0.020 A 
HETATM   30  C   UNL     1      39.808 -11.652   0.534  1.00  0.00     0.012 A 
ENDBRANCH  24  25
ENDBRANCH   2  24
BRANCH   5  31
HETATM   31  C   UNL     1      42.986 -17.627   2.717  1.00  0.00     0.047 A 
HETATM   32  C   UNL     1      42.914 -17.826   4.107  1.00  0.00     0.031 A 
HETATM   33  C   UNL     1      43.556 -18.902   4.739  1.00  0.00     0.009 A 
HETATM   34  C   UNL     1      44.293 -19.821   3.998  1.00  0.00    -0.062 A 
HETATM   35  C   UNL     1      44.965 -20.988   4.658  1.00  0.00     0.048 C 
HETATM   36  C   UNL     1      44.371 -19.650   2.617  1.00  0.00     0.009 A 
HETATM   37  C   UNL     1      43.732 -18.568   1.990  1.00  0.00     0.031 A 
ENDBRANCH   5  31
TORSDOF 9
ENDMDL
MODEL 6
REMARK VINA RESULT:      -8.0      3.502      8.128
REMARK  9 active torsions:
REMARK  status: ('A' for Active; 'I' for Inactive)
REMARK    1  A    between atoms: C_2  and  O_3 
REMARK    2  A    between atoms: O_3  and  C_4 
REMARK    3  A    between atoms: C_4  and  C_5 
REMARK    4  A    between atoms: C_8  and  N_9 
REMARK       I    between atoms: N_9  and  C_10 
REMARK    5  A    between atoms: C_10  and  C_11 
REMARK    6  A    between atoms: C_11  and  C_12 
REMARK    7  A    between atoms: N_13  and  C_14 
REMARK    8  A    between atoms: C_14  and  C_15 
REMARK    9  A    between atoms: N_23  and  C_24 
ROOT
HETATM    1  C   UNL     1      40.090 -14.465   0.208  1.00  0.00     0.191 C 
HETATM    2  N   UNL     1      39.839 -13.163  -0.377  1.00  0.00    -0.315 N 
HETATM    3  C   UNL     1      39.970 -12.165   0.593  1.00  0.00     0.333 C 
HETATM    4  O   UNL     1      40.188 -10.997   0.305  1.00  0.00    -0.246 OA
HETATM    5  N   UNL     1      39.855 -12.756   1.837  1.00  0.00    -0.232 N 
HETATM    6  C   UNL     1      39.795 -14.126   1.669  1.00  0.00     0.256 C 
HETATM    7  O   UNL     1      39.600 -15.004   2.500  1.00  0.00    -0.270 OA
ENDROOT
BRANCH   1   8
HETATM    8  C   UNL     1      41.551 -14.874   0.042  1.00  0.00     0.138 C 
BRANCH   8   9
HETATM    9  C   UNL     1      41.876 -16.190   0.715  1.00  0.00     0.224 C 
HETATM   10  N   UNL     1      42.935 -16.108   1.604  1.00  0.00    -0.327 N 
HETATM   11  H   UNL     1      43.420 -15.223   1.676  1.00  0.00     0.169 HD
HETATM   12  O   UNL     1      41.191 -17.180   0.483  1.00  0.00    -0.273 OA
BRANCH  10  13
HETATM   13  C   UNL     1      43.362 -17.106   2.509  1.00  0.00     0.034 A 
HETATM   14  C   UNL     1      43.975 -18.302   2.125  1.00  0.00     0.030 A 
HETATM   15  C   UNL     1      44.331 -19.265   3.080  1.00  0.00     0.020 A 
HETATM   16  C   UNL     1      44.082 -19.044   4.438  1.00  0.00     0.039 A 
HETATM   17  C   UNL     1      43.475 -17.844   4.828  1.00  0.00     0.020 A 
HETATM   18  C   UNL     1      43.120 -16.884   3.871  1.00  0.00     0.030 A 
BRANCH  16  19
HETATM   19  C   UNL     1      44.440 -20.032   5.493  1.00  0.00     0.293 C 
HETATM   20  O   UNL     1      44.022 -19.969   6.638  1.00  0.00    -0.259 OA
BRANCH  19  21
HETATM   21  O   UNL     1      45.277 -20.977   5.000  1.00  0.00    -0.318 OA
BRANCH  21  22
HETATM   22  C   UNL     1      44.780 -22.323   5.009  1.00  0.00     0.174 C 
HETATM   23  C   UNL     1      44.612 -22.838   3.593  1.00  0.00     0.034 C 
ENDBRANCH  21  22
ENDBRANCH  19  21
ENDBRANCH  16  19
ENDBRANCH  10  13
ENDBRANCH   8   9
ENDBRANCH   1   8
BRANCH   2  24
HETATM   24  C   UNL     1      39.992 -12.901  -1.797  1.00  0.00     0.168 C 
BRANCH  24  25
HETATM   25  C   UNL     1      39.408 -13.982  -2.663  1.00  0.00    -0.023 A 
HETATM   26  C   UNL     1      40.219 -14.821  -3.420  1.00  0.00     0.125 A 
HETATM   27  N   UNL     1      39.757 -15.816  -4.212  1.00  0.00    -0.273 NA
HETATM   28  C   UNL     1      38.419 -16.001  -4.235  1.00  0.00     0.116 A 
HETATM   29  C   UNL     1      37.525 -15.232  -3.513  1.00  0.00     0.020 A 
HETATM   30  C   UNL     1      38.030 -14.207  -2.719  1.00  0.00     0.012 A 
ENDBRANCH  24  25
ENDBRANCH   2  24
BRANCH   5  31
HETATM   31  C   UNL     1      39.788 -12.056   3.085  1.00  0.00     0.047 A 
HETATM   32  C   UNL     1      38.644 -11.333   3.465  1.00  0.00     0.031 A 
HETATM   33  C   UNL     1      38.568 -10.650   4.687  1.00  0.00     0.009 A 
HETATM   34  C   UNL     1      39.639 -10.668   5.577  1.00  0.00    -0.062 A 
HETATM   35  C   UNL     1      39.563  -9.960   6.896  1.00  0.00     0.048 C 
HETATM   36  C   UNL     1      40.781 -11.386   5.225  1.00  0.00     0.009 A 
HETATM   37  C   UNL     1      40.854 -12.063   3.997  1.00  0.00     0.031 A 
ENDBRANCH   5  31
TORSDOF 9
ENDMDL
MODEL 7
REMARK VINA RESULT:      -8.0      3.241      6.909
REMARK  9 active torsions:
REMARK  status: ('A' for Active; 'I' for Inactive)
REMARK    1  A    between atoms: C_2  and  O_3 
REMARK    2  A    between atoms: O_3  and  C_4 
REMARK    3  A    between atoms: C_4  and  C_5 
REMARK    4  A    between atoms: C_8  and  N_9 
REMARK       I    between atoms: N_9  and  C_10 
REMARK    5  A    between atoms: C_10  and  C_11 
REMARK    6  A    between atoms: C_11  and  C_12 
REMARK    7  A    between atoms: N_13  and  C_14 
REMARK    8  A    between atoms: C_14  and  C_15 
REMARK    9  A    between atoms: N_23  and  C_24 
ROOT
HETATM    1  C   UNL     1      40.144 -14.629   2.186  1.00  0.00     0.191 C 
HETATM    2  N   UNL     1      41.115 -14.023   3.076  1.00  0.00    -0.315 N 
HETATM    3  C   UNL     1      42.208 -14.876   3.251  1.00  0.00     0.333 C 
HETATM    4  O   UNL     1      43.301 -14.474   3.621  1.00  0.00    -0.246 OA
HETATM    5  N   UNL     1      41.817 -16.154   2.897  1.00  0.00    -0.232 N 
HETATM    6  C   UNL     1      40.541 -16.094   2.370  1.00  0.00     0.256 C 
HETATM    7  O   UNL     1      39.799 -17.003   2.023  1.00  0.00    -0.270 OA
ENDROOT
BRANCH   1   8
HETATM    8  C   UNL     1      40.371 -14.195   0.741  1.00  0.00     0.138 C 
BRANCH   8   9
HETATM    9  C   UNL     1      39.082 -14.033  -0.036  1.00  0.00     0.224 C 
HETATM   10  N   UNL     1      39.277 -13.856  -1.396  1.00  0.00    -0.327 N 
HETATM   11  H   UNL     1      40.230 -13.790  -1.729  1.00  0.00     0.169 HD
HETATM   12  O   UNL     1      38.005 -14.113   0.544  1.00  0.00    -0.273 OA
BRANCH  10  13
HETATM   13  C   UNL     1      38.284 -13.855  -2.402  1.00  0.00     0.034 A 
HETATM   14  C   UNL     1      37.916 -14.982  -3.141  1.00  0.00     0.030 A 
HETATM   15  C   UNL     1      36.951 -14.891  -4.155  1.00  0.00     0.020 A 
HETATM   16  C   UNL     1      36.336 -13.668  -4.442  1.00  0.00     0.039 A 
HETATM   17  C   UNL     1      36.697 -12.538  -3.699  1.00  0.00     0.020 A 
HETATM   18  C   UNL     1      37.662 -12.633  -2.687  1.00  0.00     0.030 A 
BRANCH  16  19
HETATM   19  C   UNL     1      35.307 -13.516  -5.507  1.00  0.00     0.293 C 
HETATM   20  O   UNL     1      34.929 -14.440  -6.210  1.00  0.00    -0.259 OA
BRANCH  19  21
HETATM   21  O   UNL     1      34.872 -12.234  -5.573  1.00  0.00    -0.318 OA
BRANCH  21  22
HETATM   22  C   UNL     1      33.448 -12.051  -5.553  1.00  0.00     0.174 C 
HETATM   23  C   UNL     1      32.887 -12.399  -4.188  1.00  0.00     0.034 C 
ENDBRANCH  21  22
ENDBRANCH  19  21
ENDBRANCH  16  19
ENDBRANCH  10  13
ENDBRANCH   8   9
ENDBRANCH   1   8
BRANCH   2  24
HETATM   24  C   UNL     1      41.202 -12.587   3.277  1.00  0.00     0.168 C 
BRANCH  24  25
HETATM   25  C   UNL     1      40.706 -12.150   4.627  1.00  0.00    -0.023 A 
HETATM   26  C   UNL     1      39.370 -12.289   4.988  1.00  0.00     0.125 A 
HETATM   27  N   UNL     1      38.863 -11.923   6.188  1.00  0.00    -0.273 NA
HETATM   28  C   UNL     1      39.736 -11.413   7.085  1.00  0.00     0.116 A 
HETATM   29  C   UNL     1      41.085 -11.242   6.833  1.00  0.00     0.020 A 
HETATM   30  C   UNL     1      41.573 -11.615   5.585  1.00  0.00     0.012 A 
ENDBRANCH  24  25
ENDBRANCH   2  24
BRANCH   5  31
HETATM   31  C   UNL     1      42.601 -17.340   3.073  1.00  0.00     0.047 A 
HETATM   32  C   UNL     1      43.136 -18.041   1.978  1.00  0.00     0.031 A 
HETATM   33  C   UNL     1      43.909 -19.200   2.143  1.00  0.00     0.009 A 
HETATM   34  C   UNL     1      44.176 -19.699   3.415  1.00  0.00    -0.062 A 
HETATM   35  C   UNL     1      45.019 -20.924   3.607  1.00  0.00     0.048 C 
HETATM   36  C   UNL     1      43.663 -19.015   4.517  1.00  0.00     0.009 A 
HETATM   37  C   UNL     1      42.885 -17.859   4.345  1.00  0.00     0.031 A 
ENDBRANCH   5  31
TORSDOF 9
ENDMDL
MODEL 8
REMARK VINA RESULT:      -8.0      3.599      7.146
REMARK  9 active torsions:
REMARK  status: ('A' for Active; 'I' for Inactive)
REMARK    1  A    between atoms: C_2  and  O_3 
REMARK    2  A    between atoms: O_3  and  C_4 
REMARK    3  A    between atoms: C_4  and  C_5 
REMARK    4  A    between atoms: C_8  and  N_9 
REMARK       I    between atoms: N_9  and  C_10 
REMARK    5  A    between atoms: C_10  and  C_11 
REMARK    6  A    between atoms: C_11  and  C_12 
REMARK    7  A    between atoms: N_13  and  C_14 
REMARK    8  A    between atoms: C_14  and  C_15 
REMARK    9  A    between atoms: N_23  and  C_24 
ROOT
HETATM    1  C   UNL     1      40.866 -12.878   3.583  1.00  0.00     0.191 C 
HETATM    2  N   UNL     1      40.091 -11.664   3.423  1.00  0.00    -0.315 N 
HETATM    3  C   UNL     1      40.161 -10.890   4.586  1.00  0.00     0.333 C 
HETATM    4  O   UNL     1      39.933  -9.690   4.589  1.00  0.00    -0.246 OA
HETATM    5  N   UNL     1      40.555 -11.712   5.625  1.00  0.00    -0.232 N 
HETATM    6  C   UNL     1      40.871 -12.954   5.109  1.00  0.00     0.256 C 
HETATM    7  O   UNL     1      41.172 -13.986   5.695  1.00  0.00    -0.270 OA
ENDROOT
BRANCH   1   8
HETATM    8  C   UNL     1      42.287 -12.701   3.056  1.00  0.00     0.138 C 
BRANCH   8   9
HETATM    9  C   UNL     1      43.154 -13.922   3.273  1.00  0.00     0.224 C 
HETATM   10  N   UNL     1      42.491 -15.117   3.043  1.00  0.00    -0.327 N 
HETATM   11  H   UNL     1      41.505 -15.071   2.819  1.00  0.00     0.169 HD
HETATM   12  O   UNL     1      44.334 -13.787   3.575  1.00  0.00    -0.273 OA
BRANCH  10  13
HETATM   13  C   UNL     1      43.064 -16.408   2.988  1.00  0.00     0.034 A 
HETATM   14  C   UNL     1      43.376 -17.077   1.801  1.00  0.00     0.030 A 
HETATM   15  C   UNL     1      43.903 -18.376   1.827  1.00  0.00     0.020 A 
HETATM   16  C   UNL     1      44.130 -19.025   3.045  1.00  0.00     0.039 A 
HETATM   17  C   UNL     1      43.826 -18.356   4.236  1.00  0.00     0.020 A 
HETATM   18  C   UNL     1      43.299 -17.058   4.206  1.00  0.00     0.030 A 
BRANCH  16  19
HETATM   19  C   UNL     1      44.688 -20.403   3.130  1.00  0.00     0.293 C 
HETATM   20  O   UNL     1      44.595 -21.220   2.228  1.00  0.00    -0.259 OA
BRANCH  19  21
HETATM   21  O   UNL     1      45.290 -20.603   4.328  1.00  0.00    -0.318 OA
BRANCH  21  22
HETATM   22  C   UNL     1      44.907 -21.794   5.033  1.00  0.00     0.174 C 
HETATM   23  C   UNL     1      44.114 -21.443   6.277  1.00  0.00     0.034 C 
ENDBRANCH  21  22
ENDBRANCH  19  21
ENDBRANCH  16  19
ENDBRANCH  10  13
ENDBRANCH   8   9
ENDBRANCH   1   8
BRANCH   2  24
HETATM   24  C   UNL     1      39.785 -11.096   2.122  1.00  0.00     0.168 C 
BRANCH  24  25
HETATM   25  C   UNL     1      39.193 -12.094   1.168  1.00  0.00    -0.023 A 
HETATM   26  C   UNL     1      37.921 -12.622   1.368  1.00  0.00     0.125 A 
HETATM   27  N   UNL     1      37.328 -13.516   0.543  1.00  0.00    -0.273 NA
HETATM   28  C   UNL     1      38.029 -13.889  -0.550  1.00  0.00     0.116 A 
HETATM   29  C   UNL     1      39.294 -13.419  -0.850  1.00  0.00     0.020 A 
HETATM   30  C   UNL     1      39.882 -12.511   0.025  1.00  0.00     0.012 A 
ENDBRANCH  24  25
ENDBRANCH   2  24
BRANCH   5  31
HETATM   31  C   UNL     1      40.604 -11.336   7.006  1.00  0.00     0.047 A 
HETATM   32  C   UNL     1      39.501 -11.511   7.859  1.00  0.00     0.031 A 
HETATM   33  C   UNL     1      39.543 -11.151   9.214  1.00  0.00     0.009 A 
HETATM   34  C   UNL     1      40.697 -10.601   9.765  1.00  0.00    -0.062 A 
HETATM   35  C   UNL     1      40.763 -10.231  11.217  1.00  0.00     0.048 C 
HETATM   36  C   UNL     1      41.808 -10.426   8.941  1.00  0.00     0.009 A 
HETATM   37  C   UNL     1      41.757 -10.783   7.584  1.00  0.00     0.031 A 
ENDBRANCH   5  31
TORSDOF 9
ENDMDL
MODEL 9
REMARK VINA RESULT:      -7.9      3.107      9.119
REMARK  9 active torsions:
REMARK  status: ('A' for Active; 'I' for Inactive)
REMARK    1  A    between atoms: C_2  and  O_3 
REMARK    2  A    between atoms: O_3  and  C_4 
REMARK    3  A    between atoms: C_4  and  C_5 
REMARK    4  A    between atoms: C_8  and  N_9 
REMARK       I    between atoms: N_9  and  C_10 
REMARK    5  A    between atoms: C_10  and  C_11 
REMARK    6  A    between atoms: C_11  and  C_12 
REMARK    7  A    between atoms: N_13  and  C_14 
REMARK    8  A    between atoms: C_14  and  C_15 
REMARK    9  A    between atoms: N_23  and  C_24 
ROOT
HETATM    1  C   UNL     1      41.225 -14.292   2.391  1.00  0.00     0.191 C 
HETATM    2  N   UNL     1      41.047 -15.103   1.204  1.00  0.00    -0.315 N 
HETATM    3  C   UNL     1      41.415 -16.427   1.464  1.00  0.00     0.333 C 
HETATM    4  O   UNL     1      41.015 -17.363   0.788  1.00  0.00    -0.246 OA
HETATM    5  N   UNL     1      42.223 -16.435   2.586  1.00  0.00    -0.232 N 
HETATM    6  C   UNL     1      42.253 -15.160   3.116  1.00  0.00     0.256 C 
HETATM    7  O   UNL     1      42.916 -14.720   4.046  1.00  0.00    -0.270 OA
ENDROOT
BRANCH   1   8
HETATM    8  C   UNL     1      39.936 -14.207   3.202  1.00  0.00     0.138 C 
BRANCH   8   9
HETATM    9  C   UNL     1      39.877 -12.983   4.092  1.00  0.00     0.224 C 
HETATM   10  N   UNL     1      40.247 -13.237   5.402  1.00  0.00    -0.327 N 
HETATM   11  H   UNL     1      40.456 -14.194   5.655  1.00  0.00     0.169 HD
HETATM   12  O   UNL     1      39.571 -11.897   3.615  1.00  0.00    -0.273 OA
BRANCH  10  13
HETATM   13  C   UNL     1      40.465 -12.282   6.421  1.00  0.00     0.034 A 
HETATM   14  C   UNL     1      41.647 -11.552   6.572  1.00  0.00     0.030 A 
HETATM   15  C   UNL     1      41.805 -10.653   7.637  1.00  0.00     0.020 A 
HETATM   16  C   UNL     1      40.778 -10.468   8.567  1.00  0.00     0.039 A 
HETATM   17  C   UNL     1      39.589 -11.192   8.416  1.00  0.00     0.020 A 
HETATM   18  C   UNL     1      39.435 -12.089   7.351  1.00  0.00     0.030 A 
BRANCH  16  19
HETATM   19  C   UNL     1      40.892  -9.527   9.715  1.00  0.00     0.293 C 
HETATM   20  O   UNL     1      40.490  -8.375   9.679  1.00  0.00    -0.259 OA
BRANCH  19  21
HETATM   21  O   UNL     1      41.496 -10.129  10.769  1.00  0.00    -0.318 OA
BRANCH  21  22
HETATM   22  C   UNL     1      42.706  -9.512  11.235  1.00  0.00     0.174 C 
HETATM   23  C   UNL     1      43.684 -10.563  11.723  1.00  0.00     0.034 C 
ENDBRANCH  21  22
ENDBRANCH  19  21
ENDBRANCH  16  19
ENDBRANCH  10  13
ENDBRANCH   8   9
ENDBRANCH   1   8
BRANCH   2  24
HETATM   24  C   UNL     1      40.128 -14.741   0.139  1.00  0.00     0.168 C 
BRANCH  24  25
HETATM   25  C   UNL     1      40.825 -14.331  -1.127  1.00  0.00    -0.023 A 
HETATM   26  C   UNL     1      40.560 -14.964  -2.338  1.00  0.00     0.125 A 
HETATM   27  N   UNL     1      41.146 -14.638  -3.513  1.00  0.00    -0.273 NA
HETATM   28  C   UNL     1      42.028 -13.614  -3.487  1.00  0.00     0.116 A 
HETATM   29  C   UNL     1      42.356 -12.911  -2.342  1.00  0.00     0.020 A 
HETATM   30  C   UNL     1      41.746 -13.280  -1.147  1.00  0.00     0.012 A 
ENDBRANCH  24  25
ENDBRANCH   2  24
BRANCH   5  31
HETATM   31  C   UNL     1      42.925 -17.576   3.092  1.00  0.00     0.047 A 
HETATM   32  C   UNL     1      42.856 -17.944   4.447  1.00  0.00     0.031 A 
HETATM   33  C   UNL     1      43.537 -19.063   4.950  1.00  0.00     0.009 A 
HETATM   34  C   UNL     1      44.313 -19.857   4.110  1.00  0.00    -0.062 A 
HETATM   35  C   UNL     1      45.029 -21.067   4.629  1.00  0.00     0.048 C 
HETATM   36  C   UNL     1      44.390 -19.516   2.760  1.00  0.00     0.009 A 
HETATM   37  C   UNL     1      43.711 -18.391   2.264  1.00  0.00     0.031 A 
ENDBRANCH   5  31
TORSDOF 9
ENDMDL
MODEL 10
REMARK VINA RESULT:      -7.6      3.834     10.311
REMARK  9 active torsions:
REMARK  status: ('A' for Active; 'I' for Inactive)
REMARK    1  A    between atoms: C_2  and  O_3 
REMARK    2  A    between atoms: O_3  and  C_4 
REMARK    3  A    between atoms: C_4  and  C_5 
REMARK    4  A    between atoms: C_8  and  N_9 
REMARK       I    between atoms: N_9  and  C_10 
REMARK    5  A    between atoms: C_10  and  C_11 
REMARK    6  A    between atoms: C_11  and  C_12 
REMARK    7  A    between atoms: N_13  and  C_14 
REMARK    8  A    between atoms: C_14  and  C_15 
REMARK    9  A    between atoms: N_23  and  C_24 
ROOT
HETATM    1  C   UNL     1      42.867 -14.564   4.577  1.00  0.00     0.191 C 
HETATM    2  N   UNL     1      41.706 -15.274   5.074  1.00  0.00    -0.315 N 
HETATM    3  C   UNL     1      41.882 -16.653   4.924  1.00  0.00     0.333 C 
HETATM    4  O   UNL     1      41.257 -17.469   5.585  1.00  0.00    -0.246 OA
HETATM    5  N   UNL     1      42.868 -16.859   3.978  1.00  0.00    -0.232 N 
HETATM    6  C   UNL     1      43.412 -15.637   3.634  1.00  0.00     0.256 C 
HETATM    7  O   UNL     1      44.239 -15.367   2.773  1.00  0.00    -0.270 OA
ENDROOT
BRANCH   1   8
HETATM    8  C   UNL     1      43.866 -14.285   5.697  1.00  0.00     0.138 C 
BRANCH   8   9
HETATM    9  C   UNL     1      43.456 -13.126   6.579  1.00  0.00     0.224 C 
HETATM   10  N   UNL     1      43.902 -13.243   7.885  1.00  0.00    -0.327 N 
HETATM   11  H   UNL     1      44.390 -14.092   8.141  1.00  0.00     0.169 HD
HETATM   12  O   UNL     1      42.833 -12.185   6.101  1.00  0.00    -0.273 OA
BRANCH  10  13
HETATM   13  C   UNL     1      43.838 -12.256   8.895  1.00  0.00     0.034 A 
HETATM   14  C   UNL     1      44.800 -12.094   9.896  1.00  0.00     0.030 A 
HETATM   15  C   UNL     1      44.644 -11.118  10.891  1.00  0.00     0.020 A 
HETATM   16  C   UNL     1      43.521 -10.285  10.897  1.00  0.00     0.039 A 
HETATM   17  C   UNL     1      42.558 -10.438   9.892  1.00  0.00     0.020 A 
HETATM   18  C   UNL     1      42.718 -11.415   8.900  1.00  0.00     0.030 A 
BRANCH  16  19
HETATM   19  C   UNL     1      43.306  -9.233  11.928  1.00  0.00     0.293 C 
HETATM   20  O   UNL     1      42.850  -8.129  11.674  1.00  0.00    -0.259 OA
BRANCH  19  21
HETATM   21  O   UNL     1      43.686  -9.677  13.151  1.00  0.00    -0.318 OA
BRANCH  21  22
HETATM   22  C   UNL     1      42.645 -10.228  13.971  1.00  0.00     0.174 C 
HETATM   23  C   UNL     1      42.387  -9.338  15.172  1.00  0.00     0.034 C 
ENDBRANCH  21  22
ENDBRANCH  19  21
ENDBRANCH  16  19
ENDBRANCH  10  13
ENDBRANCH   8   9
ENDBRANCH   1   8
BRANCH   2  24
HETATM   24  C   UNL     1      40.800 -14.703   6.055  1.00  0.00     0.168 C 
BRANCH  24  25
HETATM   25  C   UNL     1      40.015 -13.537   5.523  1.00  0.00    -0.023 A 
HETATM   26  C   UNL     1      39.480 -12.575   6.374  1.00  0.00     0.125 A 
HETATM   27  N   UNL     1      38.773 -11.499   5.959  1.00  0.00    -0.273 NA
HETATM   28  C   UNL     1      38.606 -11.361   4.625  1.00  0.00     0.116 A 
HETATM   29  C   UNL     1      39.104 -12.251   3.692  1.00  0.00     0.020 A 
HETATM   30  C   UNL     1      39.815 -13.355   4.151  1.00  0.00     0.012 A 
ENDBRANCH  24  25
ENDBRANCH   2  24
BRANCH   5  31
HETATM   31  C   UNL     1      43.241 -18.130   3.433  1.00  0.00     0.047 A 
HETATM   32  C   UNL     1      44.149 -18.978   4.090  1.00  0.00     0.031 A 
HETATM   33  C   UNL     1      44.515 -20.227   3.566  1.00  0.00     0.009 A 
HETATM   34  C   UNL     1      43.981 -20.672   2.359  1.00  0.00    -0.062 A 
HETATM   35  C   UNL     1      44.347 -22.014   1.798  1.00  0.00     0.048 C 
HETATM   36  C   UNL     1      43.072 -19.852   1.693  1.00  0.00     0.009 A 
HETATM   37  C   UNL     1      42.714 -18.601   2.220  1.00  0.00     0.031 A 
ENDBRANCH   5  31
TORSDOF 9
ENDMDL
