MODEL 1
REMARK VINA RESULT:      -7.7      0.000      0.000
REMARK  4 active torsions:
REMARK  status: ('A' for Active; 'I' for Inactive)
REMARK    1  A    between atoms: C_8  and  N_9 
REMARK    2  A    between atoms: C_11  and  C_12 
REMARK    3  A    between atoms: C_13  and  O_14 
REMARK    4  A    between atoms: O_14  and  C_15 
ROOT
HETATM    1  C   UNL     1      43.743 -19.662   2.130  1.00  0.00     0.002 A 
HETATM    2  C   UNL     1      43.962 -19.704   3.512  1.00  0.00     0.034 A 
HETATM    3  C   UNL     1      43.957 -18.502   4.231  1.00  0.00     0.103 A 
HETATM    4  C   UNL     1      43.733 -17.303   3.559  1.00  0.00     0.083 A 
HETATM    5  N   UNL     1      43.774 -16.372   4.562  1.00  0.00    -0.151 N 
HETATM    6  C   UNL     1      44.066 -16.984   5.754  1.00  0.00     0.734 A 
HETATM    7  N   UNL     1      44.230 -16.301   6.909  1.00  0.00    -0.033 NA
HETATM    8  C   UNL     1      44.131 -15.022   6.896  1.00  0.00     0.193 A 
HETATM    9  N   UNL     1      43.840 -14.262   5.761  1.00  0.00    -0.338 N 
HETATM   10  C   UNL     1      43.608 -14.937   4.487  1.00  0.00     0.246 A 
HETATM   11  N   UNL     1      44.151 -18.284   5.571  1.00  0.00    -0.060 NA
HETATM   12  C   UNL     1      43.515 -17.235   2.180  1.00  0.00     0.033 A 
HETATM   13  C   UNL     1      43.524 -18.446   1.479  1.00  0.00     0.002 A 
HETATM   14  H   UNL     1      43.839 -13.250   5.797  1.00  0.00     0.164 HD
ENDROOT
BRANCH  10  15
HETATM   15  C   UNL     1      42.226 -14.508   4.014  1.00  0.00     0.020 A 
HETATM   16  C   UNL     1      41.098 -14.746   4.823  1.00  0.00     0.085 A 
HETATM   17  C   UNL     1      39.819 -14.343   4.428  1.00  0.00     0.039 A 
HETATM   18  C   UNL     1      39.636 -13.750   3.180  1.00  0.00     0.022 A 
HETATM   19  C   UNL     1      40.729 -13.557   2.341  1.00  0.00     0.011 A 
HETATM   20 BR   UNL     1      40.480 -12.764   0.644  1.00  0.00    -0.051 Br
HETATM   21  C   UNL     1      42.012 -13.937   2.743  1.00  0.00     0.033 A 
BRANCH  16  22
HETATM   22  O   UNL     1      41.268 -15.325   6.054  1.00  0.00    -0.289 OA
BRANCH  22  23
HETATM   23  C   UNL     1      40.547 -16.554   6.142  1.00  0.00     0.505 C 
HETATM   24  F   UNL     1      40.797 -17.258   5.001  1.00  0.00    -0.184 F 
HETATM   25  F   UNL     1      41.101 -17.267   7.149  1.00  0.00    -0.184 F 
ENDBRANCH  22  23
ENDBRANCH  16  22
ENDBRANCH  10  15
BRANCH   8  26
HETATM   26  N   UNL     1      44.305 -14.262   7.996  1.00  0.00    -0.272 NA
HETATM   27  H   UNL     1      44.684 -13.348   7.759  1.00  0.00     0.127 HD
HETATM   28  H   UNL     1      44.794 -14.682   8.774  1.00  0.00     0.127 HD
ENDBRANCH   8  26
TORSDOF 4
ENDMDL
MODEL 2
REMARK VINA RESULT:      -7.7      3.435      5.002
REMARK  4 active torsions:
REMARK  status: ('A' for Active; 'I' for Inactive)
REMARK    1  A    between atoms: C_8  and  N_9 
REMARK    2  A    between atoms: C_11  and  C_12 
REMARK    3  A    between atoms: C_13  and  O_14 
REMARK    4  A    between atoms: O_14  and  C_15 
ROOT
HETATM    1  C   UNL     1      41.367 -16.612   0.178  1.00  0.00     0.002 A 
HETATM    2  C   UNL     1      40.998 -15.318   0.562  1.00  0.00     0.034 A 
HETATM    3  C   UNL     1      40.768 -15.059   1.920  1.00  0.00     0.103 A 
HETATM    4  C   UNL     1      40.914 -16.086   2.847  1.00  0.00     0.083 A 
HETATM    5  N   UNL     1      40.641 -15.472   4.039  1.00  0.00    -0.151 N 
HETATM    6  C   UNL     1      40.293 -14.163   3.819  1.00  0.00     0.734 A 
HETATM    7  N   UNL     1      39.912 -13.328   4.811  1.00  0.00    -0.033 NA
HETATM    8  C   UNL     1      39.849 -13.775   6.013  1.00  0.00     0.193 A 
HETATM    9  N   UNL     1      40.170 -15.081   6.389  1.00  0.00    -0.338 N 
HETATM   10  C   UNL     1      40.631 -16.026   5.376  1.00  0.00     0.246 A 
HETATM   11  N   UNL     1      40.395 -13.892   2.537  1.00  0.00    -0.060 NA
HETATM   12  C   UNL     1      41.280 -17.388   2.488  1.00  0.00     0.033 A 
HETATM   13  C   UNL     1      41.505 -17.627   1.127  1.00  0.00     0.002 A 
HETATM   14  H   UNL     1      40.040 -15.396   7.342  1.00  0.00     0.164 HD
ENDROOT
BRANCH  10  15
HETATM   15  C   UNL     1      41.994 -16.527   5.836  1.00  0.00     0.020 A 
HETATM   16  C   UNL     1      43.051 -15.617   6.029  1.00  0.00     0.085 A 
HETATM   17  C   UNL     1      44.306 -16.043   6.473  1.00  0.00     0.039 A 
HETATM   18  C   UNL     1      44.546 -17.401   6.673  1.00  0.00     0.022 A 
HETATM   19  C   UNL     1      43.530 -18.322   6.434  1.00  0.00     0.011 A 
HETATM   20 BR   UNL     1      43.857 -20.165   6.694  1.00  0.00    -0.051 Br
HETATM   21  C   UNL     1      42.268 -17.898   6.013  1.00  0.00     0.033 A 
BRANCH  16  22
HETATM   22  O   UNL     1      42.826 -14.279   5.838  1.00  0.00    -0.289 OA
BRANCH  22  23
HETATM   23  C   UNL     1      43.675 -13.759   4.815  1.00  0.00     0.505 C 
HETATM   24  F   UNL     1      43.722 -14.684   3.813  1.00  0.00    -0.184 F 
HETATM   25  F   UNL     1      43.053 -12.677   4.294  1.00  0.00    -0.184 F 
ENDBRANCH  22  23
ENDBRANCH  16  22
ENDBRANCH  10  15
BRANCH   8  26
HETATM   26  N   UNL     1      39.455 -13.019   7.057  1.00  0.00    -0.272 NA
HETATM   27  H   UNL     1      39.758 -12.053   6.951  1.00  0.00     0.127 HD
HETATM   28  H   UNL     1      39.649 -13.375   7.983  1.00  0.00     0.127 HD
ENDBRANCH   8  26
TORSDOF 4
ENDMDL
MODEL 3
REMARK VINA RESULT:      -7.5      1.215      1.328
REMARK  4 active torsions:
REMARK  status: ('A' for Active; 'I' for Inactive)
REMARK    1  A    between atoms: C_8  and  N_9 
REMARK    2  A    between atoms: C_11  and  C_12 
REMARK    3  A    between atoms: C_13  and  O_14 
REMARK    4  A    between atoms: O_14  and  C_15 
ROOT
HETATM    1  C   UNL     1      44.406 -20.811   3.569  1.00  0.00     0.002 A 
HETATM    2  C   UNL     1      44.411 -20.364   4.895  1.00  0.00     0.034 A 
HETATM    3  C   UNL     1      44.235 -18.997   5.145  1.00  0.00     0.103 A 
HETATM    4  C   UNL     1      44.056 -18.123   4.077  1.00  0.00     0.083 A 
HETATM    5  N   UNL     1      43.895 -16.910   4.690  1.00  0.00    -0.151 N 
HETATM    6  C   UNL     1      44.031 -17.052   6.047  1.00  0.00     0.734 A 
HETATM    7  N   UNL     1      43.979 -16.008   6.904  1.00  0.00    -0.033 NA
HETATM    8  C   UNL     1      43.819 -14.824   6.436  1.00  0.00     0.193 A 
HETATM    9  N   UNL     1      43.668 -14.524   5.080  1.00  0.00    -0.338 N 
HETATM   10  C   UNL     1      43.670 -15.607   4.101  1.00  0.00     0.246 A 
HETATM   11  N   UNL     1      44.208 -18.322   6.340  1.00  0.00    -0.060 NA
HETATM   12  C   UNL     1      44.049 -18.544   2.743  1.00  0.00     0.033 A 
HETATM   13  C   UNL     1      44.228 -19.914   2.514  1.00  0.00     0.002 A 
HETATM   14  H   UNL     1      43.610 -13.564   4.762  1.00  0.00     0.164 HD
ENDROOT
BRANCH  10  15
HETATM   15  C   UNL     1      42.357 -15.505   3.337  1.00  0.00     0.020 A 
HETATM   16  C   UNL     1      41.131 -15.570   4.028  1.00  0.00     0.085 A 
HETATM   17  C   UNL     1      39.910 -15.455   3.358  1.00  0.00     0.039 A 
HETATM   18  C   UNL     1      39.891 -15.335   1.970  1.00  0.00     0.022 A 
HETATM   19  C   UNL     1      41.089 -15.325   1.262  1.00  0.00     0.011 A 
HETATM   20 BR   UNL     1      41.064 -15.174  -0.621  1.00  0.00    -0.051 Br
HETATM   21  C   UNL     1      42.312 -15.416   1.931  1.00  0.00     0.033 A 
BRANCH  16  22
HETATM   22  O   UNL     1      41.138 -15.685   5.394  1.00  0.00    -0.289 OA
BRANCH  22  23
HETATM   23  C   UNL     1      40.444 -16.860   5.810  1.00  0.00     0.505 C 
HETATM   24  F   UNL     1      40.918 -17.901   5.066  1.00  0.00    -0.184 F 
HETATM   25  F   UNL     1      40.821 -17.112   7.085  1.00  0.00    -0.184 F 
ENDBRANCH  22  23
ENDBRANCH  16  22
ENDBRANCH  10  15
BRANCH   8  26
HETATM   26  N   UNL     1      43.783 -13.725   7.215  1.00  0.00    -0.272 NA
HETATM   27  H   UNL     1      42.991 -13.749   7.854  1.00  0.00     0.127 HD
HETATM   28  H   UNL     1      43.867 -12.830   6.754  1.00  0.00     0.127 HD
ENDBRANCH   8  26
TORSDOF 4
ENDMDL
MODEL 4
REMARK VINA RESULT:      -7.4      5.490      7.790
REMARK  4 active torsions:
REMARK  status: ('A' for Active; 'I' for Inactive)
REMARK    1  A    between atoms: C_8  and  N_9 
REMARK    2  A    between atoms: C_11  and  C_12 
REMARK    3  A    between atoms: C_13  and  O_14 
REMARK    4  A    between atoms: O_14  and  C_15 
ROOT
HETATM    1  C   UNL     1      43.048  -9.940  -2.458  1.00  0.00     0.002 A 
HETATM    2  C   UNL     1      42.276 -10.525  -3.468  1.00  0.00     0.034 A 
HETATM    3  C   UNL     1      41.781 -11.821  -3.270  1.00  0.00     0.103 A 
HETATM    4  C   UNL     1      42.063 -12.488  -2.082  1.00  0.00     0.083 A 
HETATM    5  N   UNL     1      41.411 -13.683  -2.233  1.00  0.00    -0.151 N 
HETATM    6  C   UNL     1      40.824 -13.739  -3.472  1.00  0.00     0.734 A 
HETATM    7  N   UNL     1      40.161 -14.828  -3.921  1.00  0.00    -0.033 NA
HETATM    8  C   UNL     1      40.090 -15.868  -3.172  1.00  0.00     0.193 A 
HETATM    9  N   UNL     1      40.638 -15.959  -1.890  1.00  0.00    -0.338 N 
HETATM   10  C   UNL     1      41.331 -14.805  -1.324  1.00  0.00     0.246 A 
HETATM   11  N   UNL     1      41.017 -12.601  -4.101  1.00  0.00    -0.060 NA
HETATM   12  C   UNL     1      42.833 -11.927  -1.059  1.00  0.00     0.033 A 
HETATM   13  C   UNL     1      43.320 -10.632  -1.275  1.00  0.00     0.002 A 
HETATM   14  H   UNL     1      40.607 -16.827  -1.371  1.00  0.00     0.164 HD
ENDROOT
BRANCH  10  15
HETATM   15  C   UNL     1      40.629 -14.477  -0.013  1.00  0.00     0.020 A 
HETATM   16  C   UNL     1      40.970 -15.172   1.163  1.00  0.00     0.085 A 
HETATM   17  C   UNL     1      40.361 -14.877   2.386  1.00  0.00     0.039 A 
HETATM   18  C   UNL     1      39.349 -13.922   2.443  1.00  0.00     0.022 A 
HETATM   19  C   UNL     1      38.957 -13.263   1.281  1.00  0.00     0.011 A 
HETATM   20 BR   UNL     1      37.577 -11.976   1.354  1.00  0.00    -0.051 Br
HETATM   21  C   UNL     1      39.581 -13.538   0.061  1.00  0.00     0.033 A 
BRANCH  16  22
HETATM   22  O   UNL     1      41.966 -16.112   1.120  1.00  0.00    -0.289 OA
BRANCH  22  23
HETATM   23  C   UNL     1      41.518 -17.356   1.655  1.00  0.00     0.505 C 
HETATM   24  F   UNL     1      40.585 -17.859   0.796  1.00  0.00    -0.184 F 
HETATM   25  F   UNL     1      42.566 -18.210   1.609  1.00  0.00    -0.184 F 
ENDBRANCH  22  23
ENDBRANCH  16  22
ENDBRANCH  10  15
BRANCH   8  26
HETATM   26  N   UNL     1      39.471 -17.004  -3.551  1.00  0.00    -0.272 NA
HETATM   27  H   UNL     1      38.671 -17.207  -2.956  1.00  0.00     0.127 HD
HETATM   28  H   UNL     1      40.051 -17.819  -3.693  1.00  0.00     0.127 HD
ENDBRANCH   8  26
TORSDOF 4
ENDMDL
MODEL 5
REMARK VINA RESULT:      -7.4      1.688      1.926
REMARK  4 active torsions:
REMARK  status: ('A' for Active; 'I' for Inactive)
REMARK    1  A    between atoms: C_8  and  N_9 
REMARK    2  A    between atoms: C_11  and  C_12 
REMARK    3  A    between atoms: C_13  and  O_14 
REMARK    4  A    between atoms: O_14  and  C_15 
ROOT
HETATM    1  C   UNL     1      44.113 -20.238   2.788  1.00  0.00     0.002 A 
HETATM    2  C   UNL     1      44.049 -19.825   4.124  1.00  0.00     0.034 A 
HETATM    3  C   UNL     1      43.834 -18.467   4.399  1.00  0.00     0.103 A 
HETATM    4  C   UNL     1      43.685 -17.570   3.345  1.00  0.00     0.083 A 
HETATM    5  N   UNL     1      43.472 -16.377   3.980  1.00  0.00    -0.151 N 
HETATM    6  C   UNL     1      43.550 -16.551   5.338  1.00  0.00     0.734 A 
HETATM    7  N   UNL     1      43.439 -15.530   6.217  1.00  0.00    -0.033 NA
HETATM    8  C   UNL     1      43.276 -14.338   5.771  1.00  0.00     0.193 A 
HETATM    9  N   UNL     1      43.179 -14.006   4.417  1.00  0.00    -0.338 N 
HETATM   10  C   UNL     1      43.247 -15.064   3.413  1.00  0.00     0.246 A 
HETATM   11  N   UNL     1      43.740 -17.824   5.607  1.00  0.00    -0.060 NA
HETATM   12  C   UNL     1      43.747 -17.958   2.002  1.00  0.00     0.033 A 
HETATM   13  C   UNL     1      43.964 -19.317   1.748  1.00  0.00     0.002 A 
HETATM   14  H   UNL     1      43.116 -13.040   4.120  1.00  0.00     0.164 HD
ENDROOT
BRANCH  10  15
HETATM   15  C   UNL     1      41.967 -14.968   2.593  1.00  0.00     0.020 A 
HETATM   16  C   UNL     1      40.714 -15.071   3.227  1.00  0.00     0.085 A 
HETATM   17  C   UNL     1      39.522 -14.962   2.505  1.00  0.00     0.039 A 
HETATM   18  C   UNL     1      39.562 -14.811   1.121  1.00  0.00     0.022 A 
HETATM   19  C   UNL     1      40.791 -14.763   0.468  1.00  0.00     0.011 A 
HETATM   20 BR   UNL     1      40.847 -14.571  -1.411  1.00  0.00    -0.051 Br
HETATM   21  C   UNL     1      41.984 -14.848   1.189  1.00  0.00     0.033 A 
BRANCH  16  22
HETATM   22  O   UNL     1      40.662 -15.216   4.588  1.00  0.00    -0.289 OA
BRANCH  22  23
HETATM   23  C   UNL     1      39.778 -14.260   5.171  1.00  0.00     0.505 C 
HETATM   24  F   UNL     1      39.986 -14.278   6.519  1.00  0.00    -0.184 F 
HETATM   25  F   UNL     1      40.179 -13.039   4.748  1.00  0.00    -0.184 F 
ENDBRANCH  22  23
ENDBRANCH  16  22
ENDBRANCH  10  15
BRANCH   8  26
HETATM   26  N   UNL     1      43.182 -13.260   6.575  1.00  0.00    -0.272 NA
HETATM   27  H   UNL     1      42.706 -13.486   7.445  1.00  0.00     0.127 HD
HETATM   28  H   UNL     1      42.828 -12.408   6.163  1.00  0.00     0.127 HD
ENDBRANCH   8  26
TORSDOF 4
ENDMDL
MODEL 6
REMARK VINA RESULT:      -7.3      3.215      4.439
REMARK  4 active torsions:
REMARK  status: ('A' for Active; 'I' for Inactive)
REMARK    1  A    between atoms: C_8  and  N_9 
REMARK    2  A    between atoms: C_11  and  C_12 
REMARK    3  A    between atoms: C_13  and  O_14 
REMARK    4  A    between atoms: O_14  and  C_15 
ROOT
HETATM    1  C   UNL     1      44.441 -20.260   5.757  1.00  0.00     0.002 A 
HETATM    2  C   UNL     1      44.805 -20.113   4.414  1.00  0.00     0.034 A 
HETATM    3  C   UNL     1      44.108 -19.188   3.625  1.00  0.00     0.103 A 
HETATM    4  C   UNL     1      43.079 -18.442   4.192  1.00  0.00     0.083 A 
HETATM    5  N   UNL     1      42.660 -17.651   3.157  1.00  0.00    -0.151 N 
HETATM    6  C   UNL     1      43.366 -17.957   2.022  1.00  0.00     0.734 A 
HETATM    7  N   UNL     1      43.123 -17.375   0.826  1.00  0.00    -0.033 NA
HETATM    8  C   UNL     1      42.179 -16.511   0.734  1.00  0.00     0.193 A 
HETATM    9  N   UNL     1      41.376 -16.099   1.800  1.00  0.00    -0.338 N 
HETATM   10  C   UNL     1      41.611 -16.655   3.130  1.00  0.00     0.246 A 
HETATM   11  N   UNL     1      44.270 -18.871   2.300  1.00  0.00    -0.060 NA
HETATM   12  C   UNL     1      42.694 -18.572   5.531  1.00  0.00     0.033 A 
HETATM   13  C   UNL     1      43.402 -19.501   6.303  1.00  0.00     0.002 A 
HETATM   14  H   UNL     1      40.602 -15.462   1.656  1.00  0.00     0.164 HD
ENDROOT
BRANCH  10  15
HETATM   15  C   UNL     1      41.869 -15.474   4.055  1.00  0.00     0.020 A 
HETATM   16  C   UNL     1      40.920 -14.439   4.161  1.00  0.00     0.085 A 
HETATM   17  C   UNL     1      41.118 -13.354   5.020  1.00  0.00     0.039 A 
HETATM   18  C   UNL     1      42.304 -13.251   5.743  1.00  0.00     0.022 A 
HETATM   19  C   UNL     1      43.280 -14.234   5.610  1.00  0.00     0.011 A 
HETATM   20 BR   UNL     1      44.894 -14.089   6.582  1.00  0.00    -0.051 Br
HETATM   21  C   UNL     1      43.075 -15.332   4.771  1.00  0.00     0.033 A 
BRANCH  16  22
HETATM   22  O   UNL     1      39.748 -14.532   3.456  1.00  0.00    -0.289 OA
BRANCH  22  23
HETATM   23  C   UNL     1      39.462 -13.308   2.780  1.00  0.00     0.505 C 
HETATM   24  F   UNL     1      40.498 -13.060   1.928  1.00  0.00    -0.184 F 
HETATM   25  F   UNL     1      38.381 -13.531   1.998  1.00  0.00    -0.184 F 
ENDBRANCH  22  23
ENDBRANCH  16  22
ENDBRANCH  10  15
BRANCH   8  26
HETATM   26  N   UNL     1      41.852 -15.901  -0.423  1.00  0.00    -0.272 NA
HETATM   27  H   UNL     1      41.373 -15.020  -0.256  1.00  0.00     0.127 HD
HETATM   28  H   UNL     1      41.381 -16.460  -1.121  1.00  0.00     0.127 HD
ENDBRANCH   8  26
TORSDOF 4
ENDMDL
MODEL 7
REMARK VINA RESULT:      -7.1      3.407      4.668
REMARK  4 active torsions:
REMARK  status: ('A' for Active; 'I' for Inactive)
REMARK    1  A    between atoms: C_8  and  N_9 
REMARK    2  A    between atoms: C_11  and  C_12 
REMARK    3  A    between atoms: C_13  and  O_14 
REMARK    4  A    between atoms: O_14  and  C_15 
ROOT
HETATM    1  C   UNL     1      45.088 -20.642   3.713  1.00  0.00     0.002 A 
HETATM    2  C   UNL     1      44.295 -20.457   2.575  1.00  0.00     0.034 A 
HETATM    3  C   UNL     1      43.308 -19.463   2.596  1.00  0.00     0.103 A 
HETATM    4  C   UNL     1      43.144 -18.686   3.738  1.00  0.00     0.083 A 
HETATM    5  N   UNL     1      42.135 -17.829   3.390  1.00  0.00    -0.151 N 
HETATM    6  C   UNL     1      41.687 -18.125   2.128  1.00  0.00     0.734 A 
HETATM    7  N   UNL     1      40.653 -17.479   1.544  1.00  0.00    -0.033 NA
HETATM    8  C   UNL     1      40.041 -16.561   2.201  1.00  0.00     0.193 A 
HETATM    9  N   UNL     1      40.381 -16.152   3.492  1.00  0.00    -0.338 N 
HETATM   10  C   UNL     1      41.516 -16.776   4.167  1.00  0.00     0.246 A 
HETATM   11  N   UNL     1      42.413 -19.098   1.622  1.00  0.00    -0.060 NA
HETATM   12  C   UNL     1      43.921 -18.852   4.889  1.00  0.00     0.033 A 
HETATM   13  C   UNL     1      44.901 -19.851   4.849  1.00  0.00     0.002 A 
HETATM   14  H   UNL     1      39.823 -15.467   3.986  1.00  0.00     0.164 HD
ENDROOT
BRANCH  10  15
HETATM   15  C   UNL     1      42.473 -15.652   4.538  1.00  0.00     0.020 A 
HETATM   16  C   UNL     1      42.989 -14.805   3.538  1.00  0.00     0.085 A 
HETATM   17  C   UNL     1      43.851 -13.750   3.850  1.00  0.00     0.039 A 
HETATM   18  C   UNL     1      44.265 -13.560   5.166  1.00  0.00     0.022 A 
HETATM   19  C   UNL     1      43.811 -14.421   6.162  1.00  0.00     0.011 A 
HETATM   20 BR   UNL     1      44.381 -14.171   7.946  1.00  0.00    -0.051 Br
HETATM   21  C   UNL     1      42.931 -15.462   5.857  1.00  0.00     0.033 A 
BRANCH  16  22
HETATM   22  O   UNL     1      42.587 -14.981   2.239  1.00  0.00    -0.289 OA
BRANCH  22  23
HETATM   23  C   UNL     1      42.209 -13.738   1.650  1.00  0.00     0.505 C 
HETATM   24  F   UNL     1      41.865 -13.988   0.354  1.00  0.00    -0.184 F 
HETATM   25  F   UNL     1      41.074 -13.334   2.266  1.00  0.00    -0.184 F 
ENDBRANCH  22  23
ENDBRANCH  16  22
ENDBRANCH  10  15
BRANCH   8  26
HETATM   26  N   UNL     1      38.985 -15.885   1.706  1.00  0.00    -0.272 NA
HETATM   27  H   UNL     1      38.236 -15.815   2.390  1.00  0.00     0.127 HD
HETATM   28  H   UNL     1      38.641 -16.168   0.799  1.00  0.00     0.127 HD
ENDBRANCH   8  26
TORSDOF 4
ENDMDL
MODEL 8
REMARK VINA RESULT:      -6.9      3.259      4.680
REMARK  4 active torsions:
REMARK  status: ('A' for Active; 'I' for Inactive)
REMARK    1  A    between atoms: C_8  and  N_9 
REMARK    2  A    between atoms: C_11  and  C_12 
REMARK    3  A    between atoms: C_13  and  O_14 
REMARK    4  A    between atoms: O_14  and  C_15 
ROOT
HETATM    1  C   UNL     1      43.397 -18.361   6.695  1.00  0.00     0.002 A 
HETATM    2  C   UNL     1      43.376 -18.466   5.299  1.00  0.00     0.034 A 
HETATM    3  C   UNL     1      42.487 -17.658   4.577  1.00  0.00     0.103 A 
HETATM    4  C   UNL     1      41.655 -16.775   5.260  1.00  0.00     0.083 A 
HETATM    5  N   UNL     1      40.966 -16.155   4.253  1.00  0.00    -0.151 N 
HETATM    6  C   UNL     1      41.330 -16.687   3.043  1.00  0.00     0.734 A 
HETATM    7  N   UNL     1      40.766 -16.308   1.874  1.00  0.00    -0.033 NA
HETATM    8  C   UNL     1      39.833 -15.427   1.889  1.00  0.00     0.193 A 
HETATM    9  N   UNL     1      39.356 -14.799   3.042  1.00  0.00    -0.338 N 
HETATM   10  C   UNL     1      39.949 -15.128   4.335  1.00  0.00     0.246 A 
HETATM   11  N   UNL     1      42.277 -17.582   3.224  1.00  0.00    -0.060 NA
HETATM   12  C   UNL     1      41.656 -16.654   6.653  1.00  0.00     0.033 A 
HETATM   13  C   UNL     1      42.550 -17.470   7.357  1.00  0.00     0.002 A 
HETATM   14  H   UNL     1      38.572 -14.159   3.001  1.00  0.00     0.164 HD
ENDROOT
BRANCH  10  15
HETATM   15  C   UNL     1      40.454 -13.819   4.927  1.00  0.00     0.020 A 
HETATM   16  C   UNL     1      41.592 -13.192   4.386  1.00  0.00     0.085 A 
HETATM   17  C   UNL     1      42.065 -11.978   4.892  1.00  0.00     0.039 A 
HETATM   18  C   UNL     1      41.443 -11.399   5.996  1.00  0.00     0.022 A 
HETATM   19  C   UNL     1      40.350 -12.031   6.582  1.00  0.00     0.011 A 
HETATM   20 BR   UNL     1      39.513 -11.253   8.086  1.00  0.00    -0.051 Br
HETATM   21  C   UNL     1      39.860 -13.232   6.063  1.00  0.00     0.033 A 
BRANCH  16  22
HETATM   22  O   UNL     1      42.210 -13.751   3.298  1.00  0.00    -0.289 OA
BRANCH  22  23
HETATM   23  C   UNL     1      43.608 -13.917   3.534  1.00  0.00     0.505 C 
HETATM   24  F   UNL     1      43.750 -14.480   4.769  1.00  0.00    -0.184 F 
HETATM   25  F   UNL     1      44.053 -14.840   2.651  1.00  0.00    -0.184 F 
ENDBRANCH  22  23
ENDBRANCH  16  22
ENDBRANCH  10  15
BRANCH   8  26
HETATM   26  N   UNL     1      39.199 -15.011   0.775  1.00  0.00    -0.272 NA
HETATM   27  H   UNL     1      38.607 -15.742   0.389  1.00  0.00     0.127 HD
HETATM   28  H   UNL     1      39.763 -14.568   0.062  1.00  0.00     0.127 HD
ENDBRANCH   8  26
TORSDOF 4
ENDMDL
MODEL 9
REMARK VINA RESULT:      -6.7      2.690      3.210
REMARK  4 active torsions:
REMARK  status: ('A' for Active; 'I' for Inactive)
REMARK    1  A    between atoms: C_8  and  N_9 
REMARK    2  A    between atoms: C_11  and  C_12 
REMARK    3  A    between atoms: C_13  and  O_14 
REMARK    4  A    between atoms: O_14  and  C_15 
ROOT
HETATM    1  C   UNL     1      43.706 -18.617   1.816  1.00  0.00     0.002 A 
HETATM    2  C   UNL     1      42.800 -18.738   2.876  1.00  0.00     0.034 A 
HETATM    3  C   UNL     1      42.308 -17.572   3.477  1.00  0.00     0.103 A 
HETATM    4  C   UNL     1      42.726 -16.330   3.006  1.00  0.00     0.083 A 
HETATM    5  N   UNL     1      42.036 -15.450   3.795  1.00  0.00    -0.151 N 
HETATM    6  C   UNL     1      41.295 -16.137   4.722  1.00  0.00     0.734 A 
HETATM    7  N   UNL     1      40.558 -15.523   5.675  1.00  0.00    -0.033 NA
HETATM    8  C   UNL     1      40.563 -14.242   5.737  1.00  0.00     0.193 A 
HETATM    9  N   UNL     1      41.268 -13.409   4.865  1.00  0.00    -0.338 N 
HETATM   10  C   UNL     1      42.051 -14.003   3.784  1.00  0.00     0.246 A 
HETATM   11  N   UNL     1      41.428 -17.430   4.520  1.00  0.00    -0.060 NA
HETATM   12  C   UNL     1      43.632 -16.183   1.951  1.00  0.00     0.033 A 
HETATM   13  C   UNL     1      44.113 -17.360   1.365  1.00  0.00     0.002 A 
HETATM   14  H   UNL     1      41.286 -12.406   5.001  1.00  0.00     0.164 HD
ENDROOT
BRANCH  10  15
HETATM   15  C   UNL     1      41.528 -13.400   2.487  1.00  0.00     0.020 A 
HETATM   16  C   UNL     1      40.209 -13.659   2.070  1.00  0.00     0.085 A 
HETATM   17  C   UNL     1      39.693 -13.101   0.897  1.00  0.00     0.039 A 
HETATM   18  C   UNL     1      40.512 -12.321   0.083  1.00  0.00     0.022 A 
HETATM   19  C   UNL     1      41.836 -12.098   0.449  1.00  0.00     0.011 A 
HETATM   20 BR   UNL     1      42.951 -11.051  -0.660  1.00  0.00    -0.051 Br
HETATM   21  C   UNL     1      42.348 -12.635   1.633  1.00  0.00     0.033 A 
BRANCH  16  22
HETATM   22  O   UNL     1      39.394 -14.423   2.864  1.00  0.00    -0.289 OA
BRANCH  22  23
HETATM   23  C   UNL     1      38.949 -15.587   2.169  1.00  0.00     0.505 C 
HETATM   24  F   UNL     1      37.895 -15.217   1.384  1.00  0.00    -0.184 F 
HETATM   25  F   UNL     1      39.939 -15.944   1.318  1.00  0.00    -0.184 F 
ENDBRANCH  22  23
ENDBRANCH  16  22
ENDBRANCH  10  15
BRANCH   8  26
HETATM   26  N   UNL     1      39.878 -13.550   6.670  1.00  0.00    -0.272 NA
HETATM   27  H   UNL     1      39.565 -12.651   6.310  1.00  0.00     0.127 HD
HETATM   28  H   UNL     1      40.302 -13.462   7.583  1.00  0.00     0.127 HD
ENDBRANCH   8  26
TORSDOF 4
ENDMDL
MODEL 10
REMARK VINA RESULT:      -6.7      4.711      5.942
REMARK  4 active torsions:
REMARK  status: ('A' for Active; 'I' for Inactive)
REMARK    1  A    between atoms: C_8  and  N_9 
REMARK    2  A    between atoms: C_11  and  C_12 
REMARK    3  A    between atoms: C_13  and  O_14 
REMARK    4  A    between atoms: O_14  and  C_15 
ROOT
HETATM    1  C   UNL     1      43.328 -18.616   2.113  1.00  0.00     0.002 A 
HETATM    2  C   UNL     1      42.107 -18.308   2.723  1.00  0.00     0.034 A 
HETATM    3  C   UNL     1      41.571 -17.025   2.546  1.00  0.00     0.103 A 
HETATM    4  C   UNL     1      42.258 -16.097   1.769  1.00  0.00     0.083 A 
HETATM    5  N   UNL     1      41.442 -14.999   1.801  1.00  0.00    -0.151 N 
HETATM    6  C   UNL     1      40.358 -15.247   2.603  1.00  0.00     0.734 A 
HETATM    7  N   UNL     1      39.412 -14.319   2.869  1.00  0.00    -0.033 NA
HETATM    8  C   UNL     1      39.536 -13.143   2.371  1.00  0.00     0.193 A 
HETATM    9  N   UNL     1      40.584 -12.742   1.539  1.00  0.00    -0.338 N 
HETATM   10  C   UNL     1      41.619 -13.706   1.175  1.00  0.00     0.246 A 
HETATM   11  N   UNL     1      40.409 -16.487   3.039  1.00  0.00    -0.060 NA
HETATM   12  C   UNL     1      43.481 -16.379   1.151  1.00  0.00     0.033 A 
HETATM   13  C   UNL     1      44.001 -17.665   1.341  1.00  0.00     0.002 A 
HETATM   14  H   UNL     1      40.665 -11.782   1.227  1.00  0.00     0.164 HD
ENDROOT
BRANCH  10  15
HETATM   15  C   UNL     1      41.641 -13.766  -0.347  1.00  0.00     0.020 A 
HETATM   16  C   UNL     1      42.362 -12.804  -1.080  1.00  0.00     0.085 A 
HETATM   17  C   UNL     1      42.422 -12.847  -2.476  1.00  0.00     0.039 A 
HETATM   18  C   UNL     1      41.705 -13.819  -3.170  1.00  0.00     0.022 A 
HETATM   19  C   UNL     1      40.940 -14.745  -2.466  1.00  0.00     0.011 A 
HETATM   20 BR   UNL     1      39.958 -16.056  -3.407  1.00  0.00    -0.051 Br
HETATM   21  C   UNL     1      40.898 -14.720  -1.071  1.00  0.00     0.033 A 
BRANCH  16  22
HETATM   22  O   UNL     1      43.073 -11.845  -0.407  1.00  0.00    -0.289 OA
BRANCH  22  23
HETATM   23  C   UNL     1      42.689 -10.537  -0.827  1.00  0.00     0.505 C 
HETATM   24  F   UNL     1      42.325  -9.840   0.287  1.00  0.00    -0.184 F 
HETATM   25  F   UNL     1      43.802  -9.929  -1.300  1.00  0.00    -0.184 F 
ENDBRANCH  22  23
ENDBRANCH  16  22
ENDBRANCH  10  15
BRANCH   8  26
HETATM   26  N   UNL     1      38.654 -12.150   2.604  1.00  0.00    -0.272 NA
HETATM   27  H   UNL     1      38.881 -11.318   2.065  1.00  0.00     0.127 HD
HETATM   28  H   UNL     1      38.453 -11.930   3.570  1.00  0.00     0.127 HD
ENDBRANCH   8  26
TORSDOF 4
ENDMDL
