MODEL 1
REMARK VINA RESULT:      -8.2      0.000      0.000
REMARK  4 active torsions:
REMARK  status: ('A' for Active; 'I' for Inactive)
REMARK    1  A    between atoms: C_2  and  O_3 
REMARK    2  A    between atoms: O_3  and  C_4 
REMARK    3  A    between atoms: C_7  and  C_8 
REMARK       I    between atoms: C_8  and  N_9 
REMARK    4  A    between atoms: N_9  and  C_10 
ROOT
HETATM    1  C   UNL     1      42.925 -17.561   4.855  1.00  0.00     0.262 C 
HETATM    2  N   UNL     1      43.897 -18.063   4.007  1.00  0.00    -0.321 N 
HETATM    3  O   UNL     1      41.942 -18.194   5.227  1.00  0.00    -0.267 OA
HETATM    4  H   UNL     1      44.640 -17.431   3.732  1.00  0.00     0.169 HD
ENDROOT
BRANCH   1   5
HETATM    5  C   UNL     1      43.107 -16.157   5.337  1.00  0.00     0.112 A 
HETATM    6  C   UNL     1      44.035 -15.810   6.330  1.00  0.00     0.168 A 
HETATM    7  C   UNL     1      44.175 -14.484   6.766  1.00  0.00     0.108 A 
HETATM    8  F   UNL     1      44.792 -16.772   6.884  1.00  0.00    -0.202 F 
HETATM    9  C   UNL     1      43.364 -13.494   6.208  1.00  0.00     0.043 A 
HETATM   10  C   UNL     1      42.444 -13.818   5.216  1.00  0.00     0.046 A 
HETATM   11  C   UNL     1      42.321 -15.137   4.786  1.00  0.00     0.135 A 
HETATM   12  F   UNL     1      41.407 -15.385   3.839  1.00  0.00    -0.205 F 
BRANCH   7  13
HETATM   13  O   UNL     1      45.029 -14.016   7.727  1.00  0.00    -0.348 OA
BRANCH  13  14
HETATM   14  C   UNL     1      44.665 -12.822   8.418  1.00  0.00     0.171 C 
HETATM   15  C   UNL     1      45.942 -12.070   8.745  1.00  0.00     0.034 C 
ENDBRANCH  13  14
ENDBRANCH   7  13
ENDBRANCH   1   5
BRANCH   2  16
HETATM   16  C   UNL     1      43.994 -19.363   3.460  1.00  0.00     0.064 A 
HETATM   17  C   UNL     1      44.345 -20.544   4.131  1.00  0.00     0.088 A 
HETATM   18  C   UNL     1      44.435 -21.782   3.495  1.00  0.00     0.014 A 
HETATM   19  N   UNL     1      44.666 -20.812   5.438  1.00  0.00    -0.275 N 
HETATM   20  C   UNL     1      44.820 -22.688   4.508  1.00  0.00     0.152 A 
HETATM   21  C   UNL     1      44.161 -21.881   2.120  1.00  0.00     0.015 A 
HETATM   22  N   UNL     1      44.964 -22.100   5.696  1.00  0.00    -0.186 NA
HETATM   23  C   UNL     1      43.804 -20.725   1.426  1.00  0.00     0.003 A 
HETATM   24  C   UNL     1      43.726 -19.496   2.083  1.00  0.00     0.032 A 
HETATM   25  H   UNL     1      44.692 -20.131   6.196  1.00  0.00     0.189 HD
ENDBRANCH   2  16
TORSDOF 4
ENDMDL
MODEL 2
REMARK VINA RESULT:      -7.9      4.109      7.490
REMARK  4 active torsions:
REMARK  status: ('A' for Active; 'I' for Inactive)
REMARK    1  A    between atoms: C_2  and  O_3 
REMARK    2  A    between atoms: O_3  and  C_4 
REMARK    3  A    between atoms: C_7  and  C_8 
REMARK       I    between atoms: C_8  and  N_9 
REMARK    4  A    between atoms: N_9  and  C_10 
ROOT
HETATM    1  C   UNL     1      42.470 -16.252   2.574  1.00  0.00     0.262 C 
HETATM    2  N   UNL     1      41.203 -16.465   2.058  1.00  0.00    -0.321 N 
HETATM    3  O   UNL     1      43.100 -15.208   2.444  1.00  0.00    -0.267 OA
HETATM    4  H   UNL     1      40.800 -17.386   2.190  1.00  0.00     0.169 HD
ENDROOT
BRANCH   1   5
HETATM    5  C   UNL     1      43.088 -17.381   3.336  1.00  0.00     0.112 A 
HETATM    6  C   UNL     1      43.814 -18.408   2.715  1.00  0.00     0.168 A 
HETATM    7  C   UNL     1      44.373 -19.458   3.458  1.00  0.00     0.108 A 
HETATM    8  F   UNL     1      43.962 -18.391   1.380  1.00  0.00    -0.202 F 
HETATM    9  C   UNL     1      44.192 -19.486   4.843  1.00  0.00     0.043 A 
HETATM   10  C   UNL     1      43.481 -18.471   5.477  1.00  0.00     0.046 A 
HETATM   11  C   UNL     1      42.938 -17.430   4.727  1.00  0.00     0.135 A 
HETATM   12  F   UNL     1      42.253 -16.493   5.396  1.00  0.00    -0.205 F 
BRANCH   7  13
HETATM   13  O   UNL     1      45.092 -20.519   2.978  1.00  0.00    -0.348 OA
BRANCH  13  14
HETATM   14  C   UNL     1      44.431 -21.779   2.875  1.00  0.00     0.171 C 
HETATM   15  C   UNL     1      43.980 -21.947   1.435  1.00  0.00     0.034 C 
ENDBRANCH  13  14
ENDBRANCH   7  13
ENDBRANCH   1   5
BRANCH   2  16
HETATM   16  C   UNL     1      40.380 -15.555   1.357  1.00  0.00     0.064 A 
HETATM   17  C   UNL     1      40.702 -14.835   0.197  1.00  0.00     0.088 A 
HETATM   18  C   UNL     1      39.823 -13.939  -0.411  1.00  0.00     0.014 A 
HETATM   19  N   UNL     1      41.827 -14.792  -0.589  1.00  0.00    -0.275 N 
HETATM   20  C   UNL     1      40.530 -13.430  -1.523  1.00  0.00     0.152 A 
HETATM   21  C   UNL     1      38.546 -13.734   0.138  1.00  0.00     0.015 A 
HETATM   22  N   UNL     1      41.754 -13.946  -1.635  1.00  0.00    -0.186 NA
HETATM   23  C   UNL     1      38.193 -14.439   1.288  1.00  0.00     0.003 A 
HETATM   24  C   UNL     1      39.092 -15.327   1.883  1.00  0.00     0.032 A 
HETATM   25  H   UNL     1      42.676 -15.335  -0.442  1.00  0.00     0.189 HD
ENDBRANCH   2  16
TORSDOF 4
ENDMDL
MODEL 3
REMARK VINA RESULT:      -7.6      4.556      7.697
REMARK  4 active torsions:
REMARK  status: ('A' for Active; 'I' for Inactive)
REMARK    1  A    between atoms: C_2  and  O_3 
REMARK    2  A    between atoms: O_3  and  C_4 
REMARK    3  A    between atoms: C_7  and  C_8 
REMARK       I    between atoms: C_8  and  N_9 
REMARK    4  A    between atoms: N_9  and  C_10 
ROOT
HETATM    1  C   UNL     1      41.360 -16.629   1.836  1.00  0.00     0.262 C 
HETATM    2  N   UNL     1      41.984 -15.530   1.272  1.00  0.00    -0.321 N 
HETATM    3  O   UNL     1      40.187 -16.930   1.641  1.00  0.00    -0.267 OA
HETATM    4  H   UNL     1      42.946 -15.356   1.543  1.00  0.00     0.169 HD
ENDROOT
BRANCH   1   5
HETATM    5  C   UNL     1      42.189 -17.490   2.734  1.00  0.00     0.112 A 
HETATM    6  C   UNL     1      43.163 -18.375   2.250  1.00  0.00     0.168 A 
HETATM    7  C   UNL     1      43.918 -19.177   3.120  1.00  0.00     0.108 A 
HETATM    8  F   UNL     1      43.365 -18.466   0.925  1.00  0.00    -0.202 F 
HETATM    9  C   UNL     1      43.683 -19.099   4.495  1.00  0.00     0.043 A 
HETATM   10  C   UNL     1      42.725 -18.222   4.994  1.00  0.00     0.046 A 
HETATM   11  C   UNL     1      41.989 -17.426   4.119  1.00  0.00     0.135 A 
HETATM   12  F   UNL     1      41.074 -16.612   4.662  1.00  0.00    -0.205 F 
BRANCH   7  13
HETATM   13  O   UNL     1      44.887 -20.081   2.779  1.00  0.00    -0.348 OA
BRANCH  13  14
HETATM   14  C   UNL     1      44.558 -21.467   2.853  1.00  0.00     0.171 C 
HETATM   15  C   UNL     1      43.892 -21.853   1.545  1.00  0.00     0.034 C 
ENDBRANCH  13  14
ENDBRANCH   7  13
ENDBRANCH   1   5
BRANCH   2  16
HETATM   16  C   UNL     1      41.453 -14.597   0.353  1.00  0.00     0.064 A 
HETATM   17  C   UNL     1      41.273 -14.771  -1.028  1.00  0.00     0.088 A 
HETATM   18  C   UNL     1      40.757 -13.776  -1.859  1.00  0.00     0.014 A 
HETATM   19  N   UNL     1      41.518 -15.824  -1.873  1.00  0.00    -0.275 N 
HETATM   20  C   UNL     1      40.753 -14.345  -3.152  1.00  0.00     0.152 A 
HETATM   21  C   UNL     1      40.385 -12.536  -1.314  1.00  0.00     0.015 A 
HETATM   22  N   UNL     1      41.218 -15.595  -3.166  1.00  0.00    -0.186 NA
HETATM   23  C   UNL     1      40.546 -12.335   0.057  1.00  0.00     0.003 A 
HETATM   24  C   UNL     1      41.070 -13.343   0.868  1.00  0.00     0.032 A 
HETATM   25  H   UNL     1      41.894 -16.732  -1.599  1.00  0.00     0.189 HD
ENDBRANCH   2  16
TORSDOF 4
ENDMDL
MODEL 4
REMARK VINA RESULT:      -7.6      3.820      5.615
REMARK  4 active torsions:
REMARK  status: ('A' for Active; 'I' for Inactive)
REMARK    1  A    between atoms: C_2  and  O_3 
REMARK    2  A    between atoms: O_3  and  C_4 
REMARK    3  A    between atoms: C_7  and  C_8 
REMARK       I    between atoms: C_8  and  N_9 
REMARK    4  A    between atoms: N_9  and  C_10 
ROOT
HETATM    1  C   UNL     1      43.522 -16.989   2.006  1.00  0.00     0.262 C 
HETATM    2  N   UNL     1      43.133 -17.655   3.155  1.00  0.00    -0.321 N 
HETATM    3  O   UNL     1      44.470 -17.323   1.303  1.00  0.00    -0.267 OA
HETATM    4  H   UNL     1      42.361 -17.259   3.679  1.00  0.00     0.169 HD
ENDROOT
BRANCH   1   5
HETATM    5  C   UNL     1      42.718 -15.790   1.615  1.00  0.00     0.112 A 
HETATM    6  C   UNL     1      41.782 -15.810   0.570  1.00  0.00     0.168 A 
HETATM    7  C   UNL     1      41.051 -14.665   0.223  1.00  0.00     0.108 A 
HETATM    8  F   UNL     1      41.596 -16.948  -0.119  1.00  0.00    -0.202 F 
HETATM    9  C   UNL     1      41.270 -13.477   0.925  1.00  0.00     0.043 A 
HETATM   10  C   UNL     1      42.190 -13.439   1.969  1.00  0.00     0.046 A 
HETATM   11  C   UNL     1      42.903 -14.587   2.308  1.00  0.00     0.135 A 
HETATM   12  F   UNL     1      43.782 -14.480   3.314  1.00  0.00    -0.205 F 
BRANCH   7  13
HETATM   13  O   UNL     1      40.121 -14.549  -0.774  1.00  0.00    -0.348 OA
BRANCH  13  14
HETATM   14  C   UNL     1      40.532 -13.952  -2.002  1.00  0.00     0.171 C 
HETATM   15  C   UNL     1      40.979 -15.068  -2.930  1.00  0.00     0.034 C 
ENDBRANCH  13  14
ENDBRANCH   7  13
ENDBRANCH   1   5
BRANCH   2  16
HETATM   16  C   UNL     1      43.678 -18.836   3.708  1.00  0.00     0.064 A 
HETATM   17  C   UNL     1      43.896 -20.060   3.057  1.00  0.00     0.088 A 
HETATM   18  C   UNL     1      44.422 -21.180   3.699  1.00  0.00     0.014 A 
HETATM   19  N   UNL     1      43.686 -20.477   1.766  1.00  0.00    -0.275 N 
HETATM   20  C   UNL     1      44.468 -22.184   2.706  1.00  0.00     0.152 A 
HETATM   21  C   UNL     1      44.765 -21.107   5.060  1.00  0.00     0.015 A 
HETATM   22  N   UNL     1      44.018 -21.760   1.525  1.00  0.00    -0.186 NA
HETATM   23  C   UNL     1      44.565 -19.903   5.734  1.00  0.00     0.003 A 
HETATM   24  C   UNL     1      44.032 -18.796   5.072  1.00  0.00     0.032 A 
HETATM   25  H   UNL     1      43.315 -19.905   1.009  1.00  0.00     0.189 HD
ENDBRANCH   2  16
TORSDOF 4
ENDMDL
MODEL 5
REMARK VINA RESULT:      -7.6      4.070      6.949
REMARK  4 active torsions:
REMARK  status: ('A' for Active; 'I' for Inactive)
REMARK    1  A    between atoms: C_2  and  O_3 
REMARK    2  A    between atoms: O_3  and  C_4 
REMARK    3  A    between atoms: C_7  and  C_8 
REMARK       I    between atoms: C_8  and  N_9 
REMARK    4  A    between atoms: N_9  and  C_10 
ROOT
HETATM    1  C   UNL     1      42.904 -16.815   2.254  1.00  0.00     0.262 C 
HETATM    2  N   UNL     1      41.566 -16.940   1.924  1.00  0.00    -0.321 N 
HETATM    3  O   UNL     1      43.572 -15.807   2.049  1.00  0.00    -0.267 OA
HETATM    4  H   UNL     1      41.130 -17.839   2.100  1.00  0.00     0.169 HD
ENDROOT
BRANCH   1   5
HETATM    5  C   UNL     1      43.554 -17.995   2.904  1.00  0.00     0.112 A 
HETATM    6  C   UNL     1      43.818 -18.054   4.280  1.00  0.00     0.168 A 
HETATM    7  C   UNL     1      44.438 -19.172   4.857  1.00  0.00     0.108 A 
HETATM    8  F   UNL     1      43.482 -17.010   5.057  1.00  0.00    -0.202 F 
HETATM    9  C   UNL     1      44.811 -20.242   4.040  1.00  0.00     0.043 A 
HETATM   10  C   UNL     1      44.551 -20.204   2.674  1.00  0.00     0.046 A 
HETATM   11  C   UNL     1      43.927 -19.091   2.116  1.00  0.00     0.135 A 
HETATM   12  F   UNL     1      43.717 -19.111   0.793  1.00  0.00    -0.205 F 
BRANCH   7  13
HETATM   13  O   UNL     1      44.757 -19.352   6.176  1.00  0.00    -0.348 OA
BRANCH  13  14
HETATM   14  C   UNL     1      43.696 -19.634   7.085  1.00  0.00     0.171 C 
HETATM   15  C   UNL     1      43.634 -21.139   7.270  1.00  0.00     0.034 C 
ENDBRANCH  13  14
ENDBRANCH   7  13
ENDBRANCH   1   5
BRANCH   2  16
HETATM   16  C   UNL     1      40.709 -15.968   1.362  1.00  0.00     0.064 A 
HETATM   17  C   UNL     1      40.914 -15.230   0.186  1.00  0.00     0.088 A 
HETATM   18  C   UNL     1      40.013 -14.272  -0.278  1.00  0.00     0.014 A 
HETATM   19  N   UNL     1      41.925 -15.222  -0.743  1.00  0.00    -0.275 N 
HETATM   20  C   UNL     1      40.593 -13.766  -1.463  1.00  0.00     0.152 A 
HETATM   21  C   UNL     1      38.834 -14.017   0.443  1.00  0.00     0.015 A 
HETATM   22  N   UNL     1      41.761 -14.342  -1.750  1.00  0.00    -0.186 NA
HETATM   23  C   UNL     1      38.598 -14.738   1.613  1.00  0.00     0.003 A 
HETATM   24  C   UNL     1      39.517 -15.689   2.060  1.00  0.00     0.032 A 
HETATM   25  H   UNL     1      42.755 -15.813  -0.724  1.00  0.00     0.189 HD
ENDBRANCH   2  16
TORSDOF 4
ENDMDL
MODEL 6
REMARK VINA RESULT:      -7.5      3.315      7.190
REMARK  4 active torsions:
REMARK  status: ('A' for Active; 'I' for Inactive)
REMARK    1  A    between atoms: C_2  and  O_3 
REMARK    2  A    between atoms: O_3  and  C_4 
REMARK    3  A    between atoms: C_7  and  C_8 
REMARK       I    between atoms: C_8  and  N_9 
REMARK    4  A    between atoms: N_9  and  C_10 
ROOT
HETATM    1  C   UNL     1      42.841 -16.781   4.660  1.00  0.00     0.262 C 
HETATM    2  N   UNL     1      41.642 -16.756   3.969  1.00  0.00    -0.321 N 
HETATM    3  O   UNL     1      43.456 -15.779   5.008  1.00  0.00    -0.267 OA
HETATM    4  H   UNL     1      41.249 -17.650   3.694  1.00  0.00     0.169 HD
ENDROOT
BRANCH   1   5
HETATM    5  C   UNL     1      43.400 -18.127   4.995  1.00  0.00     0.112 A 
HETATM    6  C   UNL     1      44.045 -18.938   4.049  1.00  0.00     0.168 A 
HETATM    7  C   UNL     1      44.550 -20.200   4.394  1.00  0.00     0.108 A 
HETATM    8  F   UNL     1      44.166 -18.500   2.785  1.00  0.00    -0.202 F 
HETATM    9  C   UNL     1      44.396 -20.662   5.703  1.00  0.00     0.043 A 
HETATM   10  C   UNL     1      43.765 -19.869   6.657  1.00  0.00     0.046 A 
HETATM   11  C   UNL     1      43.275 -18.614   6.302  1.00  0.00     0.135 A 
HETATM   12  F   UNL     1      42.667 -17.905   7.263  1.00  0.00    -0.205 F 
BRANCH   7  13
HETATM   13  O   UNL     1      45.189 -21.088   3.571  1.00  0.00    -0.348 OA
BRANCH  13  14
HETATM   14  C   UNL     1      44.432 -22.184   3.061  1.00  0.00     0.171 C 
HETATM   15  C   UNL     1      44.032 -21.845   1.637  1.00  0.00     0.034 C 
ENDBRANCH  13  14
ENDBRANCH   7  13
ENDBRANCH   1   5
BRANCH   2  16
HETATM   16  C   UNL     1      40.877 -15.632   3.584  1.00  0.00     0.064 A 
HETATM   17  C   UNL     1      40.473 -14.559   4.393  1.00  0.00     0.088 A 
HETATM   18  C   UNL     1      39.697 -13.501   3.922  1.00  0.00     0.014 A 
HETATM   19  N   UNL     1      40.684 -14.261   5.716  1.00  0.00    -0.275 N 
HETATM   20  C   UNL     1      39.508 -12.658   5.040  1.00  0.00     0.152 A 
HETATM   21  C   UNL     1      39.292 -13.478   2.577  1.00  0.00     0.015 A 
HETATM   22  N   UNL     1      40.108 -13.119   6.139  1.00  0.00    -0.186 NA
HETATM   23  C   UNL     1      39.682 -14.527   1.745  1.00  0.00     0.003 A 
HETATM   24  C   UNL     1      40.454 -15.579   2.241  1.00  0.00     0.032 A 
HETATM   25  H   UNL     1      41.227 -14.821   6.373  1.00  0.00     0.189 HD
ENDBRANCH   2  16
TORSDOF 4
ENDMDL
MODEL 7
REMARK VINA RESULT:      -7.4      4.805      6.879
REMARK  4 active torsions:
REMARK  status: ('A' for Active; 'I' for Inactive)
REMARK    1  A    between atoms: C_2  and  O_3 
REMARK    2  A    between atoms: O_3  and  C_4 
REMARK    3  A    between atoms: C_7  and  C_8 
REMARK       I    between atoms: C_8  and  N_9 
REMARK    4  A    between atoms: N_9  and  C_10 
ROOT
HETATM    1  C   UNL     1      41.517 -15.633   1.609  1.00  0.00     0.262 C 
HETATM    2  N   UNL     1      41.431 -16.989   1.874  1.00  0.00    -0.321 N 
HETATM    3  O   UNL     1      42.461 -14.925   1.943  1.00  0.00    -0.267 OA
HETATM    4  H   UNL     1      40.580 -17.461   1.589  1.00  0.00     0.169 HD
ENDROOT
BRANCH   1   5
HETATM    5  C   UNL     1      40.376 -15.015   0.866  1.00  0.00     0.112 A 
HETATM    6  C   UNL     1      40.431 -14.722  -0.505  1.00  0.00     0.168 A 
HETATM    7  C   UNL     1      39.346 -14.134  -1.170  1.00  0.00     0.108 A 
HETATM    8  F   UNL     1      41.555 -14.999  -1.188  1.00  0.00    -0.202 F 
HETATM    9  C   UNL     1      38.192 -13.822  -0.448  1.00  0.00     0.043 A 
HETATM   10  C   UNL     1      38.115 -14.111   0.911  1.00  0.00     0.046 A 
HETATM   11  C   UNL     1      39.198 -14.703   1.557  1.00  0.00     0.135 A 
HETATM   12  F   UNL     1      39.065 -14.944   2.868  1.00  0.00    -0.205 F 
BRANCH   7  13
HETATM   13  O   UNL     1      39.274 -13.792  -2.493  1.00  0.00    -0.348 OA
BRANCH  13  14
HETATM   14  C   UNL     1      38.418 -14.562  -3.334  1.00  0.00     0.171 C 
HETATM   15  C   UNL     1      39.238 -15.704  -3.906  1.00  0.00     0.034 C 
ENDBRANCH  13  14
ENDBRANCH   7  13
ENDBRANCH   1   5
BRANCH   2  16
HETATM   16  C   UNL     1      42.386 -17.820   2.501  1.00  0.00     0.064 A 
HETATM   17  C   UNL     1      42.987 -17.630   3.754  1.00  0.00     0.088 A 
HETATM   18  C   UNL     1      43.941 -18.502   4.280  1.00  0.00     0.014 A 
HETATM   19  N   UNL     1      42.845 -16.663   4.717  1.00  0.00    -0.275 N 
HETATM   20  C   UNL     1      44.290 -17.950   5.533  1.00  0.00     0.152 A 
HETATM   21  C   UNL     1      44.332 -19.633   3.545  1.00  0.00     0.015 A 
HETATM   22  N   UNL     1      43.625 -16.826   5.803  1.00  0.00    -0.186 NA
HETATM   23  C   UNL     1      43.749 -19.852   2.297  1.00  0.00     0.003 A 
HETATM   24  C   UNL     1      42.800 -18.963   1.789  1.00  0.00     0.032 A 
HETATM   25  H   UNL     1      42.214 -15.864   4.670  1.00  0.00     0.189 HD
ENDBRANCH   2  16
TORSDOF 4
ENDMDL
MODEL 8
REMARK VINA RESULT:      -7.3      4.617      7.192
REMARK  4 active torsions:
REMARK  status: ('A' for Active; 'I' for Inactive)
REMARK    1  A    between atoms: C_2  and  O_3 
REMARK    2  A    between atoms: O_3  and  C_4 
REMARK    3  A    between atoms: C_7  and  C_8 
REMARK       I    between atoms: C_8  and  N_9 
REMARK    4  A    between atoms: N_9  and  C_10 
ROOT
HETATM    1  C   UNL     1      41.405 -16.804   1.636  1.00  0.00     0.262 C 
HETATM    2  N   UNL     1      41.936 -15.644   1.099  1.00  0.00    -0.321 N 
HETATM    3  O   UNL     1      40.238 -17.155   1.500  1.00  0.00    -0.267 OA
HETATM    4  H   UNL     1      42.904 -15.436   1.317  1.00  0.00     0.169 HD
ENDROOT
BRANCH   1   5
HETATM    5  C   UNL     1      42.334 -17.670   2.427  1.00  0.00     0.112 A 
HETATM    6  C   UNL     1      42.183 -17.885   3.805  1.00  0.00     0.168 A 
HETATM    7  C   UNL     1      43.078 -18.695   4.519  1.00  0.00     0.108 A 
HETATM    8  F   UNL     1      41.169 -17.288   4.453  1.00  0.00    -0.202 F 
HETATM    9  C   UNL     1      44.148 -19.289   3.844  1.00  0.00     0.043 A 
HETATM   10  C   UNL     1      44.309 -19.093   2.476  1.00  0.00     0.046 A 
HETATM   11  C   UNL     1      43.408 -18.292   1.778  1.00  0.00     0.135 A 
HETATM   12  F   UNL     1      43.627 -18.133   0.466  1.00  0.00    -0.205 F 
BRANCH   7  13
HETATM   13  O   UNL     1      43.050 -18.978   5.857  1.00  0.00    -0.348 OA
BRANCH  13  14
HETATM   14  C   UNL     1      43.811 -18.146   6.730  1.00  0.00     0.171 C 
HETATM   15  C   UNL     1      42.835 -17.362   7.589  1.00  0.00     0.034 C 
ENDBRANCH  13  14
ENDBRANCH   7  13
ENDBRANCH   1   5
BRANCH   2  16
HETATM   16  C   UNL     1      41.299 -14.691   0.273  1.00  0.00     0.064 A 
HETATM   17  C   UNL     1      41.178 -14.721  -1.125  1.00  0.00     0.088 A 
HETATM   18  C   UNL     1      40.545 -13.715  -1.855  1.00  0.00     0.014 A 
HETATM   19  N   UNL     1      41.590 -15.621  -2.075  1.00  0.00    -0.275 N 
HETATM   20  C   UNL     1      40.652 -14.120  -3.205  1.00  0.00     0.152 A 
HETATM   21  C   UNL     1      39.988 -12.613  -1.186  1.00  0.00     0.015 A 
HETATM   22  N   UNL     1      41.291 -15.283  -3.344  1.00  0.00    -0.186 NA
HETATM   23  C   UNL     1      40.086 -12.557   0.204  1.00  0.00     0.003 A 
HETATM   24  C   UNL     1      40.729 -13.573   0.913  1.00  0.00     0.032 A 
HETATM   25  H   UNL     1      42.085 -16.494  -1.893  1.00  0.00     0.189 HD
ENDBRANCH   2  16
TORSDOF 4
ENDMDL
MODEL 9
REMARK VINA RESULT:      -7.3      3.875      5.669
REMARK  4 active torsions:
REMARK  status: ('A' for Active; 'I' for Inactive)
REMARK    1  A    between atoms: C_2  and  O_3 
REMARK    2  A    between atoms: O_3  and  C_4 
REMARK    3  A    between atoms: C_7  and  C_8 
REMARK       I    between atoms: C_8  and  N_9 
REMARK    4  A    between atoms: N_9  and  C_10 
ROOT
HETATM    1  C   UNL     1      42.654 -16.516   2.502  1.00  0.00     0.262 C 
HETATM    2  N   UNL     1      42.378 -17.772   3.015  1.00  0.00    -0.321 N 
HETATM    3  O   UNL     1      43.778 -16.029   2.443  1.00  0.00    -0.267 OA
HETATM    4  H   UNL     1      41.403 -18.049   3.054  1.00  0.00     0.169 HD
ENDROOT
BRANCH   1   5
HETATM    5  C   UNL     1      41.494 -15.723   1.992  1.00  0.00     0.112 A 
HETATM    6  C   UNL     1      41.255 -15.522   0.624  1.00  0.00     0.168 A 
HETATM    7  C   UNL     1      40.161 -14.765   0.178  1.00  0.00     0.108 A 
HETATM    8  F   UNL     1      42.101 -16.054  -0.274  1.00  0.00    -0.202 F 
HETATM    9  C   UNL     1      39.302 -14.190   1.117  1.00  0.00     0.043 A 
HETATM   10  C   UNL     1      39.519 -14.385   2.478  1.00  0.00     0.046 A 
HETATM   11  C   UNL     1      40.604 -15.146   2.906  1.00  0.00     0.135 A 
HETATM   12  F   UNL     1      40.765 -15.284   4.229  1.00  0.00    -0.205 F 
BRANCH   7  13
HETATM   13  O   UNL     1      39.822 -14.487  -1.118  1.00  0.00    -0.348 OA
BRANCH  13  14
HETATM   14  C   UNL     1      40.685 -13.629  -1.863  1.00  0.00     0.171 C 
HETATM   15  C   UNL     1      41.191 -14.412  -3.061  1.00  0.00     0.034 C 
ENDBRANCH  13  14
ENDBRANCH   7  13
ENDBRANCH   1   5
BRANCH   2  16
HETATM   16  C   UNL     1      43.287 -18.737   3.503  1.00  0.00     0.064 A 
HETATM   17  C   UNL     1      43.626 -19.963   2.911  1.00  0.00     0.088 A 
HETATM   18  C   UNL     1      44.524 -20.863   3.485  1.00  0.00     0.014 A 
HETATM   19  N   UNL     1      43.233 -20.574   1.746  1.00  0.00    -0.275 N 
HETATM   20  C   UNL     1      44.573 -21.954   2.589  1.00  0.00     0.152 A 
HETATM   21  C   UNL     1      45.136 -20.550   4.710  1.00  0.00     0.015 A 
HETATM   22  N   UNL     1      43.785 -21.783   1.526  1.00  0.00    -0.186 NA
HETATM   23  C   UNL     1      44.824 -19.336   5.321  1.00  0.00     0.003 A 
HETATM   24  C   UNL     1      43.918 -18.454   4.730  1.00  0.00     0.032 A 
HETATM   25  H   UNL     1      42.581 -20.190   1.063  1.00  0.00     0.189 HD
ENDBRANCH   2  16
TORSDOF 4
ENDMDL
MODEL 10
REMARK VINA RESULT:      -7.2      4.500      7.629
REMARK  4 active torsions:
REMARK  status: ('A' for Active; 'I' for Inactive)
REMARK    1  A    between atoms: C_2  and  O_3 
REMARK    2  A    between atoms: O_3  and  C_4 
REMARK    3  A    between atoms: C_7  and  C_8 
REMARK       I    between atoms: C_8  and  N_9 
REMARK    4  A    between atoms: N_9  and  C_10 
ROOT
HETATM    1  C   UNL     1      41.159 -16.949   1.993  1.00  0.00     0.262 C 
HETATM    2  N   UNL     1      41.749 -16.043   1.128  1.00  0.00    -0.321 N 
HETATM    3  O   UNL     1      39.955 -17.174   2.038  1.00  0.00    -0.267 OA
HETATM    4  H   UNL     1      42.751 -15.909   1.214  1.00  0.00     0.169 HD
ENDROOT
BRANCH   1   5
HETATM    5  C   UNL     1      42.070 -17.691   2.919  1.00  0.00     0.112 A 
HETATM    6  C   UNL     1      43.047 -18.589   2.465  1.00  0.00     0.168 A 
HETATM    7  C   UNL     1      43.879 -19.276   3.361  1.00  0.00     0.108 A 
HETATM    8  F   UNL     1      43.176 -18.804   1.145  1.00  0.00    -0.202 F 
HETATM    9  C   UNL     1      43.720 -19.070   4.734  1.00  0.00     0.043 A 
HETATM   10  C   UNL     1      42.761 -18.177   5.202  1.00  0.00     0.046 A 
HETATM   11  C   UNL     1      41.947 -17.496   4.300  1.00  0.00     0.135 A 
HETATM   12  F   UNL     1      41.035 -16.661   4.816  1.00  0.00    -0.205 F 
BRANCH   7  13
HETATM   13  O   UNL     1      44.859 -20.180   3.053  1.00  0.00    -0.348 OA
BRANCH  13  14
HETATM   14  C   UNL     1      44.518 -21.564   3.070  1.00  0.00     0.171 C 
HETATM   15  C   UNL     1      44.208 -21.981   1.644  1.00  0.00     0.034 C 
ENDBRANCH  13  14
ENDBRANCH   7  13
ENDBRANCH   1   5
BRANCH   2  16
HETATM   16  C   UNL     1      41.133 -15.264   0.123  1.00  0.00     0.064 A 
HETATM   17  C   UNL     1      40.435 -14.058   0.290  1.00  0.00     0.088 A 
HETATM   18  C   UNL     1      39.839 -13.371  -0.768  1.00  0.00     0.014 A 
HETATM   19  N   UNL     1      40.157 -13.288   1.392  1.00  0.00    -0.275 N 
HETATM   20  C   UNL     1      39.243 -12.235  -0.178  1.00  0.00     0.152 A 
HETATM   21  C   UNL     1      39.933 -13.885  -2.073  1.00  0.00     0.015 A 
HETATM   22  N   UNL     1      39.433 -12.181   1.141  1.00  0.00    -0.186 NA
HETATM   23  C   UNL     1      40.625 -15.079  -2.272  1.00  0.00     0.003 A 
HETATM   24  C   UNL     1      41.208 -15.752  -1.197  1.00  0.00     0.032 A 
HETATM   25  H   UNL     1      40.453 -13.488   2.347  1.00  0.00     0.189 HD
ENDBRANCH   2  16
TORSDOF 4
ENDMDL
