MODEL 1
REMARK VINA RESULT:      -9.0      0.000      0.000
REMARK  4 active torsions:
REMARK  status: ('A' for Active; 'I' for Inactive)
REMARK    1  A    between atoms: C_7  and  C_8 
REMARK    2  A    between atoms: C_11  and  O_12 
REMARK    3  A    between atoms: C_17  and  C_18 
REMARK    4  A    between atoms: C_25  and  C_26 
REMARK       I    between atoms: C_26  and  N_27 
ROOT
HETATM    1  C   UNL     1      40.659 -16.995   6.766  1.00  0.00     0.070 C 
HETATM    2  C   UNL     1      41.360 -16.961   5.430  1.00  0.00     0.037 C 
HETATM    3  N   UNL     1      40.579 -16.547   4.351  1.00  0.00    -0.192 N 
HETATM    4  C   UNL     1      41.101 -16.257   3.143  1.00  0.00     0.726 A 
HETATM    5  N   UNL     1      42.407 -16.560   2.896  1.00  0.00    -0.083 N 
HETATM    6  N   UNL     1      42.803 -16.119   1.689  1.00  0.00    -0.135 NA
HETATM    7  C   UNL     1      41.654 -15.611   1.206  1.00  0.00     0.199 A 
HETATM    8  N   UNL     1      40.588 -15.677   2.091  1.00  0.00    -0.041 NA
HETATM    9  C   UNL     1      43.273 -17.272   3.839  1.00  0.00     0.202 C 
HETATM   10  C   UNL     1      42.663 -17.301   5.238  1.00  0.00     0.062 C 
HETATM   11  H   UNL     1      39.644 -16.208   4.560  1.00  0.00     0.184 HD
ENDROOT
BRANCH   7  12
HETATM   12  C   UNL     1      41.519 -15.038  -0.131  1.00  0.00     0.014 A 
HETATM   13  C   UNL     1      41.797 -13.684  -0.367  1.00  0.00     0.018 A 
HETATM   14  C   UNL     1      41.680 -13.150  -1.653  1.00  0.00     0.037 A 
HETATM   15  C   UNL     1      41.289 -13.953  -2.726  1.00  0.00     0.068 A 
HETATM   16  C   UNL     1      41.003 -15.298  -2.499  1.00  0.00     0.037 A 
HETATM   17  C   UNL     1      41.116 -15.836  -1.210  1.00  0.00     0.018 A 
BRANCH  15  18
HETATM   18  O   UNL     1      41.223 -13.307  -3.930  1.00  0.00    -0.356 OA
HETATM   19  C   UNL     1      41.249 -11.886  -3.897  1.00  0.00     0.210 C 
ENDBRANCH  15  18
ENDBRANCH   7  12
BRANCH   9  20
HETATM   20  C   UNL     1      43.576 -18.660   3.263  1.00  0.00    -0.028 A 
HETATM   21  C   UNL     1      44.647 -19.409   3.786  1.00  0.00     0.012 A 
HETATM   22  C   UNL     1      44.951 -20.670   3.270  1.00  0.00     0.043 A 
HETATM   23  C   UNL     1      44.192 -21.186   2.227  1.00  0.00     0.116 A 
HETATM   24  F   UNL     1      44.485 -22.396   1.735  1.00  0.00    -0.206 F 
HETATM   25  C   UNL     1      43.140 -20.462   1.684  1.00  0.00     0.043 A 
HETATM   26  C   UNL     1      42.834 -19.199   2.194  1.00  0.00     0.012 A 
ENDBRANCH   9  20
BRANCH  10  27
HETATM   27  C   UNL     1      43.566 -17.542   6.395  1.00  0.00     0.249 C 
HETATM   28  N   UNL     1      44.332 -16.504   6.817  1.00  0.00    -0.366 N 
HETATM   29  H   UNL     1      44.473 -15.640   6.313  1.00  0.00     0.159 HD
HETATM   30  H   UNL     1      44.972 -16.700   7.578  1.00  0.00     0.159 HD
HETATM   31  O   UNL     1      43.616 -18.614   6.986  1.00  0.00    -0.268 OA
ENDBRANCH  10  27
TORSDOF 4
ENDMDL
MODEL 2
REMARK VINA RESULT:      -8.9      3.294      7.696
REMARK  4 active torsions:
REMARK  status: ('A' for Active; 'I' for Inactive)
REMARK    1  A    between atoms: C_7  and  C_8 
REMARK    2  A    between atoms: C_11  and  O_12 
REMARK    3  A    between atoms: C_17  and  C_18 
REMARK    4  A    between atoms: C_25  and  C_26 
REMARK       I    between atoms: C_26  and  N_27 
ROOT
HETATM    1  C   UNL     1      40.243 -13.485  -1.275  1.00  0.00     0.070 C 
HETATM    2  C   UNL     1      40.977 -14.091  -0.104  1.00  0.00     0.037 C 
HETATM    3  N   UNL     1      40.921 -15.482  -0.012  1.00  0.00    -0.192 N 
HETATM    4  C   UNL     1      41.692 -16.186   0.839  1.00  0.00     0.726 A 
HETATM    5  N   UNL     1      42.414 -15.521   1.784  1.00  0.00    -0.083 N 
HETATM    6  N   UNL     1      43.205 -16.352   2.486  1.00  0.00    -0.135 NA
HETATM    7  C   UNL     1      42.861 -17.545   1.963  1.00  0.00     0.199 A 
HETATM    8  N   UNL     1      41.932 -17.466   0.936  1.00  0.00    -0.041 NA
HETATM    9  C   UNL     1      42.341 -14.074   2.000  1.00  0.00     0.202 C 
HETATM   10  C   UNL     1      41.661 -13.373   0.827  1.00  0.00     0.062 C 
HETATM   11  H   UNL     1      40.484 -15.978  -0.784  1.00  0.00     0.184 HD
ENDROOT
BRANCH   7  12
HETATM   12  C   UNL     1      43.405 -18.819   2.424  1.00  0.00     0.014 A 
HETATM   13  C   UNL     1      44.023 -18.929   3.678  1.00  0.00     0.018 A 
HETATM   14  C   UNL     1      44.528 -20.156   4.116  1.00  0.00     0.037 A 
HETATM   15  C   UNL     1      44.421 -21.296   3.317  1.00  0.00     0.068 A 
HETATM   16  C   UNL     1      43.816 -21.196   2.065  1.00  0.00     0.037 A 
HETATM   17  C   UNL     1      43.312 -19.965   1.622  1.00  0.00     0.018 A 
BRANCH  15  18
HETATM   18  O   UNL     1      44.947 -22.432   3.869  1.00  0.00    -0.356 OA
HETATM   19  C   UNL     1      45.164 -22.421   5.274  1.00  0.00     0.210 C 
ENDBRANCH  15  18
ENDBRANCH   7  12
BRANCH   9  20
HETATM   20  C   UNL     1      41.664 -13.822   3.353  1.00  0.00    -0.028 A 
HETATM   21  C   UNL     1      40.394 -14.373   3.605  1.00  0.00     0.012 A 
HETATM   22  C   UNL     1      39.750 -14.147   4.823  1.00  0.00     0.043 A 
HETATM   23  C   UNL     1      40.368 -13.367   5.791  1.00  0.00     0.116 A 
HETATM   24  F   UNL     1      39.750 -13.153   6.960  1.00  0.00    -0.206 F 
HETATM   25  C   UNL     1      41.615 -12.800   5.562  1.00  0.00     0.043 A 
HETATM   26  C   UNL     1      42.260 -13.019   4.345  1.00  0.00     0.012 A 
ENDBRANCH   9  20
BRANCH  10  27
HETATM   27  C   UNL     1      41.910 -11.919   0.636  1.00  0.00     0.249 C 
HETATM   28  N   UNL     1      41.058 -11.054   1.241  1.00  0.00    -0.366 N 
HETATM   29  H   UNL     1      40.175 -11.303   1.662  1.00  0.00     0.159 HD
HETATM   30  H   UNL     1      41.219 -10.069   1.063  1.00  0.00     0.159 HD
HETATM   31  O   UNL     1      42.858 -11.487  -0.009  1.00  0.00    -0.268 OA
ENDBRANCH  10  27
TORSDOF 4
ENDMDL
MODEL 3
REMARK VINA RESULT:      -8.6      3.929      7.938
REMARK  4 active torsions:
REMARK  status: ('A' for Active; 'I' for Inactive)
REMARK    1  A    between atoms: C_7  and  C_8 
REMARK    2  A    between atoms: C_11  and  O_12 
REMARK    3  A    between atoms: C_17  and  C_18 
REMARK    4  A    between atoms: C_25  and  C_26 
REMARK       I    between atoms: C_26  and  N_27 
ROOT
HETATM    1  C   UNL     1      37.241 -14.042   0.621  1.00  0.00     0.070 C 
HETATM    2  C   UNL     1      38.535 -14.239   1.374  1.00  0.00     0.037 C 
HETATM    3  N   UNL     1      38.809 -15.549   1.766  1.00  0.00    -0.192 N 
HETATM    4  C   UNL     1      40.008 -15.928   2.250  1.00  0.00     0.726 A 
HETATM    5  N   UNL     1      40.931 -14.972   2.555  1.00  0.00    -0.083 N 
HETATM    6  N   UNL     1      42.105 -15.512   2.929  1.00  0.00    -0.135 NA
HETATM    7  C   UNL     1      41.809 -16.826   2.903  1.00  0.00     0.199 A 
HETATM    8  N   UNL     1      40.519 -17.108   2.479  1.00  0.00    -0.041 NA
HETATM    9  C   UNL     1      40.674 -13.532   2.475  1.00  0.00     0.202 C 
HETATM   10  C   UNL     1      39.407 -13.240   1.675  1.00  0.00     0.062 C 
HETATM   11  H   UNL     1      38.178 -16.273   1.432  1.00  0.00     0.184 HD
ENDROOT
BRANCH   7  12
HETATM   12  C   UNL     1      42.749 -17.876   3.288  1.00  0.00     0.014 A 
HETATM   13  C   UNL     1      43.197 -17.993   4.611  1.00  0.00     0.018 A 
HETATM   14  C   UNL     1      44.086 -19.010   4.972  1.00  0.00     0.037 A 
HETATM   15  C   UNL     1      44.537 -19.930   4.024  1.00  0.00     0.068 A 
HETATM   16  C   UNL     1      44.103 -19.817   2.704  1.00  0.00     0.037 A 
HETATM   17  C   UNL     1      43.215 -18.796   2.340  1.00  0.00     0.018 A 
BRANCH  15  18
HETATM   18  O   UNL     1      45.395 -20.878   4.512  1.00  0.00    -0.356 OA
HETATM   19  C   UNL     1      44.814 -21.960   5.228  1.00  0.00     0.210 C 
ENDBRANCH  15  18
ENDBRANCH   7  12
BRANCH   9  20
HETATM   20  C   UNL     1      40.654 -12.966   3.900  1.00  0.00    -0.028 A 
HETATM   21  C   UNL     1      41.493 -11.883   4.226  1.00  0.00     0.012 A 
HETATM   22  C   UNL     1      41.503 -11.358   5.519  1.00  0.00     0.043 A 
HETATM   23  C   UNL     1      40.682 -11.912   6.492  1.00  0.00     0.116 A 
HETATM   24  F   UNL     1      40.693 -11.405   7.731  1.00  0.00    -0.206 F 
HETATM   25  C   UNL     1      39.856 -12.989   6.200  1.00  0.00     0.043 A 
HETATM   26  C   UNL     1      39.845 -13.521   4.910  1.00  0.00     0.012 A 
ENDBRANCH   9  20
BRANCH  10  27
HETATM   27  C   UNL     1      39.242 -11.882   1.090  1.00  0.00     0.249 C 
HETATM   28  N   UNL     1      38.569 -10.962   1.826  1.00  0.00    -0.366 N 
HETATM   29  H   UNL     1      38.023 -11.161   2.651  1.00  0.00     0.159 HD
HETATM   30  H   UNL     1      38.429 -10.057   1.391  1.00  0.00     0.159 HD
HETATM   31  O   UNL     1      39.712 -11.566   0.003  1.00  0.00    -0.268 OA
ENDBRANCH  10  27
TORSDOF 4
ENDMDL
MODEL 4
REMARK VINA RESULT:      -8.6      4.030      7.308
REMARK  4 active torsions:
REMARK  status: ('A' for Active; 'I' for Inactive)
REMARK    1  A    between atoms: C_7  and  C_8 
REMARK    2  A    between atoms: C_11  and  O_12 
REMARK    3  A    between atoms: C_17  and  C_18 
REMARK    4  A    between atoms: C_25  and  C_26 
REMARK       I    between atoms: C_26  and  N_27 
ROOT
HETATM    1  C   UNL     1      41.523 -10.715   4.952  1.00  0.00     0.070 C 
HETATM    2  C   UNL     1      41.246 -12.062   4.328  1.00  0.00     0.037 C 
HETATM    3  N   UNL     1      42.359 -12.884   4.152  1.00  0.00    -0.192 N 
HETATM    4  C   UNL     1      42.258 -14.183   3.813  1.00  0.00     0.726 A 
HETATM    5  N   UNL     1      41.045 -14.677   3.437  1.00  0.00    -0.083 N 
HETATM    6  N   UNL     1      41.088 -16.005   3.228  1.00  0.00    -0.135 NA
HETATM    7  C   UNL     1      42.396 -16.259   3.425  1.00  0.00     0.199 A 
HETATM    8  N   UNL     1      43.139 -15.148   3.796  1.00  0.00    -0.041 NA
HETATM    9  C   UNL     1      39.840 -13.858   3.287  1.00  0.00     0.202 C 
HETATM   10  C   UNL     1      40.013 -12.492   3.946  1.00  0.00     0.062 C 
HETATM   11  H   UNL     1      43.240 -12.559   4.543  1.00  0.00     0.184 HD
ENDROOT
BRANCH   7  12
HETATM   12  C   UNL     1      42.998 -17.580   3.265  1.00  0.00     0.014 A 
HETATM   13  C   UNL     1      42.873 -18.288   2.062  1.00  0.00     0.018 A 
HETATM   14  C   UNL     1      43.465 -19.545   1.913  1.00  0.00     0.037 A 
HETATM   15  C   UNL     1      44.196 -20.116   2.956  1.00  0.00     0.068 A 
HETATM   16  C   UNL     1      44.320 -19.422   4.160  1.00  0.00     0.037 A 
HETATM   17  C   UNL     1      43.724 -18.163   4.312  1.00  0.00     0.018 A 
BRANCH  15  18
HETATM   18  O   UNL     1      44.730 -21.344   2.676  1.00  0.00    -0.356 OA
HETATM   19  C   UNL     1      44.184 -22.042   1.564  1.00  0.00     0.210 C 
ENDBRANCH  15  18
ENDBRANCH   7  12
BRANCH   9  20
HETATM   20  C   UNL     1      39.485 -13.789   1.797  1.00  0.00    -0.028 A 
HETATM   21  C   UNL     1      40.449 -13.340   0.876  1.00  0.00     0.012 A 
HETATM   22  C   UNL     1      40.146 -13.255  -0.485  1.00  0.00     0.043 A 
HETATM   23  C   UNL     1      38.880 -13.612  -0.930  1.00  0.00     0.116 A 
HETATM   24  F   UNL     1      38.593 -13.532  -2.235  1.00  0.00    -0.206 F 
HETATM   25  C   UNL     1      37.907 -14.045  -0.040  1.00  0.00     0.043 A 
HETATM   26  C   UNL     1      38.203 -14.127   1.322  1.00  0.00     0.012 A 
ENDBRANCH   9  20
BRANCH  10  27
HETATM   27  C   UNL     1      38.792 -11.726   4.313  1.00  0.00     0.249 C 
HETATM   28  N   UNL     1      38.156 -11.052   3.322  1.00  0.00    -0.366 N 
HETATM   29  H   UNL     1      38.529 -10.879   2.400  1.00  0.00     0.159 HD
HETATM   30  H   UNL     1      37.351 -10.501   3.601  1.00  0.00     0.159 HD
HETATM   31  O   UNL     1      38.334 -11.712   5.449  1.00  0.00    -0.268 OA
ENDBRANCH  10  27
TORSDOF 4
ENDMDL
MODEL 5
REMARK VINA RESULT:      -8.4      3.248      7.570
REMARK  4 active torsions:
REMARK  status: ('A' for Active; 'I' for Inactive)
REMARK    1  A    between atoms: C_7  and  C_8 
REMARK    2  A    between atoms: C_11  and  O_12 
REMARK    3  A    between atoms: C_17  and  C_18 
REMARK    4  A    between atoms: C_25  and  C_26 
REMARK       I    between atoms: C_26  and  N_27 
ROOT
HETATM    1  C   UNL     1      38.826 -11.839   3.619  1.00  0.00     0.070 C 
HETATM    2  C   UNL     1      39.470 -12.971   2.855  1.00  0.00     0.037 C 
HETATM    3  N   UNL     1      40.491 -13.646   3.524  1.00  0.00    -0.192 N 
HETATM    4  C   UNL     1      41.015 -14.802   3.075  1.00  0.00     0.726 A 
HETATM    5  N   UNL     1      40.684 -15.239   1.827  1.00  0.00    -0.083 N 
HETATM    6  N   UNL     1      41.206 -16.451   1.566  1.00  0.00    -0.135 NA
HETATM    7  C   UNL     1      41.920 -16.674   2.686  1.00  0.00     0.199 A 
HETATM    8  N   UNL     1      41.811 -15.671   3.637  1.00  0.00    -0.041 NA
HETATM    9  C   UNL     1      39.852 -14.480   0.890  1.00  0.00     0.202 C 
HETATM   10  C   UNL     1      39.114 -13.346   1.596  1.00  0.00     0.062 C 
HETATM   11  H   UNL     1      40.651 -13.394   4.496  1.00  0.00     0.184 HD
ENDROOT
BRANCH   7  12
HETATM   12  C   UNL     1      42.745 -17.861   2.897  1.00  0.00     0.014 A 
HETATM   13  C   UNL     1      43.506 -18.012   4.065  1.00  0.00     0.018 A 
HETATM   14  C   UNL     1      44.281 -19.158   4.263  1.00  0.00     0.037 A 
HETATM   15  C   UNL     1      44.309 -20.174   3.307  1.00  0.00     0.068 A 
HETATM   16  C   UNL     1      43.562 -20.029   2.138  1.00  0.00     0.037 A 
HETATM   17  C   UNL     1      42.787 -18.879   1.935  1.00  0.00     0.018 A 
BRANCH  15  18
HETATM   18  O   UNL     1      45.100 -21.242   3.629  1.00  0.00    -0.356 OA
HETATM   19  C   UNL     1      44.862 -21.859   4.888  1.00  0.00     0.210 C 
ENDBRANCH  15  18
ENDBRANCH   7  12
BRANCH   9  20
HETATM   20  C   UNL     1      40.735 -14.018  -0.275  1.00  0.00    -0.028 A 
HETATM   21  C   UNL     1      41.589 -12.912  -0.099  1.00  0.00     0.012 A 
HETATM   22  C   UNL     1      42.394 -12.463  -1.148  1.00  0.00     0.043 A 
HETATM   23  C   UNL     1      42.346 -13.110  -2.376  1.00  0.00     0.116 A 
HETATM   24  F   UNL     1      43.120 -12.678  -3.379  1.00  0.00    -0.206 F 
HETATM   25  C   UNL     1      41.502 -14.194  -2.579  1.00  0.00     0.043 A 
HETATM   26  C   UNL     1      40.693 -14.644  -1.535  1.00  0.00     0.012 A 
ENDBRANCH   9  20
BRANCH  10  27
HETATM   27  C   UNL     1      37.899 -12.785   0.949  1.00  0.00     0.249 C 
HETATM   28  N   UNL     1      36.826 -13.605   0.816  1.00  0.00    -0.366 N 
HETATM   29  H   UNL     1      36.835 -14.605   0.957  1.00  0.00     0.159 HD
HETATM   30  H   UNL     1      36.024 -13.217   0.333  1.00  0.00     0.159 HD
HETATM   31  O   UNL     1      37.826 -11.622   0.568  1.00  0.00    -0.268 OA
ENDBRANCH  10  27
TORSDOF 4
ENDMDL
MODEL 6
REMARK VINA RESULT:      -8.0      3.525      7.444
REMARK  4 active torsions:
REMARK  status: ('A' for Active; 'I' for Inactive)
REMARK    1  A    between atoms: C_7  and  C_8 
REMARK    2  A    between atoms: C_11  and  O_12 
REMARK    3  A    between atoms: C_17  and  C_18 
REMARK    4  A    between atoms: C_25  and  C_26 
REMARK       I    between atoms: C_26  and  N_27 
ROOT
HETATM    1  C   UNL     1      41.490 -10.989   4.841  1.00  0.00     0.070 C 
HETATM    2  C   UNL     1      41.495 -12.211   3.955  1.00  0.00     0.037 C 
HETATM    3  N   UNL     1      42.480 -13.157   4.238  1.00  0.00    -0.192 N 
HETATM    4  C   UNL     1      42.488 -14.387   3.690  1.00  0.00     0.726 A 
HETATM    5  N   UNL     1      41.621 -14.665   2.676  1.00  0.00    -0.083 N 
HETATM    6  N   UNL     1      41.681 -15.957   2.306  1.00  0.00    -0.135 NA
HETATM    7  C   UNL     1      42.674 -16.409   3.097  1.00  0.00     0.199 A 
HETATM    8  N   UNL     1      43.183 -15.457   3.967  1.00  0.00    -0.041 NA
HETATM    9  C   UNL     1      40.728 -13.675   2.070  1.00  0.00     0.202 C 
HETATM   10  C   UNL     1      40.619 -12.423   2.936  1.00  0.00     0.062 C 
HETATM   11  H   UNL     1      43.045 -13.000   5.069  1.00  0.00     0.184 HD
ENDROOT
BRANCH   7  12
HETATM   12  C   UNL     1      43.185 -17.777   3.053  1.00  0.00     0.014 A 
HETATM   13  C   UNL     1      43.057 -18.559   1.897  1.00  0.00     0.018 A 
HETATM   14  C   UNL     1      43.562 -19.861   1.861  1.00  0.00     0.037 A 
HETATM   15  C   UNL     1      44.208 -20.405   2.972  1.00  0.00     0.068 A 
HETATM   16  C   UNL     1      44.334 -19.638   4.130  1.00  0.00     0.037 A 
HETATM   17  C   UNL     1      43.825 -18.333   4.169  1.00  0.00     0.018 A 
BRANCH  15  18
HETATM   18  O   UNL     1      44.662 -21.684   2.800  1.00  0.00    -0.356 OA
HETATM   19  C   UNL     1      44.645 -22.530   3.944  1.00  0.00     0.210 C 
ENDBRANCH  15  18
ENDBRANCH   7  12
BRANCH   9  20
HETATM   20  C   UNL     1      41.209 -13.402   0.640  1.00  0.00    -0.028 A 
HETATM   21  C   UNL     1      40.763 -14.226  -0.410  1.00  0.00     0.012 A 
HETATM   22  C   UNL     1      41.197 -14.007  -1.719  1.00  0.00     0.043 A 
HETATM   23  C   UNL     1      42.081 -12.969  -1.984  1.00  0.00     0.116 A 
HETATM   24  F   UNL     1      42.494 -12.759  -3.240  1.00  0.00    -0.206 F 
HETATM   25  C   UNL     1      42.547 -12.150  -0.964  1.00  0.00     0.043 A 
HETATM   26  C   UNL     1      42.119 -12.368   0.346  1.00  0.00     0.012 A 
ENDBRANCH   9  20
BRANCH  10  27
HETATM   27  C   UNL     1      39.438 -11.539   2.750  1.00  0.00     0.249 C 
HETATM   28  N   UNL     1      38.371 -11.739   3.564  1.00  0.00    -0.366 N 
HETATM   29  H   UNL     1      38.238 -12.540   4.164  1.00  0.00     0.159 HD
HETATM   30  H   UNL     1      37.561 -11.155   3.392  1.00  0.00     0.159 HD
HETATM   31  O   UNL     1      39.410 -10.634   1.924  1.00  0.00    -0.268 OA
ENDBRANCH  10  27
TORSDOF 4
ENDMDL
MODEL 7
REMARK VINA RESULT:      -7.6      4.340      7.510
REMARK  4 active torsions:
REMARK  status: ('A' for Active; 'I' for Inactive)
REMARK    1  A    between atoms: C_7  and  C_8 
REMARK    2  A    between atoms: C_11  and  O_12 
REMARK    3  A    between atoms: C_17  and  C_18 
REMARK    4  A    between atoms: C_25  and  C_26 
REMARK       I    between atoms: C_26  and  N_27 
ROOT
HETATM    1  C   UNL     1      42.478 -11.105   7.934  1.00  0.00     0.070 C 
HETATM    2  C   UNL     1      42.137 -12.191   6.942  1.00  0.00     0.037 C 
HETATM    3  N   UNL     1      43.177 -13.066   6.626  1.00  0.00    -0.192 N 
HETATM    4  C   UNL     1      42.984 -14.204   5.933  1.00  0.00     0.726 A 
HETATM    5  N   UNL     1      41.774 -14.426   5.346  1.00  0.00    -0.083 N 
HETATM    6  N   UNL     1      41.708 -15.645   4.780  1.00  0.00    -0.135 NA
HETATM    7  C   UNL     1      42.957 -16.100   4.995  1.00  0.00     0.199 A 
HETATM    8  N   UNL     1      43.763 -15.229   5.713  1.00  0.00    -0.041 NA
HETATM    9  C   UNL     1      40.677 -13.455   5.343  1.00  0.00     0.202 C 
HETATM   10  C   UNL     1      40.915 -12.348   6.366  1.00  0.00     0.062 C 
HETATM   11  H   UNL     1      44.039 -12.969   7.156  1.00  0.00     0.184 HD
ENDROOT
BRANCH   7  12
HETATM   12  C   UNL     1      43.441 -17.393   4.517  1.00  0.00     0.014 A 
HETATM   13  C   UNL     1      44.283 -18.186   5.310  1.00  0.00     0.018 A 
HETATM   14  C   UNL     1      44.729 -19.428   4.850  1.00  0.00     0.037 A 
HETATM   15  C   UNL     1      44.340 -19.905   3.597  1.00  0.00     0.068 A 
HETATM   16  C   UNL     1      43.509 -19.120   2.798  1.00  0.00     0.037 A 
HETATM   17  C   UNL     1      43.064 -17.873   3.256  1.00  0.00     0.018 A 
BRANCH  15  18
HETATM   18  O   UNL     1      44.839 -21.136   3.273  1.00  0.00    -0.356 OA
HETATM   19  C   UNL     1      44.421 -21.692   2.033  1.00  0.00     0.210 C 
ENDBRANCH  15  18
ENDBRANCH   7  12
BRANCH   9  20
HETATM   20  C   UNL     1      40.488 -12.946   3.909  1.00  0.00    -0.028 A 
HETATM   21  C   UNL     1      41.556 -12.303   3.256  1.00  0.00     0.012 A 
HETATM   22  C   UNL     1      41.404 -11.819   1.955  1.00  0.00     0.043 A 
HETATM   23  C   UNL     1      40.187 -11.969   1.304  1.00  0.00     0.116 A 
HETATM   24  F   UNL     1      40.045 -11.505   0.056  1.00  0.00    -0.206 F 
HETATM   25  C   UNL     1      39.114 -12.587   1.931  1.00  0.00     0.043 A 
HETATM   26  C   UNL     1      39.258 -13.069   3.233  1.00  0.00     0.012 A 
ENDBRANCH   9  20
BRANCH  10  27
HETATM   27  C   UNL     1      39.743 -11.565   6.841  1.00  0.00     0.249 C 
HETATM   28  N   UNL     1      39.211 -11.902   8.043  1.00  0.00    -0.366 N 
HETATM   29  H   UNL     1      39.425 -12.741   8.562  1.00  0.00     0.159 HD
HETATM   30  H   UNL     1      38.386 -11.385   8.328  1.00  0.00     0.159 HD
HETATM   31  O   UNL     1      39.272 -10.625   6.210  1.00  0.00    -0.268 OA
ENDBRANCH  10  27
TORSDOF 4
ENDMDL
MODEL 8
REMARK VINA RESULT:      -7.6      3.430      7.615
REMARK  4 active torsions:
REMARK  status: ('A' for Active; 'I' for Inactive)
REMARK    1  A    between atoms: C_7  and  C_8 
REMARK    2  A    between atoms: C_11  and  O_12 
REMARK    3  A    between atoms: C_17  and  C_18 
REMARK    4  A    between atoms: C_25  and  C_26 
REMARK       I    between atoms: C_26  and  N_27 
ROOT
HETATM    1  C   UNL     1      41.144 -10.150   2.209  1.00  0.00     0.070 C 
HETATM    2  C   UNL     1      40.964 -11.624   1.941  1.00  0.00     0.037 C 
HETATM    3  N   UNL     1      42.102 -12.411   2.117  1.00  0.00    -0.192 N 
HETATM    4  C   UNL     1      42.061 -13.757   2.128  1.00  0.00     0.726 A 
HETATM    5  N   UNL     1      40.909 -14.388   1.763  1.00  0.00    -0.083 N 
HETATM    6  N   UNL     1      40.996 -15.721   1.923  1.00  0.00    -0.135 NA
HETATM    7  C   UNL     1      42.274 -15.853   2.327  1.00  0.00     0.199 A 
HETATM    8  N   UNL     1      42.951 -14.651   2.469  1.00  0.00    -0.041 NA
HETATM    9  C   UNL     1      39.719 -13.693   1.266  1.00  0.00     0.202 C 
HETATM   10  C   UNL     1      39.793 -12.196   1.551  1.00  0.00     0.062 C 
HETATM   11  H   UNL     1      42.924 -11.955   2.504  1.00  0.00     0.184 HD
ENDROOT
BRANCH   7  12
HETATM   12  C   UNL     1      42.911 -17.140   2.594  1.00  0.00     0.014 A 
HETATM   13  C   UNL     1      43.461 -17.426   3.851  1.00  0.00     0.018 A 
HETATM   14  C   UNL     1      44.055 -18.666   4.101  1.00  0.00     0.037 A 
HETATM   15  C   UNL     1      44.107 -19.644   3.106  1.00  0.00     0.068 A 
HETATM   16  C   UNL     1      43.569 -19.366   1.850  1.00  0.00     0.037 A 
HETATM   17  C   UNL     1      42.976 -18.122   1.596  1.00  0.00     0.018 A 
BRANCH  15  18
HETATM   18  O   UNL     1      44.707 -20.814   3.484  1.00  0.00    -0.356 OA
HETATM   19  C   UNL     1      44.364 -21.979   2.744  1.00  0.00     0.210 C 
ENDBRANCH  15  18
ENDBRANCH   7  12
BRANCH   9  20
HETATM   20  C   UNL     1      39.546 -14.036  -0.219  1.00  0.00    -0.028 A 
HETATM   21  C   UNL     1      40.675 -14.375  -0.987  1.00  0.00     0.012 A 
HETATM   22  C   UNL     1      40.546 -14.678  -2.344  1.00  0.00     0.043 A 
HETATM   23  C   UNL     1      39.292 -14.639  -2.940  1.00  0.00     0.116 A 
HETATM   24  F   UNL     1      39.170 -14.931  -4.241  1.00  0.00    -0.206 F 
HETATM   25  C   UNL     1      38.164 -14.294  -2.207  1.00  0.00     0.043 A 
HETATM   26  C   UNL     1      38.289 -13.986  -0.851  1.00  0.00     0.012 A 
ENDBRANCH   9  20
BRANCH  10  27
HETATM   27  C   UNL     1      38.525 -11.418   1.560  1.00  0.00     0.249 C 
HETATM   28  N   UNL     1      37.846 -11.342   2.733  1.00  0.00    -0.366 N 
HETATM   29  H   UNL     1      38.029 -11.906   3.550  1.00  0.00     0.159 HD
HETATM   30  H   UNL     1      36.963 -10.845   2.707  1.00  0.00     0.159 HD
HETATM   31  O   UNL     1      38.100 -10.830   0.573  1.00  0.00    -0.268 OA
ENDBRANCH  10  27
TORSDOF 4
ENDMDL
MODEL 9
REMARK VINA RESULT:      -7.6      5.421      8.160
REMARK  4 active torsions:
REMARK  status: ('A' for Active; 'I' for Inactive)
REMARK    1  A    between atoms: C_7  and  C_8 
REMARK    2  A    between atoms: C_11  and  O_12 
REMARK    3  A    between atoms: C_17  and  C_18 
REMARK    4  A    between atoms: C_25  and  C_26 
REMARK       I    between atoms: C_26  and  N_27 
ROOT
HETATM    1  C   UNL     1      41.834 -13.892   1.140  1.00  0.00     0.070 C 
HETATM    2  C   UNL     1      41.380 -13.874   2.579  1.00  0.00     0.037 C 
HETATM    3  N   UNL     1      41.460 -12.638   3.220  1.00  0.00    -0.192 N 
HETATM    4  C   UNL     1      40.900 -12.403   4.422  1.00  0.00     0.726 A 
HETATM    5  N   UNL     1      40.402 -13.452   5.137  1.00  0.00    -0.083 N 
HETATM    6  N   UNL     1      39.789 -13.045   6.263  1.00  0.00    -0.135 NA
HETATM    7  C   UNL     1      40.014 -11.717   6.217  1.00  0.00     0.199 A 
HETATM    8  N   UNL     1      40.693 -11.296   5.083  1.00  0.00    -0.041 NA
HETATM    9  C   UNL     1      40.515 -14.852   4.720  1.00  0.00     0.202 C 
HETATM   10  C   UNL     1      40.916 -14.962   3.251  1.00  0.00     0.062 C 
HETATM   11  H   UNL     1      41.718 -11.837   2.649  1.00  0.00     0.184 HD
ENDROOT
BRANCH   7  12
HETATM   12  C   UNL     1      39.591 -10.788   7.261  1.00  0.00     0.014 A 
HETATM   13  C   UNL     1      39.445 -11.212   8.589  1.00  0.00     0.018 A 
HETATM   14  C   UNL     1      39.053 -10.311   9.583  1.00  0.00     0.037 A 
HETATM   15  C   UNL     1      38.806  -8.973   9.274  1.00  0.00     0.068 A 
HETATM   16  C   UNL     1      38.941  -8.543   7.955  1.00  0.00     0.037 A 
HETATM   17  C   UNL     1      39.330  -9.445   6.956  1.00  0.00     0.018 A 
BRANCH  15  18
HETATM   18  O   UNL     1      38.440  -8.198  10.340  1.00  0.00    -0.356 OA
HETATM   19  C   UNL     1      37.733  -8.845  11.391  1.00  0.00     0.210 C 
ENDBRANCH  15  18
ENDBRANCH   7  12
BRANCH   9  20
HETATM   20  C   UNL     1      41.473 -15.566   5.681  1.00  0.00    -0.028 A 
HETATM   21  C   UNL     1      42.751 -15.022   5.915  1.00  0.00     0.012 A 
HETATM   22  C   UNL     1      43.646 -15.660   6.776  1.00  0.00     0.043 A 
HETATM   23  C   UNL     1      43.274 -16.844   7.400  1.00  0.00     0.116 A 
HETATM   24  F   UNL     1      44.135 -17.452   8.226  1.00  0.00    -0.206 F 
HETATM   25  C   UNL     1      42.026 -17.407   7.174  1.00  0.00     0.043 A 
HETATM   26  C   UNL     1      41.128 -16.776   6.312  1.00  0.00     0.012 A 
ENDBRANCH   9  20
BRANCH  10  27
HETATM   27  C   UNL     1      40.624 -16.232   2.535  1.00  0.00     0.249 C 
HETATM   28  N   UNL     1      39.388 -16.376   1.994  1.00  0.00    -0.366 N 
HETATM   29  H   UNL     1      38.596 -15.778   2.181  1.00  0.00     0.159 HD
HETATM   30  H   UNL     1      39.195 -17.266   1.549  1.00  0.00     0.159 HD
HETATM   31  O   UNL     1      41.457 -17.120   2.394  1.00  0.00    -0.268 OA
ENDBRANCH  10  27
TORSDOF 4
ENDMDL
MODEL 10
REMARK VINA RESULT:      -7.4      3.307      8.196
REMARK  4 active torsions:
REMARK  status: ('A' for Active; 'I' for Inactive)
REMARK    1  A    between atoms: C_7  and  C_8 
REMARK    2  A    between atoms: C_11  and  O_12 
REMARK    3  A    between atoms: C_17  and  C_18 
REMARK    4  A    between atoms: C_25  and  C_26 
REMARK       I    between atoms: C_26  and  N_27 
ROOT
HETATM    1  C   UNL     1      40.998  -9.906  -0.646  1.00  0.00     0.070 C 
HETATM    2  C   UNL     1      40.752 -11.380  -0.436  1.00  0.00     0.037 C 
HETATM    3  N   UNL     1      41.843 -12.110   0.036  1.00  0.00    -0.192 N 
HETATM    4  C   UNL     1      41.734 -13.378   0.477  1.00  0.00     0.726 A 
HETATM    5  N   UNL     1      40.564 -14.049   0.281  1.00  0.00    -0.083 N 
HETATM    6  N   UNL     1      40.579 -15.262   0.864  1.00  0.00    -0.135 NA
HETATM    7  C   UNL     1      41.835 -15.304   1.348  1.00  0.00     0.199 A 
HETATM    8  N   UNL     1      42.567 -14.147   1.127  1.00  0.00    -0.041 NA
HETATM    9  C   UNL     1      39.427 -13.508  -0.468  1.00  0.00     0.202 C 
HETATM   10  C   UNL     1      39.567 -12.002  -0.675  1.00  0.00     0.062 C 
HETATM   11  H   UNL     1      42.675 -11.585   0.294  1.00  0.00     0.184 HD
ENDROOT
BRANCH   7  12
HETATM   12  C   UNL     1      42.397 -16.459   2.043  1.00  0.00     0.014 A 
HETATM   13  C   UNL     1      41.859 -16.901   3.260  1.00  0.00     0.018 A 
HETATM   14  C   UNL     1      42.395 -18.016   3.910  1.00  0.00     0.037 A 
HETATM   15  C   UNL     1      43.471 -18.713   3.357  1.00  0.00     0.068 A 
HETATM   16  C   UNL     1      44.018 -18.277   2.151  1.00  0.00     0.037 A 
HETATM   17  C   UNL     1      43.484 -17.157   1.500  1.00  0.00     0.018 A 
BRANCH  15  18
HETATM   18  O   UNL     1      43.892 -19.789   4.090  1.00  0.00    -0.356 OA
HETATM   19  C   UNL     1      44.777 -19.523   5.170  1.00  0.00     0.210 C 
ENDBRANCH  15  18
ENDBRANCH   7  12
BRANCH   9  20
HETATM   20  C   UNL     1      39.284 -14.305  -1.770  1.00  0.00    -0.028 A 
HETATM   21  C   UNL     1      38.017 -14.429  -2.370  1.00  0.00     0.012 A 
HETATM   22  C   UNL     1      37.857 -15.160  -3.549  1.00  0.00     0.043 A 
HETATM   23  C   UNL     1      38.959 -15.774  -4.130  1.00  0.00     0.116 A 
HETATM   24  F   UNL     1      38.804 -16.473  -5.261  1.00  0.00    -0.206 F 
HETATM   25  C   UNL     1      40.217 -15.679  -3.550  1.00  0.00     0.043 A 
HETATM   26  C   UNL     1      40.381 -14.953  -2.370  1.00  0.00     0.012 A 
ENDBRANCH   9  20
BRANCH  10  27
HETATM   27  C   UNL     1      38.341 -11.216  -0.975  1.00  0.00     0.249 C 
HETATM   28  N   UNL     1      37.561 -10.849   0.074  1.00  0.00    -0.366 N 
HETATM   29  H   UNL     1      37.642 -11.207   1.015  1.00  0.00     0.159 HD
HETATM   30  H   UNL     1      36.708 -10.352  -0.155  1.00  0.00     0.159 HD
HETATM   31  O   UNL     1      38.035 -10.870  -2.110  1.00  0.00    -0.268 OA
ENDBRANCH  10  27
TORSDOF 4
ENDMDL
