MODEL 1
REMARK VINA RESULT:      -6.9      0.000      0.000
REMARK  9 active torsions:
REMARK  status: ('A' for Active; 'I' for Inactive)
REMARK    1  A    between atoms: C_2  and  O_3 
REMARK    2  A    between atoms: O_3  and  C_4 
REMARK    3  A    between atoms: C_4  and  C_5 
REMARK    4  A    between atoms: C_11  and  O_12 
REMARK    5  A    between atoms: C_13  and  C_14 
REMARK    6  A    between atoms: C_14  and  N_15 
REMARK    7  A    between atoms: N_19  and  C_20 
REMARK    8  A    between atoms: C_26  and  C_27 
REMARK    9  A    between atoms: C_27  and  N_28 
ROOT
HETATM    1  C   UNL     1      40.783 -15.395   1.475  1.00  0.00     0.077 A 
HETATM    2  C   UNL     1      40.444 -14.952   2.830  1.00  0.00     0.020 A 
HETATM    3  C   UNL     1      39.913 -13.663   2.691  1.00  0.00     0.053 A 
HETATM    4  C   UNL     1      39.539 -12.870   3.793  1.00  0.00     0.053 A 
HETATM    5  C   UNL     1      39.783 -13.347   5.070  1.00  0.00     0.047 A 
HETATM    6 BR   UNL     1      39.376 -12.238   6.551  1.00  0.00    -0.048 Br
HETATM    7  C   UNL     1      40.311 -14.620   5.251  1.00  0.00     0.092 A 
HETATM    8  C   UNL     1      40.586 -15.496   4.167  1.00  0.00     0.016 A 
HETATM    9  N   UNL     1      39.805 -13.368   1.338  1.00  0.00    -0.312 N 
HETATM   10  C   UNL     1      40.365 -14.391   0.583  1.00  0.00     0.060 A 
ENDROOT
BRANCH  10  11
HETATM   11  C   UNL     1      40.620 -14.203  -0.891  1.00  0.00     0.293 C 
BRANCH  11  12
HETATM   12  N   UNL     1      39.659 -14.919  -1.798  1.00  0.00    -0.062 N 
HETATM   13  H   UNL     1      39.253 -15.678  -1.236  1.00  0.00     0.280 HD
HETATM   14  C   UNL     1      38.529 -14.060  -2.337  1.00  0.00     0.261 C 
HETATM   15  C   UNL     1      37.610 -14.919  -3.214  1.00  0.00     0.195 C 
HETATM   16  O   UNL     1      38.342 -15.517  -4.287  1.00  0.00    -0.388 OA
HETATM   17  C   UNL     1      39.387 -16.373  -3.816  1.00  0.00     0.195 C 
HETATM   18  C   UNL     1      40.392 -15.590  -2.964  1.00  0.00     0.261 C 
ENDBRANCH  11  12
ENDBRANCH  10  11
BRANCH   1  19
HETATM   19  C   UNL     1      41.527 -16.615   1.113  1.00  0.00     0.296 C 
HETATM   20  O   UNL     1      40.994 -17.605   0.638  1.00  0.00    -0.259 OA
BRANCH  19  21
HETATM   21  O   UNL     1      42.872 -16.536   1.359  1.00  0.00    -0.318 OA
BRANCH  21  22
HETATM   22  C   UNL     1      43.651 -17.661   0.896  1.00  0.00     0.174 C 
HETATM   23  C   UNL     1      44.037 -18.571   2.049  1.00  0.00     0.034 C 
ENDBRANCH  21  22
ENDBRANCH  19  21
ENDBRANCH   1  19
BRANCH   9  24
HETATM   24  C   UNL     1      39.284 -12.153   0.827  1.00  0.00     0.040 A 
HETATM   25  C   UNL     1      40.147 -11.078   0.588  1.00  0.00     0.030 A 
HETATM   26  C   UNL     1      39.630  -9.887   0.079  1.00  0.00     0.002 A 
HETATM   27  C   UNL     1      38.265  -9.772  -0.182  1.00  0.00     0.000 A 
HETATM   28  C   UNL     1      37.406 -10.843   0.072  1.00  0.00     0.002 A 
HETATM   29  C   UNL     1      37.911 -12.039   0.580  1.00  0.00     0.030 A 
ENDBRANCH   9  24
BRANCH   8  30
HETATM   30  C   UNL     1      41.083 -16.908   4.447  1.00  0.00     0.276 C 
BRANCH  30  31
HETATM   31  N   UNL     1      42.319 -17.063   5.310  1.00  0.00    -0.075 N 
HETATM   32  H   UNL     1      42.034 -16.694   6.234  1.00  0.00     0.279 HD
HETATM   33  C   UNL     1      42.723 -18.488   5.533  1.00  0.00     0.269 C 
HETATM   34  C   UNL     1      43.461 -16.222   4.830  1.00  0.00     0.269 C 
ENDBRANCH  30  31
ENDBRANCH   8  30
BRANCH   7  35
HETATM   35  O   UNL     1      40.584 -15.054   6.532  1.00  0.00    -0.359 OA
HETATM   36  H   UNL     1      41.528 -15.336   6.543  1.00  0.00     0.218 HD
ENDBRANCH   7  35
TORSDOF 9
ENDMDL
MODEL 2
REMARK VINA RESULT:      -6.8      2.983      5.655
REMARK  9 active torsions:
REMARK  status: ('A' for Active; 'I' for Inactive)
REMARK    1  A    between atoms: C_2  and  O_3 
REMARK    2  A    between atoms: O_3  and  C_4 
REMARK    3  A    between atoms: C_4  and  C_5 
REMARK    4  A    between atoms: C_11  and  O_12 
REMARK    5  A    between atoms: C_13  and  C_14 
REMARK    6  A    between atoms: C_14  and  N_15 
REMARK    7  A    between atoms: N_19  and  C_20 
REMARK    8  A    between atoms: C_26  and  C_27 
REMARK    9  A    between atoms: C_27  and  N_28 
ROOT
HETATM    1  C   UNL     1      41.494 -14.083   4.068  1.00  0.00     0.077 A 
HETATM    2  C   UNL     1      40.358 -13.187   3.836  1.00  0.00     0.020 A 
HETATM    3  C   UNL     1      40.254 -13.050   2.444  1.00  0.00     0.053 A 
HETATM    4  C   UNL     1      39.318 -12.195   1.831  1.00  0.00     0.053 A 
HETATM    5  C   UNL     1      38.524 -11.392   2.632  1.00  0.00     0.047 A 
HETATM    6 BR   UNL     1      37.338 -10.167   1.806  1.00  0.00    -0.048 Br
HETATM    7  C   UNL     1      38.598 -11.495   4.016  1.00  0.00     0.092 A 
HETATM    8  C   UNL     1      39.442 -12.433   4.670  1.00  0.00     0.016 A 
HETATM    9  N   UNL     1      41.173 -13.900   1.844  1.00  0.00    -0.312 N 
HETATM   10  C   UNL     1      41.963 -14.507   2.811  1.00  0.00     0.060 A 
ENDROOT
BRANCH  10  11
HETATM   11  C   UNL     1      43.206 -15.265   2.419  1.00  0.00     0.293 C 
BRANCH  11  12
HETATM   12  N   UNL     1      43.109 -16.758   2.557  1.00  0.00    -0.062 N 
HETATM   13  H   UNL     1      42.104 -16.977   2.555  1.00  0.00     0.280 HD
HETATM   14  C   UNL     1      43.776 -17.547   1.443  1.00  0.00     0.261 C 
HETATM   15  C   UNL     1      43.572 -19.046   1.688  1.00  0.00     0.195 C 
HETATM   16  O   UNL     1      44.099 -19.431   2.961  1.00  0.00    -0.388 OA
HETATM   17  C   UNL     1      43.459 -18.742   4.040  1.00  0.00     0.195 C 
HETATM   18  C   UNL     1      43.651 -17.227   3.911  1.00  0.00     0.261 C 
ENDBRANCH  11  12
ENDBRANCH  10  11
BRANCH   1  19
HETATM   19  C   UNL     1      42.109 -14.398   5.370  1.00  0.00     0.296 C 
HETATM   20  O   UNL     1      41.678 -15.260   6.119  1.00  0.00    -0.259 OA
BRANCH  19  21
HETATM   21  O   UNL     1      43.207 -13.634   5.661  1.00  0.00    -0.318 OA
BRANCH  21  22
HETATM   22  C   UNL     1      44.307 -14.343   6.273  1.00  0.00     0.174 C 
HETATM   23  C   UNL     1      44.747 -13.666   7.559  1.00  0.00     0.034 C 
ENDBRANCH  21  22
ENDBRANCH  19  21
ENDBRANCH   1  19
BRANCH   9  24
HETATM   24  C   UNL     1      41.328 -14.040   0.442  1.00  0.00     0.040 A 
HETATM   25  C   UNL     1      40.853 -15.192  -0.194  1.00  0.00     0.030 A 
HETATM   26  C   UNL     1      41.002 -15.321  -1.575  1.00  0.00     0.002 A 
HETATM   27  C   UNL     1      41.626 -14.313  -2.309  1.00  0.00     0.000 A 
HETATM   28  C   UNL     1      42.111 -13.173  -1.668  1.00  0.00     0.002 A 
HETATM   29  C   UNL     1      41.966 -13.031  -0.288  1.00  0.00     0.030 A 
ENDBRANCH   9  24
BRANCH   8  30
HETATM   30  C   UNL     1      39.407 -12.546   6.189  1.00  0.00     0.276 C 
BRANCH  30  31
HETATM   31  N   UNL     1      39.797 -11.326   6.998  1.00  0.00    -0.075 N 
HETATM   32  H   UNL     1      39.294 -10.545   6.541  1.00  0.00     0.279 HD
HETATM   33  C   UNL     1      39.318 -11.364   8.415  1.00  0.00     0.269 C 
HETATM   34  C   UNL     1      41.260 -11.023   6.905  1.00  0.00     0.269 C 
ENDBRANCH  30  31
ENDBRANCH   8  30
BRANCH   7  35
HETATM   35  O   UNL     1      37.827 -10.652   4.791  1.00  0.00    -0.359 OA
HETATM   36  H   UNL     1      36.888 -10.822   4.550  1.00  0.00     0.218 HD
ENDBRANCH   7  35
TORSDOF 9
ENDMDL
MODEL 3
REMARK VINA RESULT:      -6.6      2.367      6.492
REMARK  9 active torsions:
REMARK  status: ('A' for Active; 'I' for Inactive)
REMARK    1  A    between atoms: C_2  and  O_3 
REMARK    2  A    between atoms: O_3  and  C_4 
REMARK    3  A    between atoms: C_4  and  C_5 
REMARK    4  A    between atoms: C_11  and  O_12 
REMARK    5  A    between atoms: C_13  and  C_14 
REMARK    6  A    between atoms: C_14  and  N_15 
REMARK    7  A    between atoms: N_19  and  C_20 
REMARK    8  A    between atoms: C_26  and  C_27 
REMARK    9  A    between atoms: C_27  and  N_28 
ROOT
HETATM    1  C   UNL     1      39.696 -14.160   2.739  1.00  0.00     0.077 A 
HETATM    2  C   UNL     1      39.637 -13.053   3.697  1.00  0.00     0.020 A 
HETATM    3  C   UNL     1      40.329 -13.492   4.835  1.00  0.00     0.053 A 
HETATM    4  C   UNL     1      40.422 -12.725   6.012  1.00  0.00     0.053 A 
HETATM    5  C   UNL     1      39.732 -11.527   6.083  1.00  0.00     0.047 A 
HETATM    6 BR   UNL     1      39.772 -10.546   7.703  1.00  0.00    -0.048 Br
HETATM    7  C   UNL     1      39.032 -11.057   4.979  1.00  0.00     0.092 A 
HETATM    8  C   UNL     1      39.016 -11.743   3.735  1.00  0.00     0.016 A 
HETATM    9  N   UNL     1      40.893 -14.731   4.562  1.00  0.00    -0.312 N 
HETATM   10  C   UNL     1      40.489 -15.173   3.309  1.00  0.00     0.060 A 
ENDROOT
BRANCH  10  11
HETATM   11  C   UNL     1      40.739 -16.597   2.883  1.00  0.00     0.293 C 
BRANCH  11  12
HETATM   12  N   UNL     1      42.187 -16.989   2.793  1.00  0.00    -0.062 N 
HETATM   13  H   UNL     1      42.713 -16.229   3.243  1.00  0.00     0.280 HD
HETATM   14  C   UNL     1      42.540 -18.294   3.483  1.00  0.00     0.261 C 
HETATM   15  C   UNL     1      44.044 -18.553   3.345  1.00  0.00     0.195 C 
HETATM   16  O   UNL     1      44.430 -18.593   1.968  1.00  0.00    -0.388 OA
HETATM   17  C   UNL     1      44.156 -17.360   1.296  1.00  0.00     0.195 C 
HETATM   18  C   UNL     1      42.659 -17.037   1.336  1.00  0.00     0.261 C 
ENDBRANCH  11  12
ENDBRANCH  10  11
BRANCH   1  19
HETATM   19  C   UNL     1      38.970 -14.250   1.459  1.00  0.00     0.296 C 
HETATM   20  O   UNL     1      37.889 -14.805   1.344  1.00  0.00    -0.259 OA
BRANCH  19  21
HETATM   21  O   UNL     1      39.621 -13.655   0.412  1.00  0.00    -0.318 OA
BRANCH  21  22
HETATM   22  C   UNL     1      40.407 -14.546  -0.411  1.00  0.00     0.174 C 
HETATM   23  C   UNL     1      40.027 -14.414  -1.876  1.00  0.00     0.034 C 
ENDBRANCH  21  22
ENDBRANCH  19  21
ENDBRANCH   1  19
BRANCH   9  24
HETATM   24  C   UNL     1      41.686 -15.463   5.482  1.00  0.00     0.040 A 
HETATM   25  C   UNL     1      43.054 -15.187   5.586  1.00  0.00     0.030 A 
HETATM   26  C   UNL     1      43.828 -15.905   6.497  1.00  0.00     0.002 A 
HETATM   27  C   UNL     1      43.242 -16.892   7.289  1.00  0.00     0.000 A 
HETATM   28  C   UNL     1      41.879 -17.173   7.170  1.00  0.00     0.002 A 
HETATM   29  C   UNL     1      41.094 -16.460   6.264  1.00  0.00     0.030 A 
ENDBRANCH   9  24
BRANCH   8  30
HETATM   30  C   UNL     1      38.296 -11.125   2.543  1.00  0.00     0.276 C 
BRANCH  30  31
HETATM   31  N   UNL     1      39.130 -10.726   1.342  1.00  0.00    -0.075 N 
HETATM   32  H   UNL     1      39.635 -11.591   1.083  1.00  0.00     0.279 HD
HETATM   33  C   UNL     1      38.317 -10.337   0.146  1.00  0.00     0.269 C 
HETATM   34  C   UNL     1      40.163  -9.696   1.680  1.00  0.00     0.269 C 
ENDBRANCH  30  31
ENDBRANCH   8  30
BRANCH   7  35
HETATM   35  O   UNL     1      38.317  -9.882   5.090  1.00  0.00    -0.359 OA
HETATM   36  H   UNL     1      37.519  -9.978   4.522  1.00  0.00     0.218 HD
ENDBRANCH   7  35
TORSDOF 9
ENDMDL
MODEL 4
REMARK VINA RESULT:      -6.6      2.637      5.526
REMARK  9 active torsions:
REMARK  status: ('A' for Active; 'I' for Inactive)
REMARK    1  A    between atoms: C_2  and  O_3 
REMARK    2  A    between atoms: O_3  and  C_4 
REMARK    3  A    between atoms: C_4  and  C_5 
REMARK    4  A    between atoms: C_11  and  O_12 
REMARK    5  A    between atoms: C_13  and  C_14 
REMARK    6  A    between atoms: C_14  and  N_15 
REMARK    7  A    between atoms: N_19  and  C_20 
REMARK    8  A    between atoms: C_26  and  C_27 
REMARK    9  A    between atoms: C_27  and  N_28 
ROOT
HETATM    1  C   UNL     1      40.672 -13.320   2.677  1.00  0.00     0.077 A 
HETATM    2  C   UNL     1      41.537 -13.283   3.859  1.00  0.00     0.020 A 
HETATM    3  C   UNL     1      42.242 -14.495   3.858  1.00  0.00     0.053 A 
HETATM    4  C   UNL     1      43.124 -14.864   4.892  1.00  0.00     0.053 A 
HETATM    5  C   UNL     1      43.238 -14.038   5.997  1.00  0.00     0.047 A 
HETATM    6 BR   UNL     1      44.345 -14.584   7.434  1.00  0.00    -0.048 Br
HETATM    7  C   UNL     1      42.555 -12.828   6.038  1.00  0.00     0.092 A 
HETATM    8  C   UNL     1      41.753 -12.365   4.961  1.00  0.00     0.016 A 
HETATM    9  N   UNL     1      41.938 -15.185   2.693  1.00  0.00    -0.312 N 
HETATM   10  C   UNL     1      40.957 -14.508   1.980  1.00  0.00     0.060 A 
ENDROOT
BRANCH  10  11
HETATM   11  C   UNL     1      40.258 -15.171   0.820  1.00  0.00     0.293 C 
BRANCH  11  12
HETATM   12  N   UNL     1      40.426 -14.477  -0.503  1.00  0.00    -0.062 N 
HETATM   13  H   UNL     1      41.005 -13.648  -0.315  1.00  0.00     0.280 HD
HETATM   14  C   UNL     1      41.107 -15.307  -1.577  1.00  0.00     0.261 C 
HETATM   15  C   UNL     1      41.245 -14.472  -2.855  1.00  0.00     0.195 C 
HETATM   16  O   UNL     1      39.967 -14.017  -3.307  1.00  0.00    -0.388 OA
HETATM   17  C   UNL     1      39.315 -13.191  -2.338  1.00  0.00     0.195 C 
HETATM   18  C   UNL     1      39.085 -13.958  -1.031  1.00  0.00     0.261 C 
ENDBRANCH  11  12
ENDBRANCH  10  11
BRANCH   1  19
HETATM   19  C   UNL     1      39.616 -12.351   2.335  1.00  0.00     0.296 C 
HETATM   20  O   UNL     1      38.612 -12.193   3.011  1.00  0.00    -0.259 OA
BRANCH  19  21
HETATM   21  O   UNL     1      39.865 -11.644   1.189  1.00  0.00    -0.318 OA
BRANCH  21  22
HETATM   22  C   UNL     1      41.083 -10.868   1.195  1.00  0.00     0.174 C 
HETATM   23  C   UNL     1      41.933 -11.172  -0.027  1.00  0.00     0.034 C 
ENDBRANCH  21  22
ENDBRANCH  19  21
ENDBRANCH   1  19
BRANCH   9  24
HETATM   24  C   UNL     1      42.491 -16.444   2.346  1.00  0.00     0.040 A 
HETATM   25  C   UNL     1      43.532 -16.508   1.414  1.00  0.00     0.030 A 
HETATM   26  C   UNL     1      44.077 -17.748   1.083  1.00  0.00     0.002 A 
HETATM   27  C   UNL     1      43.582 -18.911   1.672  1.00  0.00     0.000 A 
HETATM   28  C   UNL     1      42.533 -18.842   2.591  1.00  0.00     0.002 A 
HETATM   29  C   UNL     1      41.981 -17.608   2.932  1.00  0.00     0.030 A 
ENDBRANCH   9  24
BRANCH   8  30
HETATM   30  C   UNL     1      41.103 -10.990   5.044  1.00  0.00     0.276 C 
BRANCH  30  31
HETATM   31  N   UNL     1      39.763 -10.883   5.745  1.00  0.00    -0.075 N 
HETATM   32  H   UNL     1      39.093 -10.676   4.984  1.00  0.00     0.279 HD
HETATM   33  C   UNL     1      39.308 -12.163   6.373  1.00  0.00     0.269 C 
HETATM   34  C   UNL     1      39.711  -9.734   6.704  1.00  0.00     0.269 C 
ENDBRANCH  30  31
ENDBRANCH   8  30
BRANCH   7  35
HETATM   35  O   UNL     1      42.653 -12.044   7.170  1.00  0.00    -0.359 OA
HETATM   36  H   UNL     1      42.428 -12.619   7.936  1.00  0.00     0.218 HD
ENDBRANCH   7  35
TORSDOF 9
ENDMDL
MODEL 5
REMARK VINA RESULT:      -6.5      2.451      6.523
REMARK  9 active torsions:
REMARK  status: ('A' for Active; 'I' for Inactive)
REMARK    1  A    between atoms: C_2  and  O_3 
REMARK    2  A    between atoms: O_3  and  C_4 
REMARK    3  A    between atoms: C_4  and  C_5 
REMARK    4  A    between atoms: C_11  and  O_12 
REMARK    5  A    between atoms: C_13  and  C_14 
REMARK    6  A    between atoms: C_14  and  N_15 
REMARK    7  A    between atoms: N_19  and  C_20 
REMARK    8  A    between atoms: C_26  and  C_27 
REMARK    9  A    between atoms: C_27  and  N_28 
ROOT
HETATM    1  C   UNL     1      42.121 -14.740   2.749  1.00  0.00     0.077 A 
HETATM    2  C   UNL     1      40.997 -14.258   1.942  1.00  0.00     0.020 A 
HETATM    3  C   UNL     1      40.378 -13.257   2.703  1.00  0.00     0.053 A 
HETATM    4  C   UNL     1      39.201 -12.604   2.289  1.00  0.00     0.053 A 
HETATM    5  C   UNL     1      38.581 -13.023   1.124  1.00  0.00     0.047 A 
HETATM    6 BR   UNL     1      36.943 -12.215   0.621  1.00  0.00    -0.048 Br
HETATM    7  C   UNL     1      39.161 -14.014   0.341  1.00  0.00     0.092 A 
HETATM    8  C   UNL     1      40.410 -14.610   0.663  1.00  0.00     0.016 A 
HETATM    9  N   UNL     1      41.133 -13.036   3.847  1.00  0.00    -0.312 N 
HETATM   10  C   UNL     1      42.174 -13.953   3.914  1.00  0.00     0.060 A 
ENDROOT
BRANCH  10  11
HETATM   11  C   UNL     1      42.980 -14.105   5.180  1.00  0.00     0.293 C 
BRANCH  11  12
HETATM   12  N   UNL     1      42.996 -15.491   5.760  1.00  0.00    -0.062 N 
HETATM   13  H   UNL     1      43.223 -16.121   4.979  1.00  0.00     0.280 HD
HETATM   14  C   UNL     1      44.013 -15.709   6.866  1.00  0.00     0.261 C 
HETATM   15  C   UNL     1      43.947 -17.165   7.340  1.00  0.00     0.195 C 
HETATM   16  O   UNL     1      42.632 -17.494   7.795  1.00  0.00    -0.388 OA
HETATM   17  C   UNL     1      41.652 -17.347   6.764  1.00  0.00     0.195 C 
HETATM   18  C   UNL     1      41.606 -15.902   6.256  1.00  0.00     0.261 C 
ENDBRANCH  11  12
ENDBRANCH  10  11
BRANCH   1  19
HETATM   19  C   UNL     1      42.973 -15.906   2.456  1.00  0.00     0.296 C 
HETATM   20  O   UNL     1      43.969 -15.844   1.753  1.00  0.00    -0.259 OA
BRANCH  19  21
HETATM   21  O   UNL     1      42.544 -17.065   3.045  1.00  0.00    -0.318 OA
BRANCH  21  22
HETATM   22  C   UNL     1      43.574 -18.047   3.295  1.00  0.00     0.174 C 
HETATM   23  C   UNL     1      43.376 -19.281   2.431  1.00  0.00     0.034 C 
ENDBRANCH  21  22
ENDBRANCH  19  21
ENDBRANCH   1  19
BRANCH   9  24
HETATM   24  C   UNL     1      40.815 -12.072   4.836  1.00  0.00     0.040 A 
HETATM   25  C   UNL     1      39.976 -12.425   5.899  1.00  0.00     0.030 A 
HETATM   26  C   UNL     1      39.673 -11.475   6.874  1.00  0.00     0.002 A 
HETATM   27  C   UNL     1      40.196 -10.185   6.782  1.00  0.00     0.000 A 
HETATM   28  C   UNL     1      41.020  -9.834   5.711  1.00  0.00     0.002 A 
HETATM   29  C   UNL     1      41.333 -10.776   4.731  1.00  0.00     0.030 A 
ENDBRANCH   9  24
BRANCH   8  30
HETATM   30  C   UNL     1      41.025 -15.630  -0.287  1.00  0.00     0.276 C 
BRANCH  30  31
HETATM   31  N   UNL     1      41.676 -15.112  -1.554  1.00  0.00    -0.075 N 
HETATM   32  H   UNL     1      42.612 -15.555  -1.559  1.00  0.00     0.279 HD
HETATM   33  C   UNL     1      40.991 -15.557  -2.808  1.00  0.00     0.269 C 
HETATM   34  C   UNL     1      41.889 -13.631  -1.523  1.00  0.00     0.269 C 
ENDBRANCH  30  31
ENDBRANCH   8  30
BRANCH   7  35
HETATM   35  O   UNL     1      38.500 -14.443  -0.792  1.00  0.00    -0.359 OA
HETATM   36  H   UNL     1      37.546 -14.507  -0.559  1.00  0.00     0.218 HD
ENDBRANCH   7  35
TORSDOF 9
ENDMDL
MODEL 6
REMARK VINA RESULT:      -6.5      3.748      7.839
REMARK  9 active torsions:
REMARK  status: ('A' for Active; 'I' for Inactive)
REMARK    1  A    between atoms: C_2  and  O_3 
REMARK    2  A    between atoms: O_3  and  C_4 
REMARK    3  A    between atoms: C_4  and  C_5 
REMARK    4  A    between atoms: C_11  and  O_12 
REMARK    5  A    between atoms: C_13  and  C_14 
REMARK    6  A    between atoms: C_14  and  N_15 
REMARK    7  A    between atoms: N_19  and  C_20 
REMARK    8  A    between atoms: C_26  and  C_27 
REMARK    9  A    between atoms: C_27  and  N_28 
ROOT
HETATM    1  C   UNL     1      40.350 -13.317   4.323  1.00  0.00     0.077 A 
HETATM    2  C   UNL     1      40.677 -12.595   3.091  1.00  0.00     0.020 A 
HETATM    3  C   UNL     1      41.392 -13.500   2.294  1.00  0.00     0.053 A 
HETATM    4  C   UNL     1      41.951 -13.144   1.051  1.00  0.00     0.053 A 
HETATM    5  C   UNL     1      41.865 -11.826   0.635  1.00  0.00     0.047 A 
HETATM    6 BR   UNL     1      42.706 -11.324  -0.987  1.00  0.00    -0.048 Br
HETATM    7  C   UNL     1      41.166 -10.897   1.397  1.00  0.00     0.092 A 
HETATM    8  C   UNL     1      40.486 -11.246   2.595  1.00  0.00     0.016 A 
HETATM    9  N   UNL     1      41.401 -14.737   2.923  1.00  0.00    -0.312 N 
HETATM   10  C   UNL     1      40.807 -14.639   4.175  1.00  0.00     0.060 A 
ENDROOT
BRANCH  10  11
HETATM   11  C   UNL     1      40.925 -15.767   5.168  1.00  0.00     0.293 C 
BRANCH  11  12
HETATM   12  N   UNL     1      41.957 -15.564   6.241  1.00  0.00    -0.062 N 
HETATM   13  H   UNL     1      41.512 -14.971   6.953  1.00  0.00     0.280 HD
HETATM   14  C   UNL     1      42.442 -16.838   6.910  1.00  0.00     0.261 C 
HETATM   15  C   UNL     1      43.459 -16.486   8.001  1.00  0.00     0.195 C 
HETATM   16  O   UNL     1      44.561 -15.756   7.454  1.00  0.00    -0.388 OA
HETATM   17  C   UNL     1      44.147 -14.523   6.857  1.00  0.00     0.195 C 
HETATM   18  C   UNL     1      43.159 -14.775   5.713  1.00  0.00     0.261 C 
ENDBRANCH  11  12
ENDBRANCH  10  11
BRANCH   1  19
HETATM   19  C   UNL     1      39.753 -12.742   5.542  1.00  0.00     0.296 C 
HETATM   20  O   UNL     1      38.573 -12.439   5.627  1.00  0.00    -0.259 OA
BRANCH  19  21
HETATM   21  O   UNL     1      40.643 -12.579   6.569  1.00  0.00    -0.318 OA
BRANCH  21  22
HETATM   22  C   UNL     1      41.579 -11.490   6.407  1.00  0.00     0.174 C 
HETATM   23  C   UNL     1      40.967 -10.172   6.850  1.00  0.00     0.034 C 
ENDBRANCH  21  22
ENDBRANCH  19  21
ENDBRANCH   1  19
BRANCH   9  24
HETATM   24  C   UNL     1      42.015 -15.898   2.388  1.00  0.00     0.040 A 
HETATM   25  C   UNL     1      41.220 -16.904   1.828  1.00  0.00     0.030 A 
HETATM   26  C   UNL     1      41.831 -18.039   1.296  1.00  0.00     0.002 A 
HETATM   27  C   UNL     1      43.219 -18.170   1.332  1.00  0.00     0.000 A 
HETATM   28  C   UNL     1      44.006 -17.169   1.905  1.00  0.00     0.002 A 
HETATM   29  C   UNL     1      43.407 -16.028   2.438  1.00  0.00     0.030 A 
ENDBRANCH   9  24
BRANCH   8  30
HETATM   30  C   UNL     1      39.671 -10.191   3.332  1.00  0.00     0.276 C 
BRANCH  30  31
HETATM   31  N   UNL     1      38.170 -10.388   3.415  1.00  0.00    -0.075 N 
HETATM   32  H   UNL     1      38.054 -11.189   4.060  1.00  0.00     0.279 HD
HETATM   33  C   UNL     1      37.445  -9.236   4.037  1.00  0.00     0.269 C 
HETATM   34  C   UNL     1      37.573 -10.788   2.102  1.00  0.00     0.269 C 
ENDBRANCH  30  31
ENDBRANCH   8  30
BRANCH   7  35
HETATM   35  O   UNL     1      41.133  -9.581   0.982  1.00  0.00    -0.359 OA
HETATM   36  H   UNL     1      42.060  -9.325   0.768  1.00  0.00     0.218 HD
ENDBRANCH   7  35
TORSDOF 9
ENDMDL
MODEL 7
REMARK VINA RESULT:      -6.4      1.961      2.577
REMARK  9 active torsions:
REMARK  status: ('A' for Active; 'I' for Inactive)
REMARK    1  A    between atoms: C_2  and  O_3 
REMARK    2  A    between atoms: O_3  and  C_4 
REMARK    3  A    between atoms: C_4  and  C_5 
REMARK    4  A    between atoms: C_11  and  O_12 
REMARK    5  A    between atoms: C_13  and  C_14 
REMARK    6  A    between atoms: C_14  and  N_15 
REMARK    7  A    between atoms: N_19  and  C_20 
REMARK    8  A    between atoms: C_26  and  C_27 
REMARK    9  A    between atoms: C_27  and  N_28 
ROOT
HETATM    1  C   UNL     1      42.202 -15.984   2.630  1.00  0.00     0.077 A 
HETATM    2  C   UNL     1      42.064 -15.088   3.780  1.00  0.00     0.020 A 
HETATM    3  C   UNL     1      41.031 -14.199   3.453  1.00  0.00     0.053 A 
HETATM    4  C   UNL     1      40.654 -13.128   4.288  1.00  0.00     0.053 A 
HETATM    5  C   UNL     1      41.388 -12.890   5.437  1.00  0.00     0.047 A 
HETATM    6 BR   UNL     1      40.947 -11.390   6.506  1.00  0.00    -0.048 Br
HETATM    7  C   UNL     1      42.422 -13.747   5.797  1.00  0.00     0.092 A 
HETATM    8  C   UNL     1      42.751 -14.907   5.045  1.00  0.00     0.016 A 
HETATM    9  N   UNL     1      40.474 -14.589   2.243  1.00  0.00    -0.312 N 
HETATM   10  C   UNL     1      41.196 -15.647   1.706  1.00  0.00     0.060 A 
ENDROOT
BRANCH  10  11
HETATM   11  C   UNL     1      40.968 -16.085   0.281  1.00  0.00     0.293 C 
BRANCH  11  12
HETATM   12  N   UNL     1      41.033 -14.983  -0.739  1.00  0.00    -0.062 N 
HETATM   13  H   UNL     1      40.174 -14.433  -0.615  1.00  0.00     0.280 HD
HETATM   14  C   UNL     1      42.225 -14.053  -0.600  1.00  0.00     0.261 C 
HETATM   15  C   UNL     1      42.149 -12.963  -1.675  1.00  0.00     0.195 C 
HETATM   16  O   UNL     1      42.112 -13.539  -2.983  1.00  0.00    -0.388 OA
HETATM   17  C   UNL     1      40.973 -14.386  -3.167  1.00  0.00     0.195 C 
HETATM   18  C   UNL     1      40.986 -15.544  -2.164  1.00  0.00     0.261 C 
ENDBRANCH  11  12
ENDBRANCH  10  11
BRANCH   1  19
HETATM   19  C   UNL     1      43.266 -16.982   2.420  1.00  0.00     0.296 C 
HETATM   20  O   UNL     1      44.272 -16.757   1.765  1.00  0.00    -0.259 OA
BRANCH  19  21
HETATM   21  O   UNL     1      43.023 -18.185   3.026  1.00  0.00    -0.318 OA
BRANCH  21  22
HETATM   22  C   UNL     1      44.028 -19.200   2.808  1.00  0.00     0.174 C 
HETATM   23  C   UNL     1      43.482 -20.338   1.962  1.00  0.00     0.034 C 
ENDBRANCH  21  22
ENDBRANCH  19  21
ENDBRANCH   1  19
BRANCH   9  24
HETATM   24  C   UNL     1      39.386 -13.929   1.618  1.00  0.00     0.040 A 
HETATM   25  C   UNL     1      39.507 -12.580   1.268  1.00  0.00     0.030 A 
HETATM   26  C   UNL     1      38.436 -11.937   0.647  1.00  0.00     0.002 A 
HETATM   27  C   UNL     1      37.257 -12.634   0.386  1.00  0.00     0.000 A 
HETATM   28  C   UNL     1      37.137 -13.976   0.750  1.00  0.00     0.002 A 
HETATM   29  C   UNL     1      38.201 -14.631   1.370  1.00  0.00     0.030 A 
ENDBRANCH   9  24
BRANCH   8  30
HETATM   30  C   UNL     1      43.841 -15.845   5.546  1.00  0.00     0.276 C 
BRANCH  30  31
HETATM   31  N   UNL     1      43.427 -17.228   6.006  1.00  0.00    -0.075 N 
HETATM   32  H   UNL     1      42.996 -17.657   5.168  1.00  0.00     0.279 HD
HETATM   33  C   UNL     1      44.579 -18.107   6.385  1.00  0.00     0.269 C 
HETATM   34  C   UNL     1      42.376 -17.186   7.071  1.00  0.00     0.269 C 
ENDBRANCH  30  31
ENDBRANCH   8  30
BRANCH   7  35
HETATM   35  O   UNL     1      43.164 -13.462   6.925  1.00  0.00    -0.359 OA
HETATM   36  H   UNL     1      43.870 -14.147   6.983  1.00  0.00     0.218 HD
ENDBRANCH   7  35
TORSDOF 9
ENDMDL
MODEL 8
REMARK VINA RESULT:      -6.4      2.597      6.826
REMARK  9 active torsions:
REMARK  status: ('A' for Active; 'I' for Inactive)
REMARK    1  A    between atoms: C_2  and  O_3 
REMARK    2  A    between atoms: O_3  and  C_4 
REMARK    3  A    between atoms: C_4  and  C_5 
REMARK    4  A    between atoms: C_11  and  O_12 
REMARK    5  A    between atoms: C_13  and  C_14 
REMARK    6  A    between atoms: C_14  and  N_15 
REMARK    7  A    between atoms: N_19  and  C_20 
REMARK    8  A    between atoms: C_26  and  C_27 
REMARK    9  A    between atoms: C_27  and  N_28 
ROOT
HETATM    1  C   UNL     1      40.888 -14.703   3.206  1.00  0.00     0.077 A 
HETATM    2  C   UNL     1      40.938 -13.440   2.466  1.00  0.00     0.020 A 
HETATM    3  C   UNL     1      40.827 -12.426   3.428  1.00  0.00     0.053 A 
HETATM    4  C   UNL     1      40.757 -11.060   3.090  1.00  0.00     0.053 A 
HETATM    5  C   UNL     1      40.711 -10.706   1.753  1.00  0.00     0.047 A 
HETATM    6 BR   UNL     1      40.513  -8.877   1.300  1.00  0.00    -0.048 Br
HETATM    7  C   UNL     1      40.817 -11.681   0.768  1.00  0.00     0.092 A 
HETATM    8  C   UNL     1      41.012 -13.055   1.069  1.00  0.00     0.016 A 
HETATM    9  N   UNL     1      40.837 -13.006   4.689  1.00  0.00    -0.312 N 
HETATM   10  C   UNL     1      40.834 -14.391   4.576  1.00  0.00     0.060 A 
ENDROOT
BRANCH  10  11
HETATM   11  C   UNL     1      40.575 -15.256   5.783  1.00  0.00     0.293 C 
BRANCH  11  12
HETATM   12  N   UNL     1      41.799 -15.633   6.569  1.00  0.00    -0.062 N 
HETATM   13  H   UNL     1      41.758 -15.084   7.437  1.00  0.00     0.280 HD
HETATM   14  C   UNL     1      41.896 -17.104   6.934  1.00  0.00     0.261 C 
HETATM   15  C   UNL     1      43.166 -17.342   7.759  1.00  0.00     0.195 C 
HETATM   16  O   UNL     1      44.328 -16.926   7.037  1.00  0.00    -0.388 OA
HETATM   17  C   UNL     1      44.294 -15.532   6.717  1.00  0.00     0.195 C 
HETATM   18  C   UNL     1      43.078 -15.201   5.845  1.00  0.00     0.261 C 
ENDBRANCH  11  12
ENDBRANCH  10  11
BRANCH   1  19
HETATM   19  C   UNL     1      40.796 -16.055   2.625  1.00  0.00     0.296 C 
HETATM   20  O   UNL     1      39.797 -16.472   2.061  1.00  0.00    -0.259 OA
BRANCH  19  21
HETATM   21  O   UNL     1      41.935 -16.800   2.777  1.00  0.00    -0.318 OA
BRANCH  21  22
HETATM   22  C   UNL     1      42.433 -17.419   1.570  1.00  0.00     0.174 C 
HETATM   23  C   UNL     1      43.937 -17.248   1.447  1.00  0.00     0.034 C 
ENDBRANCH  21  22
ENDBRANCH  19  21
ENDBRANCH   1  19
BRANCH   9  24
HETATM   24  C   UNL     1      40.765 -12.275   5.901  1.00  0.00     0.040 A 
HETATM   25  C   UNL     1      39.527 -12.104   6.531  1.00  0.00     0.030 A 
HETATM   26  C   UNL     1      39.463 -11.391   7.728  1.00  0.00     0.002 A 
HETATM   27  C   UNL     1      40.621 -10.848   8.283  1.00  0.00     0.000 A 
HETATM   28  C   UNL     1      41.851 -11.010   7.643  1.00  0.00     0.002 A 
HETATM   29  C   UNL     1      41.929 -11.723   6.447  1.00  0.00     0.030 A 
ENDBRANCH   9  24
BRANCH   8  30
HETATM   30  C   UNL     1      41.204 -14.055  -0.065  1.00  0.00     0.276 C 
BRANCH  30  31
HETATM   31  N   UNL     1      39.963 -14.640  -0.709  1.00  0.00    -0.075 N 
HETATM   32  H   UNL     1      39.969 -15.633  -0.420  1.00  0.00     0.279 HD
HETATM   33  C   UNL     1      38.684 -14.058  -0.190  1.00  0.00     0.269 C 
HETATM   34  C   UNL     1      40.028 -14.612  -2.204  1.00  0.00     0.269 C 
ENDBRANCH  30  31
ENDBRANCH   8  30
BRANCH   7  35
HETATM   35  O   UNL     1      40.725 -11.305  -0.557  1.00  0.00    -0.359 OA
HETATM   36  H   UNL     1      41.210 -11.983  -1.081  1.00  0.00     0.218 HD
ENDBRANCH   7  35
TORSDOF 9
ENDMDL
MODEL 9
REMARK VINA RESULT:      -6.3      1.578      2.330
REMARK  9 active torsions:
REMARK  status: ('A' for Active; 'I' for Inactive)
REMARK    1  A    between atoms: C_2  and  O_3 
REMARK    2  A    between atoms: O_3  and  C_4 
REMARK    3  A    between atoms: C_4  and  C_5 
REMARK    4  A    between atoms: C_11  and  O_12 
REMARK    5  A    between atoms: C_13  and  C_14 
REMARK    6  A    between atoms: C_14  and  N_15 
REMARK    7  A    between atoms: N_19  and  C_20 
REMARK    8  A    between atoms: C_26  and  C_27 
REMARK    9  A    between atoms: C_27  and  N_28 
ROOT
HETATM    1  C   UNL     1      39.657 -14.562   1.984  1.00  0.00     0.077 A 
HETATM    2  C   UNL     1      39.671 -13.792   3.231  1.00  0.00     0.020 A 
HETATM    3  C   UNL     1      39.060 -12.566   2.932  1.00  0.00     0.053 A 
HETATM    4  C   UNL     1      38.957 -11.518   3.868  1.00  0.00     0.053 A 
HETATM    5  C   UNL     1      39.556 -11.671   5.107  1.00  0.00     0.047 A 
HETATM    6 BR   UNL     1      39.507 -10.223   6.328  1.00  0.00    -0.048 Br
HETATM    7  C   UNL     1      40.173 -12.870   5.442  1.00  0.00     0.092 A 
HETATM    8  C   UNL     1      40.190 -13.992   4.570  1.00  0.00     0.016 A 
HETATM    9  N   UNL     1      38.582 -12.612   1.630  1.00  0.00    -0.312 N 
HETATM   10  C   UNL     1      38.968 -13.800   1.022  1.00  0.00     0.060 A 
ENDROOT
BRANCH  10  11
HETATM   11  C   UNL     1      38.810 -13.986  -0.465  1.00  0.00     0.293 C 
BRANCH  11  12
HETATM   12  N   UNL     1      40.095 -14.166  -1.223  1.00  0.00    -0.062 N 
HETATM   13  H   UNL     1      40.645 -14.850  -0.688  1.00  0.00     0.280 HD
HETATM   14  C   UNL     1      39.932 -14.683  -2.642  1.00  0.00     0.261 C 
HETATM   15  C   UNL     1      41.314 -14.852  -3.284  1.00  0.00     0.195 C 
HETATM   16  O   UNL     1      42.033 -13.616  -3.279  1.00  0.00    -0.388 OA
HETATM   17  C   UNL     1      42.248 -13.123  -1.953  1.00  0.00     0.195 C 
HETATM   18  C   UNL     1      40.914 -12.872  -1.241  1.00  0.00     0.261 C 
ENDBRANCH  11  12
ENDBRANCH  10  11
BRANCH   1  19
HETATM   19  C   UNL     1      40.335 -15.848   1.741  1.00  0.00     0.296 C 
HETATM   20  O   UNL     1      39.868 -16.923   2.083  1.00  0.00    -0.259 OA
BRANCH  19  21
HETATM   21  O   UNL     1      41.538 -15.725   1.099  1.00  0.00    -0.318 OA
BRANCH  21  22
HETATM   22  C   UNL     1      42.127 -16.967   0.653  1.00  0.00     0.174 C 
HETATM   23  C   UNL     1      43.516 -17.154   1.238  1.00  0.00     0.034 C 
ENDBRANCH  21  22
ENDBRANCH  19  21
ENDBRANCH   1  19
BRANCH   9  24
HETATM   24  C   UNL     1      37.885 -11.550   1.000  1.00  0.00     0.040 A 
HETATM   25  C   UNL     1      36.491 -11.607   0.892  1.00  0.00     0.030 A 
HETATM   26  C   UNL     1      35.810 -10.556   0.279  1.00  0.00     0.002 A 
HETATM   27  C   UNL     1      36.516  -9.465  -0.227  1.00  0.00     0.000 A 
HETATM   28  C   UNL     1      37.907  -9.420  -0.130  1.00  0.00     0.002 A 
HETATM   29  C   UNL     1      38.600 -10.464   0.484  1.00  0.00     0.030 A 
ENDBRANCH   9  24
BRANCH   8  30
HETATM   30  C   UNL     1      40.813 -15.301   5.039  1.00  0.00     0.276 C 
BRANCH  30  31
HETATM   31  N   UNL     1      42.052 -15.792   4.319  1.00  0.00    -0.075 N 
HETATM   32  H   UNL     1      41.739 -15.938   3.343  1.00  0.00     0.279 HD
HETATM   33  C   UNL     1      43.156 -14.782   4.262  1.00  0.00     0.269 C 
HETATM   34  C   UNL     1      42.525 -17.116   4.834  1.00  0.00     0.269 C 
ENDBRANCH  30  31
ENDBRANCH   8  30
BRANCH   7  35
HETATM   35  O   UNL     1      40.800 -12.980   6.667  1.00  0.00    -0.359 OA
HETATM   36  H   UNL     1      41.750 -13.168   6.486  1.00  0.00     0.218 HD
ENDBRANCH   7  35
TORSDOF 9
ENDMDL
MODEL 10
REMARK VINA RESULT:      -6.2      2.960      7.796
REMARK  9 active torsions:
REMARK  status: ('A' for Active; 'I' for Inactive)
REMARK    1  A    between atoms: C_2  and  O_3 
REMARK    2  A    between atoms: O_3  and  C_4 
REMARK    3  A    between atoms: C_4  and  C_5 
REMARK    4  A    between atoms: C_11  and  O_12 
REMARK    5  A    between atoms: C_13  and  C_14 
REMARK    6  A    between atoms: C_14  and  N_15 
REMARK    7  A    between atoms: N_19  and  C_20 
REMARK    8  A    between atoms: C_26  and  C_27 
REMARK    9  A    between atoms: C_27  and  N_28 
ROOT
HETATM    1  C   UNL     1      40.765 -13.151   2.417  1.00  0.00     0.077 A 
HETATM    2  C   UNL     1      40.333 -13.396   1.039  1.00  0.00     0.020 A 
HETATM    3  C   UNL     1      40.938 -14.601   0.655  1.00  0.00     0.053 A 
HETATM    4  C   UNL     1      40.821 -15.131  -0.645  1.00  0.00     0.053 A 
HETATM    5  C   UNL     1      40.153 -14.394  -1.608  1.00  0.00     0.047 A 
HETATM    6 BR   UNL     1      40.085 -15.058  -3.381  1.00  0.00    -0.048 Br
HETATM    7  C   UNL     1      39.540 -13.193  -1.268  1.00  0.00     0.092 A 
HETATM    8  C   UNL     1      39.532 -12.687   0.059  1.00  0.00     0.016 A 
HETATM    9  N   UNL     1      41.596 -15.139   1.752  1.00  0.00    -0.312 N 
HETATM   10  C   UNL     1      41.537 -14.255   2.823  1.00  0.00     0.060 A 
ENDROOT
BRANCH  10  11
HETATM   11  C   UNL     1      42.394 -14.474   4.044  1.00  0.00     0.293 C 
BRANCH  11  12
HETATM   12  N   UNL     1      42.094 -15.729   4.814  1.00  0.00    -0.062 N 
HETATM   13  H   UNL     1      41.659 -16.375   4.142  1.00  0.00     0.280 HD
HETATM   14  C   UNL     1      43.307 -16.411   5.421  1.00  0.00     0.261 C 
HETATM   15  C   UNL     1      42.865 -17.689   6.144  1.00  0.00     0.195 C 
HETATM   16  O   UNL     1      41.896 -17.394   7.154  1.00  0.00    -0.388 OA
HETATM   17  C   UNL     1      40.717 -16.794   6.610  1.00  0.00     0.195 C 
HETATM   18  C   UNL     1      41.050 -15.474   5.906  1.00  0.00     0.261 C 
ENDBRANCH  11  12
ENDBRANCH  10  11
BRANCH   1  19
HETATM   19  C   UNL     1      40.533 -11.926   3.203  1.00  0.00     0.296 C 
HETATM   20  O   UNL     1      41.040 -10.851   2.927  1.00  0.00    -0.259 OA
BRANCH  19  21
HETATM   21  O   UNL     1      39.697 -12.106   4.273  1.00  0.00    -0.318 OA
BRANCH  21  22
HETATM   22  C   UNL     1      40.231 -11.689   5.549  1.00  0.00     0.174 C 
HETATM   23  C   UNL     1      39.433 -12.284   6.697  1.00  0.00     0.034 C 
ENDBRANCH  21  22
ENDBRANCH  19  21
ENDBRANCH   1  19
BRANCH   9  24
HETATM   24  C   UNL     1      42.301 -16.369   1.733  1.00  0.00     0.040 A 
HETATM   25  C   UNL     1      41.606 -17.565   1.941  1.00  0.00     0.030 A 
HETATM   26  C   UNL     1      42.303 -18.773   1.914  1.00  0.00     0.002 A 
HETATM   27  C   UNL     1      43.679 -18.783   1.688  1.00  0.00     0.000 A 
HETATM   28  C   UNL     1      44.369 -17.585   1.496  1.00  0.00     0.002 A 
HETATM   29  C   UNL     1      43.683 -16.371   1.519  1.00  0.00     0.030 A 
ENDBRANCH   9  24
BRANCH   8  30
HETATM   30  C   UNL     1      38.768 -11.407   0.373  1.00  0.00     0.276 C 
BRANCH  30  31
HETATM   31  N   UNL     1      37.539 -11.515   1.253  1.00  0.00    -0.075 N 
HETATM   32  H   UNL     1      37.721 -12.345   1.844  1.00  0.00     0.279 HD
HETATM   33  C   UNL     1      37.367 -10.360   2.190  1.00  0.00     0.269 C 
HETATM   34  C   UNL     1      36.296 -11.794   0.467  1.00  0.00     0.269 C 
ENDBRANCH  30  31
ENDBRANCH   8  30
BRANCH   7  35
HETATM   35  O   UNL     1      38.918 -12.457  -2.256  1.00  0.00    -0.359 OA
HETATM   36  H   UNL     1      38.986 -12.980  -3.087  1.00  0.00     0.218 HD
ENDBRANCH   7  35
TORSDOF 9
ENDMDL
