MODEL 1
REMARK VINA RESULT:      -9.9      0.000      0.000
REMARK  9 active torsions:
REMARK  status: ('A' for Active; 'I' for Inactive)
REMARK    1  A    between atoms: C_2  and  O_3 
REMARK    2  A    between atoms: O_3  and  C_4 
REMARK    3  A    between atoms: C_7  and  C_8 
REMARK    4  A    between atoms: C_9  and  C_10 
REMARK       I    between atoms: C_10  and  N_11 
REMARK    5  A    between atoms: N_11  and  C_12 
REMARK    6  A    between atoms: C_22  and  S_23 
REMARK    7  A    between atoms: S_23  and  C_24 
REMARK    8  A    between atoms: C_24  and  C_25 
REMARK       I    between atoms: C_25  and  N_26 
REMARK    9  A    between atoms: N_26  and  C_27 
ROOT
HETATM    1  C   UNL     1      41.652 -14.155   3.706  1.00  0.00     0.106 C 
HETATM    2  C   UNL     1      41.909 -15.468   4.426  1.00  0.00     0.046 C 
HETATM    3  C   UNL     1      41.394 -15.701   5.654  1.00  0.00     0.019 C 
HETATM    4  C   UNL     1      41.674 -16.924   6.490  1.00  0.00     0.069 C 
HETATM    5  N   UNL     1      40.585 -14.740   6.240  1.00  0.00    -0.353 N 
HETATM    6  C   UNL     1      40.456 -13.432   5.794  1.00  0.00     0.088 C 
HETATM    7  C   UNL     1      41.018 -13.084   4.608  1.00  0.00     0.069 C 
HETATM    8  C   UNL     1      41.003 -11.749   4.096  1.00  0.00     0.099 C 
HETATM    9  N   UNL     1      41.019 -10.670   3.669  1.00  0.00    -0.192 NA
HETATM   10  H   UNL     1      40.172 -14.962   7.139  1.00  0.00     0.166 HD
ENDROOT
BRANCH   1  11
HETATM   11  C   UNL     1      40.741 -14.340   2.482  1.00  0.00    -0.044 A 
HETATM   12  C   UNL     1      39.396 -14.730   2.634  1.00  0.00     0.011 A 
HETATM   13  C   UNL     1      38.510 -14.673   1.558  1.00  0.00     0.037 A 
HETATM   14  C   UNL     1      38.952 -14.214   0.318  1.00  0.00     0.068 A 
HETATM   15  C   UNL     1      40.300 -13.912   0.133  1.00  0.00     0.037 A 
HETATM   16  C   UNL     1      41.191 -13.967   1.208  1.00  0.00     0.011 A 
BRANCH  14  17
HETATM   17  O   UNL     1      38.136 -14.030  -0.764  1.00  0.00    -0.352 OA
BRANCH  17  18
HETATM   18  C   UNL     1      38.827 -14.022  -2.019  1.00  0.00     0.171 C 
HETATM   19  C   UNL     1      37.944 -14.689  -3.058  1.00  0.00     0.034 C 
ENDBRANCH  17  18
ENDBRANCH  14  17
ENDBRANCH   1  11
BRANCH   6  20
HETATM   20  S   UNL     1      39.459 -12.263   6.640  1.00  0.00    -0.102 SA
BRANCH  20  21
HETATM   21  C   UNL     1      40.650 -11.074   7.325  1.00  0.00     0.184 C 
BRANCH  21  22
HETATM   22  C   UNL     1      40.396 -10.798   8.811  1.00  0.00     0.231 C 
HETATM   23  N   UNL     1      41.513 -10.953   9.613  1.00  0.00    -0.327 N 
HETATM   24  H   UNL     1      42.325 -11.346   9.147  1.00  0.00     0.169 HD
HETATM   25  O   UNL     1      39.297 -10.386   9.176  1.00  0.00    -0.272 OA
BRANCH  23  26
HETATM   26  C   UNL     1      41.649 -10.727  10.994  1.00  0.00     0.034 A 
HETATM   27  C   UNL     1      40.793 -11.247  11.961  1.00  0.00     0.030 A 
HETATM   28  C   UNL     1      41.005 -10.967  13.317  1.00  0.00     0.009 A 
HETATM   29  C   UNL     1      42.068 -10.152  13.722  1.00  0.00    -0.062 A 
HETATM   30  C   UNL     1      42.316  -9.874  15.174  1.00  0.00     0.048 C 
HETATM   31  C   UNL     1      42.933  -9.641  12.752  1.00  0.00     0.009 A 
HETATM   32  C   UNL     1      42.724  -9.925  11.399  1.00  0.00     0.030 A 
ENDBRANCH  23  26
ENDBRANCH  21  22
ENDBRANCH  20  21
ENDBRANCH   6  20
BRANCH   2  33
HETATM   33  C   UNL     1      42.835 -16.405   3.735  1.00  0.00     0.255 C 
HETATM   34  N   UNL     1      42.414 -17.717   3.797  1.00  0.00    -0.323 N 
HETATM   35  H   UNL     1      41.513 -17.886   4.223  1.00  0.00     0.169 HD
HETATM   36  O   UNL     1      43.827 -15.957   3.177  1.00  0.00    -0.268 OA
BRANCH  34  37
HETATM   37  C   UNL     1      43.110 -18.861   3.354  1.00  0.00     0.035 A 
HETATM   38  C   UNL     1      42.893 -19.478   2.122  1.00  0.00     0.029 A 
HETATM   39  C   UNL     1      43.649 -20.593   1.745  1.00  0.00     0.002 A 
HETATM   40  C   UNL     1      44.630 -21.097   2.595  1.00  0.00     0.000 A 
HETATM   41  C   UNL     1      44.853 -20.491   3.827  1.00  0.00     0.002 A 
HETATM   42  C   UNL     1      44.095 -19.379   4.207  1.00  0.00     0.029 A 
ENDBRANCH  34  37
ENDBRANCH   2  33
TORSDOF 9
ENDMDL
MODEL 2
REMARK VINA RESULT:      -9.6      2.477      9.456
REMARK  9 active torsions:
REMARK  status: ('A' for Active; 'I' for Inactive)
REMARK    1  A    between atoms: C_2  and  O_3 
REMARK    2  A    between atoms: O_3  and  C_4 
REMARK    3  A    between atoms: C_7  and  C_8 
REMARK    4  A    between atoms: C_9  and  C_10 
REMARK       I    between atoms: C_10  and  N_11 
REMARK    5  A    between atoms: N_11  and  C_12 
REMARK    6  A    between atoms: C_22  and  S_23 
REMARK    7  A    between atoms: S_23  and  C_24 
REMARK    8  A    between atoms: C_24  and  C_25 
REMARK       I    between atoms: C_25  and  N_26 
REMARK    9  A    between atoms: N_26  and  C_27 
ROOT
HETATM    1  C   UNL     1      41.907 -12.969   5.199  1.00  0.00     0.106 C 
HETATM    2  C   UNL     1      40.598 -12.219   5.387  1.00  0.00     0.046 C 
HETATM    3  C   UNL     1      39.755 -12.020   4.349  1.00  0.00     0.019 C 
HETATM    4  C   UNL     1      38.489 -11.205   4.409  1.00  0.00     0.069 C 
HETATM    5  N   UNL     1      40.076 -12.548   3.108  1.00  0.00    -0.353 N 
HETATM    6  C   UNL     1      41.321 -13.052   2.757  1.00  0.00     0.088 C 
HETATM    7  C   UNL     1      42.264 -13.204   3.723  1.00  0.00     0.069 C 
HETATM    8  C   UNL     1      43.597 -13.646   3.454  1.00  0.00     0.099 C 
HETATM    9  N   UNL     1      44.689 -13.985   3.257  1.00  0.00    -0.192 NA
HETATM   10  H   UNL     1      39.402 -12.428   2.361  1.00  0.00     0.166 HD
ENDROOT
BRANCH   1  11
HETATM   11  C   UNL     1      41.892 -14.335   5.904  1.00  0.00    -0.044 A 
HETATM   12  C   UNL     1      40.792 -15.204   5.774  1.00  0.00     0.011 A 
HETATM   13  C   UNL     1      40.870 -16.526   6.213  1.00  0.00     0.037 A 
HETATM   14  C   UNL     1      42.053 -17.001   6.777  1.00  0.00     0.068 A 
HETATM   15  C   UNL     1      43.116 -16.126   6.995  1.00  0.00     0.037 A 
HETATM   16  C   UNL     1      43.042 -14.801   6.556  1.00  0.00     0.011 A 
BRANCH  14  17
HETATM   17  O   UNL     1      42.255 -18.304   7.145  1.00  0.00    -0.352 OA
BRANCH  17  18
HETATM   18  C   UNL     1      43.569 -18.567   7.650  1.00  0.00     0.171 C 
HETATM   19  C   UNL     1      43.821 -20.062   7.573  1.00  0.00     0.034 C 
ENDBRANCH  17  18
ENDBRANCH  14  17
ENDBRANCH   1  11
BRANCH   6  20
HETATM   20  S   UNL     1      41.657 -13.639   1.139  1.00  0.00    -0.102 SA
BRANCH  20  21
HETATM   21  C   UNL     1      40.417 -14.939   0.869  1.00  0.00     0.184 C 
BRANCH  21  22
HETATM   22  C   UNL     1      40.806 -16.254   1.550  1.00  0.00     0.231 C 
HETATM   23  N   UNL     1      42.168 -16.505   1.557  1.00  0.00    -0.327 N 
HETATM   24  H   UNL     1      42.726 -15.857   1.009  1.00  0.00     0.169 HD
HETATM   25  O   UNL     1      39.945 -16.934   2.105  1.00  0.00    -0.272 OA
BRANCH  23  26
HETATM   26  C   UNL     1      42.867 -17.575   2.141  1.00  0.00     0.034 A 
HETATM   27  C   UNL     1      43.072 -18.807   1.525  1.00  0.00     0.030 A 
HETATM   28  C   UNL     1      43.782 -19.819   2.185  1.00  0.00     0.009 A 
HETATM   29  C   UNL     1      44.284 -19.615   3.475  1.00  0.00    -0.062 A 
HETATM   30  C   UNL     1      45.070 -20.685   4.172  1.00  0.00     0.048 C 
HETATM   31  C   UNL     1      44.090 -18.375   4.087  1.00  0.00     0.009 A 
HETATM   32  C   UNL     1      43.385 -17.365   3.426  1.00  0.00     0.030 A 
ENDBRANCH  23  26
ENDBRANCH  21  22
ENDBRANCH  20  21
ENDBRANCH   6  20
BRANCH   2  33
HETATM   33  C   UNL     1      40.379 -11.646   6.742  1.00  0.00     0.255 C 
HETATM   34  N   UNL     1      41.301 -10.674   7.067  1.00  0.00    -0.323 N 
HETATM   35  H   UNL     1      41.957 -10.409   6.344  1.00  0.00     0.169 HD
HETATM   36  O   UNL     1      39.434 -12.043   7.410  1.00  0.00    -0.268 OA
BRANCH  34  37
HETATM   37  C   UNL     1      41.453 -10.018   8.306  1.00  0.00     0.035 A 
HETATM   38  C   UNL     1      40.729  -8.887   8.685  1.00  0.00     0.029 A 
HETATM   39  C   UNL     1      40.918  -8.314   9.947  1.00  0.00     0.002 A 
HETATM   40  C   UNL     1      41.829  -8.870  10.842  1.00  0.00     0.000 A 
HETATM   41  C   UNL     1      42.558  -9.997  10.473  1.00  0.00     0.002 A 
HETATM   42  C   UNL     1      42.373 -10.566   9.211  1.00  0.00     0.029 A 
ENDBRANCH  34  37
ENDBRANCH   2  33
TORSDOF 9
ENDMDL
MODEL 3
REMARK VINA RESULT:      -9.6      1.826      5.622
REMARK  9 active torsions:
REMARK  status: ('A' for Active; 'I' for Inactive)
REMARK    1  A    between atoms: C_2  and  O_3 
REMARK    2  A    between atoms: O_3  and  C_4 
REMARK    3  A    between atoms: C_7  and  C_8 
REMARK    4  A    between atoms: C_9  and  C_10 
REMARK       I    between atoms: C_10  and  N_11 
REMARK    5  A    between atoms: N_11  and  C_12 
REMARK    6  A    between atoms: C_22  and  S_23 
REMARK    7  A    between atoms: S_23  and  C_24 
REMARK    8  A    between atoms: C_24  and  C_25 
REMARK       I    between atoms: C_25  and  N_26 
REMARK    9  A    between atoms: N_26  and  C_27 
ROOT
HETATM    1  C   UNL     1      40.139 -14.857   2.922  1.00  0.00     0.106 C 
HETATM    2  C   UNL     1      39.813 -13.774   1.907  1.00  0.00     0.046 C 
HETATM    3  C   UNL     1      40.154 -12.485   2.129  1.00  0.00     0.019 C 
HETATM    4  C   UNL     1      39.787 -11.328   1.236  1.00  0.00     0.069 C 
HETATM    5  N   UNL     1      40.850 -12.162   3.284  1.00  0.00    -0.353 N 
HETATM    6  C   UNL     1      41.012 -13.003   4.376  1.00  0.00     0.088 C 
HETATM    7  C   UNL     1      40.615 -14.297   4.272  1.00  0.00     0.069 C 
HETATM    8  C   UNL     1      40.672 -15.223   5.360  1.00  0.00     0.099 C 
HETATM    9  N   UNL     1      40.692 -15.988   6.233  1.00  0.00    -0.192 NA
HETATM   10  H   UNL     1      41.138 -11.197   3.401  1.00  0.00     0.166 HD
ENDROOT
BRANCH   1  11
HETATM   11  C   UNL     1      41.218 -15.822   2.405  1.00  0.00    -0.044 A 
HETATM   12  C   UNL     1      42.586 -15.511   2.529  1.00  0.00     0.011 A 
HETATM   13  C   UNL     1      43.564 -16.474   2.278  1.00  0.00     0.037 A 
HETATM   14  C   UNL     1      43.187 -17.766   1.913  1.00  0.00     0.068 A 
HETATM   15  C   UNL     1      41.842 -18.060   1.698  1.00  0.00     0.037 A 
HETATM   16  C   UNL     1      40.859 -17.098   1.949  1.00  0.00     0.011 A 
BRANCH  14  17
HETATM   17  O   UNL     1      44.068 -18.800   1.744  1.00  0.00    -0.352 OA
BRANCH  17  18
HETATM   18  C   UNL     1      43.872 -19.884   2.659  1.00  0.00     0.171 C 
HETATM   19  C   UNL     1      43.822 -21.178   1.865  1.00  0.00     0.034 C 
ENDBRANCH  17  18
ENDBRANCH  14  17
ENDBRANCH   1  11
BRANCH   6  20
HETATM   20  S   UNL     1      41.852 -12.483   5.825  1.00  0.00    -0.102 SA
BRANCH  20  21
HETATM   21  C   UNL     1      40.766 -11.214   6.540  1.00  0.00     0.184 C 
BRANCH  21  22
HETATM   22  C   UNL     1      41.461 -10.424   7.654  1.00  0.00     0.231 C 
HETATM   23  N   UNL     1      41.413 -11.037   8.894  1.00  0.00    -0.327 N 
HETATM   24  H   UNL     1      40.825 -11.864   8.942  1.00  0.00     0.169 HD
HETATM   25  O   UNL     1      42.069  -9.392   7.383  1.00  0.00    -0.272 OA
BRANCH  23  26
HETATM   26  C   UNL     1      41.992 -10.625  10.108  1.00  0.00     0.034 A 
HETATM   27  C   UNL     1      43.319 -10.853  10.460  1.00  0.00     0.030 A 
HETATM   28  C   UNL     1      43.810 -10.406  11.693  1.00  0.00     0.009 A 
HETATM   29  C   UNL     1      42.975  -9.737  12.596  1.00  0.00    -0.062 A 
HETATM   30  C   UNL     1      43.505  -9.232  13.904  1.00  0.00     0.048 C 
HETATM   31  C   UNL     1      41.647  -9.499  12.236  1.00  0.00     0.009 A 
HETATM   32  C   UNL     1      41.159  -9.941  11.004  1.00  0.00     0.030 A 
ENDBRANCH  23  26
ENDBRANCH  21  22
ENDBRANCH  20  21
ENDBRANCH   6  20
BRANCH   2  33
HETATM   33  C   UNL     1      39.015 -14.219   0.732  1.00  0.00     0.255 C 
HETATM   34  N   UNL     1      39.779 -14.376  -0.405  1.00  0.00    -0.323 N 
HETATM   35  H   UNL     1      40.777 -14.252  -0.303  1.00  0.00     0.169 HD
HETATM   36  O   UNL     1      37.817 -14.423   0.871  1.00  0.00    -0.268 OA
BRANCH  34  37
HETATM   37  C   UNL     1      39.324 -14.668  -1.707  1.00  0.00     0.035 A 
HETATM   38  C   UNL     1      39.986 -15.519  -2.593  1.00  0.00     0.029 A 
HETATM   39  C   UNL     1      39.451 -15.780  -3.859  1.00  0.00     0.002 A 
HETATM   40  C   UNL     1      38.248 -15.196  -4.247  1.00  0.00     0.000 A 
HETATM   41  C   UNL     1      37.580 -14.345  -3.372  1.00  0.00     0.002 A 
HETATM   42  C   UNL     1      38.117 -14.079  -2.109  1.00  0.00     0.029 A 
ENDBRANCH  34  37
ENDBRANCH   2  33
TORSDOF 9
ENDMDL
MODEL 4
REMARK VINA RESULT:      -9.5      2.951      9.021
REMARK  9 active torsions:
REMARK  status: ('A' for Active; 'I' for Inactive)
REMARK    1  A    between atoms: C_2  and  O_3 
REMARK    2  A    between atoms: O_3  and  C_4 
REMARK    3  A    between atoms: C_7  and  C_8 
REMARK    4  A    between atoms: C_9  and  C_10 
REMARK       I    between atoms: C_10  and  N_11 
REMARK    5  A    between atoms: N_11  and  C_12 
REMARK    6  A    between atoms: C_22  and  S_23 
REMARK    7  A    between atoms: S_23  and  C_24 
REMARK    8  A    between atoms: C_24  and  C_25 
REMARK       I    between atoms: C_25  and  N_26 
REMARK    9  A    between atoms: N_26  and  C_27 
ROOT
HETATM    1  C   UNL     1      41.464 -15.277   4.395  1.00  0.00     0.106 C 
HETATM    2  C   UNL     1      41.828 -16.151   3.207  1.00  0.00     0.046 C 
HETATM    3  C   UNL     1      41.844 -15.649   1.952  1.00  0.00     0.019 C 
HETATM    4  C   UNL     1      42.091 -16.454   0.702  1.00  0.00     0.069 C 
HETATM    5  N   UNL     1      41.563 -14.305   1.760  1.00  0.00    -0.353 N 
HETATM    6  C   UNL     1      41.010 -13.465   2.716  1.00  0.00     0.088 C 
HETATM    7  C   UNL     1      40.874 -13.918   3.989  1.00  0.00     0.069 C 
HETATM    8  C   UNL     1      40.251 -13.159   5.028  1.00  0.00     0.099 C 
HETATM    9  N   UNL     1      39.734 -12.569   5.883  1.00  0.00    -0.192 NA
HETATM   10  H   UNL     1      41.632 -13.943   0.816  1.00  0.00     0.166 HD
ENDROOT
BRANCH   1  11
HETATM   11  C   UNL     1      42.674 -15.014   5.306  1.00  0.00    -0.044 A 
HETATM   12  C   UNL     1      43.622 -14.025   4.980  1.00  0.00     0.011 A 
HETATM   13  C   UNL     1      44.583 -13.623   5.908  1.00  0.00     0.037 A 
HETATM   14  C   UNL     1      44.602 -14.196   7.179  1.00  0.00     0.068 A 
HETATM   15  C   UNL     1      43.728 -15.238   7.482  1.00  0.00     0.037 A 
HETATM   16  C   UNL     1      42.764 -15.643   6.555  1.00  0.00     0.011 A 
BRANCH  14  17
HETATM   17  O   UNL     1      45.441 -13.796   8.185  1.00  0.00    -0.352 OA
BRANCH  17  18
HETATM   18  C   UNL     1      45.276 -12.426   8.568  1.00  0.00     0.171 C 
HETATM   19  C   UNL     1      44.543 -12.385   9.897  1.00  0.00     0.034 C 
ENDBRANCH  17  18
ENDBRANCH  14  17
ENDBRANCH   1  11
BRANCH   6  20
HETATM   20  S   UNL     1      40.626 -11.790   2.362  1.00  0.00    -0.102 SA
BRANCH  20  21
HETATM   21  C   UNL     1      38.873 -11.825   1.885  1.00  0.00     0.184 C 
BRANCH  21  22
HETATM   22  C   UNL     1      38.566 -12.967   0.911  1.00  0.00     0.231 C 
HETATM   23  N   UNL     1      39.216 -12.861  -0.306  1.00  0.00    -0.327 N 
HETATM   24  H   UNL     1      39.714 -11.988  -0.452  1.00  0.00     0.169 HD
HETATM   25  O   UNL     1      37.870 -13.911   1.277  1.00  0.00    -0.272 OA
BRANCH  23  26
HETATM   26  C   UNL     1      39.208 -13.751  -1.394  1.00  0.00     0.034 A 
HETATM   27  C   UNL     1      40.308 -14.502  -1.800  1.00  0.00     0.030 A 
HETATM   28  C   UNL     1      40.208 -15.365  -2.899  1.00  0.00     0.009 A 
HETATM   29  C   UNL     1      39.010 -15.478  -3.614  1.00  0.00    -0.062 A 
HETATM   30  C   UNL     1      38.891 -16.423  -4.772  1.00  0.00     0.048 C 
HETATM   31  C   UNL     1      37.904 -14.734  -3.198  1.00  0.00     0.009 A 
HETATM   32  C   UNL     1      38.003 -13.877  -2.099  1.00  0.00     0.030 A 
ENDBRANCH  23  26
ENDBRANCH  21  22
ENDBRANCH  20  21
ENDBRANCH   6  20
BRANCH   2  33
HETATM   33  C   UNL     1      42.054 -17.589   3.516  1.00  0.00     0.255 C 
HETATM   34  N   UNL     1      43.196 -18.090   2.928  1.00  0.00    -0.323 N 
HETATM   35  H   UNL     1      43.779 -17.430   2.432  1.00  0.00     0.169 HD
HETATM   36  O   UNL     1      41.265 -18.171   4.248  1.00  0.00    -0.268 OA
BRANCH  34  37
HETATM   37  C   UNL     1      43.637 -19.429   2.918  1.00  0.00     0.035 A 
HETATM   38  C   UNL     1      43.394 -20.325   1.876  1.00  0.00     0.029 A 
HETATM   39  C   UNL     1      43.894 -21.629   1.931  1.00  0.00     0.002 A 
HETATM   40  C   UNL     1      44.645 -22.049   3.026  1.00  0.00     0.000 A 
HETATM   41  C   UNL     1      44.892 -21.165   4.072  1.00  0.00     0.002 A 
HETATM   42  C   UNL     1      44.388 -19.862   4.020  1.00  0.00     0.029 A 
ENDBRANCH  34  37
ENDBRANCH   2  33
TORSDOF 9
ENDMDL
MODEL 5
REMARK VINA RESULT:      -9.4      4.664      9.261
REMARK  9 active torsions:
REMARK  status: ('A' for Active; 'I' for Inactive)
REMARK    1  A    between atoms: C_2  and  O_3 
REMARK    2  A    between atoms: O_3  and  C_4 
REMARK    3  A    between atoms: C_7  and  C_8 
REMARK    4  A    between atoms: C_9  and  C_10 
REMARK       I    between atoms: C_10  and  N_11 
REMARK    5  A    between atoms: N_11  and  C_12 
REMARK    6  A    between atoms: C_22  and  S_23 
REMARK    7  A    between atoms: S_23  and  C_24 
REMARK    8  A    between atoms: C_24  and  C_25 
REMARK       I    between atoms: C_25  and  N_26 
REMARK    9  A    between atoms: N_26  and  C_27 
ROOT
HETATM    1  C   UNL     1      39.102 -13.358   1.667  1.00  0.00     0.106 C 
HETATM    2  C   UNL     1      38.617 -12.043   2.256  1.00  0.00     0.046 C 
HETATM    3  C   UNL     1      38.862 -11.726   3.547  1.00  0.00     0.019 C 
HETATM    4  C   UNL     1      38.338 -10.500   4.250  1.00  0.00     0.069 C 
HETATM    5  N   UNL     1      39.605 -12.599   4.327  1.00  0.00    -0.353 N 
HETATM    6  C   UNL     1      39.911 -13.908   3.981  1.00  0.00     0.088 C 
HETATM    7  C   UNL     1      39.619 -14.342   2.728  1.00  0.00     0.069 C 
HETATM    8  C   UNL     1      39.829 -15.689   2.297  1.00  0.00     0.099 C 
HETATM    9  N   UNL     1      39.972 -16.781   1.931  1.00  0.00    -0.192 NA
HETATM   10  H   UNL     1      39.818 -12.313   5.276  1.00  0.00     0.166 HD
ENDROOT
BRANCH   1  11
HETATM   11  C   UNL     1      40.221 -13.146   0.635  1.00  0.00    -0.044 A 
HETATM   12  C   UNL     1      40.052 -13.542  -0.705  1.00  0.00     0.011 A 
HETATM   13  C   UNL     1      40.961 -13.145  -1.687  1.00  0.00     0.037 A 
HETATM   14  C   UNL     1      42.043 -12.335  -1.345  1.00  0.00     0.068 A 
HETATM   15  C   UNL     1      42.270 -12.013  -0.008  1.00  0.00     0.037 A 
HETATM   16  C   UNL     1      41.363 -12.408   0.978  1.00  0.00     0.011 A 
BRANCH  14  17
HETATM   17  O   UNL     1      42.927 -11.816  -2.252  1.00  0.00    -0.352 OA
BRANCH  17  18
HETATM   18  C   UNL     1      42.899 -10.387  -2.337  1.00  0.00     0.171 C 
HETATM   19  C   UNL     1      42.530  -9.998  -3.757  1.00  0.00     0.034 C 
ENDBRANCH  17  18
ENDBRANCH  14  17
ENDBRANCH   1  11
BRANCH   6  20
HETATM   20  S   UNL     1      40.802 -14.964   5.063  1.00  0.00    -0.102 SA
BRANCH  20  21
HETATM   21  C   UNL     1      42.546 -14.627   4.681  1.00  0.00     0.184 C 
BRANCH  21  22
HETATM   22  C   UNL     1      43.168 -15.729   3.818  1.00  0.00     0.231 C 
HETATM   23  N   UNL     1      43.031 -17.002   4.343  1.00  0.00    -0.327 N 
HETATM   24  H   UNL     1      42.650 -17.039   5.284  1.00  0.00     0.169 HD
HETATM   25  O   UNL     1      43.646 -15.449   2.721  1.00  0.00    -0.272 OA
BRANCH  23  26
HETATM   26  C   UNL     1      43.427 -18.234   3.793  1.00  0.00     0.034 A 
HETATM   27  C   UNL     1      44.351 -19.094   4.380  1.00  0.00     0.030 A 
HETATM   28  C   UNL     1      44.687 -20.303   3.758  1.00  0.00     0.009 A 
HETATM   29  C   UNL     1      44.111 -20.661   2.534  1.00  0.00    -0.062 A 
HETATM   30  C   UNL     1      44.446 -21.969   1.879  1.00  0.00     0.048 C 
HETATM   31  C   UNL     1      43.175 -19.804   1.952  1.00  0.00     0.009 A 
HETATM   32  C   UNL     1      42.837 -18.600   2.576  1.00  0.00     0.030 A 
ENDBRANCH  23  26
ENDBRANCH  21  22
ENDBRANCH  20  21
ENDBRANCH   6  20
BRANCH   2  33
HETATM   33  C   UNL     1      37.781 -11.208   1.352  1.00  0.00     0.255 C 
HETATM   34  N   UNL     1      36.479 -11.653   1.264  1.00  0.00    -0.323 N 
HETATM   35  H   UNL     1      36.221 -12.425   1.864  1.00  0.00     0.169 HD
HETATM   36  O   UNL     1      38.283 -10.233   0.810  1.00  0.00    -0.268 OA
BRANCH  34  37
HETATM   37  C   UNL     1      35.464 -11.168   0.413  1.00  0.00     0.035 A 
HETATM   38  C   UNL     1      35.577 -11.099  -0.976  1.00  0.00     0.029 A 
HETATM   39  C   UNL     1      34.510 -10.634  -1.751  1.00  0.00     0.002 A 
HETATM   40  C   UNL     1      33.321 -10.237  -1.144  1.00  0.00     0.000 A 
HETATM   41  C   UNL     1      33.198 -10.300   0.240  1.00  0.00     0.002 A 
HETATM   42  C   UNL     1      34.266 -10.761   1.016  1.00  0.00     0.029 A 
ENDBRANCH  34  37
ENDBRANCH   2  33
TORSDOF 9
ENDMDL
MODEL 6
REMARK VINA RESULT:      -9.3      3.863      7.072
REMARK  9 active torsions:
REMARK  status: ('A' for Active; 'I' for Inactive)
REMARK    1  A    between atoms: C_2  and  O_3 
REMARK    2  A    between atoms: O_3  and  C_4 
REMARK    3  A    between atoms: C_7  and  C_8 
REMARK    4  A    between atoms: C_9  and  C_10 
REMARK       I    between atoms: C_10  and  N_11 
REMARK    5  A    between atoms: N_11  and  C_12 
REMARK    6  A    between atoms: C_22  and  S_23 
REMARK    7  A    between atoms: S_23  and  C_24 
REMARK    8  A    between atoms: C_24  and  C_25 
REMARK       I    between atoms: C_25  and  N_26 
REMARK    9  A    between atoms: N_26  and  C_27 
ROOT
HETATM    1  C   UNL     1      40.566 -15.680   2.449  1.00  0.00     0.106 C 
HETATM    2  C   UNL     1      41.833 -16.514   2.375  1.00  0.00     0.046 C 
HETATM    3  C   UNL     1      42.585 -16.540   1.252  1.00  0.00     0.019 C 
HETATM    4  C   UNL     1      43.797 -17.411   1.043  1.00  0.00     0.069 C 
HETATM    5  N   UNL     1      42.210 -15.756   0.171  1.00  0.00    -0.353 N 
HETATM    6  C   UNL     1      40.978 -15.132   0.032  1.00  0.00     0.088 C 
HETATM    7  C   UNL     1      40.119 -15.133   1.084  1.00  0.00     0.069 C 
HETATM    8  C   UNL     1      38.802 -14.581   1.020  1.00  0.00     0.099 C 
HETATM    9  N   UNL     1      37.722 -14.157   0.987  1.00  0.00    -0.192 NA
HETATM   10  H   UNL     1      42.819 -15.755  -0.639  1.00  0.00     0.166 HD
ENDROOT
BRANCH   1  11
HETATM   11  C   UNL     1      40.719 -14.488   3.408  1.00  0.00    -0.044 A 
HETATM   12  C   UNL     1      39.890 -14.356   4.538  1.00  0.00     0.011 A 
HETATM   13  C   UNL     1      40.175 -13.415   5.528  1.00  0.00     0.037 A 
HETATM   14  C   UNL     1      41.300 -12.601   5.408  1.00  0.00     0.068 A 
HETATM   15  C   UNL     1      42.076 -12.659   4.252  1.00  0.00     0.037 A 
HETATM   16  C   UNL     1      41.795 -13.601   3.258  1.00  0.00     0.011 A 
BRANCH  14  17
HETATM   17  O   UNL     1      41.713 -11.722   6.372  1.00  0.00    -0.352 OA
BRANCH  17  18
HETATM   18  C   UNL     1      41.234 -10.386   6.183  1.00  0.00     0.171 C 
HETATM   19  C   UNL     1      40.091 -10.144   7.152  1.00  0.00     0.034 C 
ENDBRANCH  17  18
ENDBRANCH  14  17
ENDBRANCH   1  11
BRANCH   6  20
HETATM   20  S   UNL     1      40.565 -14.213  -1.404  1.00  0.00    -0.102 SA
BRANCH  20  21
HETATM   21  C   UNL     1      41.820 -12.900  -1.470  1.00  0.00     0.184 C 
BRANCH  21  22
HETATM   22  C   UNL     1      41.760 -11.987  -0.241  1.00  0.00     0.231 C 
HETATM   23  N   UNL     1      40.488 -11.536   0.066  1.00  0.00    -0.327 N 
HETATM   24  H   UNL     1      39.776 -11.761  -0.622  1.00  0.00     0.169 HD
HETATM   25  O   UNL     1      42.775 -11.790   0.423  1.00  0.00    -0.272 OA
BRANCH  23  26
HETATM   26  C   UNL     1      40.068 -10.741   1.147  1.00  0.00     0.034 A 
HETATM   27  C   UNL     1      39.328 -11.214   2.227  1.00  0.00     0.030 A 
HETATM   28  C   UNL     1      38.952 -10.347   3.261  1.00  0.00     0.009 A 
HETATM   29  C   UNL     1      39.299  -8.992   3.220  1.00  0.00    -0.062 A 
HETATM   30  C   UNL     1      38.924  -8.067   4.339  1.00  0.00     0.048 C 
HETATM   31  C   UNL     1      40.052  -8.521   2.142  1.00  0.00     0.009 A 
HETATM   32  C   UNL     1      40.431  -9.388   1.114  1.00  0.00     0.030 A 
ENDBRANCH  23  26
ENDBRANCH  21  22
ENDBRANCH  20  21
ENDBRANCH   6  20
BRANCH   2  33
HETATM   33  C   UNL     1      42.112 -17.361   3.566  1.00  0.00     0.255 C 
HETATM   34  N   UNL     1      42.855 -16.706   4.525  1.00  0.00    -0.323 N 
HETATM   35  H   UNL     1      43.056 -15.730   4.357  1.00  0.00     0.169 HD
HETATM   36  O   UNL     1      41.662 -18.498   3.606  1.00  0.00    -0.268 OA
BRANCH  34  37
HETATM   37  C   UNL     1      43.390 -17.249   5.712  1.00  0.00     0.035 A 
HETATM   38  C   UNL     1      44.532 -18.049   5.759  1.00  0.00     0.029 A 
HETATM   39  C   UNL     1      45.015 -18.523   6.983  1.00  0.00     0.002 A 
HETATM   40  C   UNL     1      44.363 -18.198   8.170  1.00  0.00     0.000 A 
HETATM   41  C   UNL     1      43.222 -17.403   8.134  1.00  0.00     0.002 A 
HETATM   42  C   UNL     1      42.735 -16.933   6.911  1.00  0.00     0.029 A 
ENDBRANCH  34  37
ENDBRANCH   2  33
TORSDOF 9
ENDMDL
MODEL 7
REMARK VINA RESULT:      -9.2      3.560     10.044
REMARK  9 active torsions:
REMARK  status: ('A' for Active; 'I' for Inactive)
REMARK    1  A    between atoms: C_2  and  O_3 
REMARK    2  A    between atoms: O_3  and  C_4 
REMARK    3  A    between atoms: C_7  and  C_8 
REMARK    4  A    between atoms: C_9  and  C_10 
REMARK       I    between atoms: C_10  and  N_11 
REMARK    5  A    between atoms: N_11  and  C_12 
REMARK    6  A    between atoms: C_22  and  S_23 
REMARK    7  A    between atoms: S_23  and  C_24 
REMARK    8  A    between atoms: C_24  and  C_25 
REMARK       I    between atoms: C_25  and  N_26 
REMARK    9  A    between atoms: N_26  and  C_27 
ROOT
HETATM    1  C   UNL     1      40.550 -15.365   2.193  1.00  0.00     0.106 C 
HETATM    2  C   UNL     1      41.772 -16.250   2.375  1.00  0.00     0.046 C 
HETATM    3  C   UNL     1      42.655 -16.433   1.368  1.00  0.00     0.019 C 
HETATM    4  C   UNL     1      43.837 -17.367   1.415  1.00  0.00     0.069 C 
HETATM    5  N   UNL     1      42.459 -15.765   0.169  1.00  0.00    -0.353 N 
HETATM    6  C   UNL     1      41.288 -15.115  -0.195  1.00  0.00     0.088 C 
HETATM    7  C   UNL     1      40.306 -14.963   0.730  1.00  0.00     0.069 C 
HETATM    8  C   UNL     1      39.037 -14.373   0.436  1.00  0.00     0.099 C 
HETATM    9  N   UNL     1      37.994 -13.915   0.216  1.00  0.00    -0.192 NA
HETATM   10  H   UNL     1      43.164 -15.880  -0.550  1.00  0.00     0.166 HD
ENDROOT
BRANCH   1  11
HETATM   11  C   UNL     1      40.645 -14.078   3.027  1.00  0.00    -0.044 A 
HETATM   12  C   UNL     1      39.746 -13.832   4.083  1.00  0.00     0.011 A 
HETATM   13  C   UNL     1      39.970 -12.790   4.983  1.00  0.00     0.037 A 
HETATM   14  C   UNL     1      41.101 -11.987   4.848  1.00  0.00     0.068 A 
HETATM   15  C   UNL     1      41.948 -12.162   3.756  1.00  0.00     0.037 A 
HETATM   16  C   UNL     1      41.728 -13.206   2.852  1.00  0.00     0.011 A 
BRANCH  14  17
HETATM   17  O   UNL     1      41.455 -11.008   5.738  1.00  0.00    -0.352 OA
BRANCH  17  18
HETATM   18  C   UNL     1      41.057 -11.279   7.087  1.00  0.00     0.171 C 
HETATM   19  C   UNL     1      42.126 -10.737   8.019  1.00  0.00     0.034 C 
ENDBRANCH  17  18
ENDBRANCH  14  17
ENDBRANCH   1  11
BRANCH   6  20
HETATM   20  S   UNL     1      41.106 -14.353  -1.764  1.00  0.00    -0.102 SA
BRANCH  20  21
HETATM   21  C   UNL     1      40.711 -15.727  -2.885  1.00  0.00     0.184 C 
BRANCH  21  22
HETATM   22  C   UNL     1      39.424 -15.470  -3.676  1.00  0.00     0.231 C 
HETATM   23  N   UNL     1      38.634 -14.459  -3.158  1.00  0.00    -0.327 N 
HETATM   24  H   UNL     1      38.937 -14.097  -2.258  1.00  0.00     0.169 HD
HETATM   25  O   UNL     1      39.219 -16.080  -4.724  1.00  0.00    -0.272 OA
BRANCH  23  26
HETATM   26  C   UNL     1      37.432 -13.929  -3.659  1.00  0.00     0.034 A 
HETATM   27  C   UNL     1      36.495 -14.662  -4.381  1.00  0.00     0.030 A 
HETATM   28  C   UNL     1      35.322 -14.050  -4.843  1.00  0.00     0.009 A 
HETATM   29  C   UNL     1      35.080 -12.694  -4.600  1.00  0.00    -0.062 A 
HETATM   30  C   UNL     1      33.813 -12.043  -5.068  1.00  0.00     0.048 C 
HETATM   31  C   UNL     1      36.015 -11.963  -3.865  1.00  0.00     0.009 A 
HETATM   32  C   UNL     1      37.182 -12.575  -3.400  1.00  0.00     0.030 A 
ENDBRANCH  23  26
ENDBRANCH  21  22
ENDBRANCH  20  21
ENDBRANCH   6  20
BRANCH   2  33
HETATM   33  C   UNL     1      41.855 -16.964   3.678  1.00  0.00     0.255 C 
HETATM   34  N   UNL     1      42.932 -16.562   4.440  1.00  0.00    -0.323 N 
HETATM   35  H   UNL     1      43.484 -15.797   4.079  1.00  0.00     0.169 HD
HETATM   36  O   UNL     1      40.994 -17.786   3.962  1.00  0.00    -0.268 OA
BRANCH  34  37
HETATM   37  C   UNL     1      43.369 -17.114   5.662  1.00  0.00     0.035 A 
HETATM   38  C   UNL     1      44.392 -18.056   5.772  1.00  0.00     0.029 A 
HETATM   39  C   UNL     1      44.786 -18.530   7.027  1.00  0.00     0.002 A 
HETATM   40  C   UNL     1      44.164 -18.064   8.183  1.00  0.00     0.000 A 
HETATM   41  C   UNL     1      43.141 -17.126   8.084  1.00  0.00     0.002 A 
HETATM   42  C   UNL     1      42.743 -16.655   6.830  1.00  0.00     0.029 A 
ENDBRANCH  34  37
ENDBRANCH   2  33
TORSDOF 9
ENDMDL
MODEL 8
REMARK VINA RESULT:      -9.2      2.407      8.993
REMARK  9 active torsions:
REMARK  status: ('A' for Active; 'I' for Inactive)
REMARK    1  A    between atoms: C_2  and  O_3 
REMARK    2  A    between atoms: O_3  and  C_4 
REMARK    3  A    between atoms: C_7  and  C_8 
REMARK    4  A    between atoms: C_9  and  C_10 
REMARK       I    between atoms: C_10  and  N_11 
REMARK    5  A    between atoms: N_11  and  C_12 
REMARK    6  A    between atoms: C_22  and  S_23 
REMARK    7  A    between atoms: S_23  and  C_24 
REMARK    8  A    between atoms: C_24  and  C_25 
REMARK       I    between atoms: C_25  and  N_26 
REMARK    9  A    between atoms: N_26  and  C_27 
ROOT
HETATM    1  C   UNL     1      41.522 -11.301   4.329  1.00  0.00     0.106 C 
HETATM    2  C   UNL     1      40.730 -10.505   5.352  1.00  0.00     0.046 C 
HETATM    3  C   UNL     1      39.458 -10.121   5.103  1.00  0.00     0.019 C 
HETATM    4  C   UNL     1      38.627  -9.245   6.007  1.00  0.00     0.069 C 
HETATM    5  N   UNL     1      38.860 -10.499   3.911  1.00  0.00    -0.353 N 
HETATM    6  C   UNL     1      39.533 -11.027   2.818  1.00  0.00     0.088 C 
HETATM    7  C   UNL     1      40.842 -11.361   2.951  1.00  0.00     0.069 C 
HETATM    8  C   UNL     1      41.642 -11.844   1.869  1.00  0.00     0.099 C 
HETATM    9  N   UNL     1      42.315 -12.219   1.001  1.00  0.00    -0.192 NA
HETATM   10  H   UNL     1      37.890 -10.241   3.773  1.00  0.00     0.166 HD
ENDROOT
BRANCH   1  11
HETATM   11  C   UNL     1      41.773 -12.744   4.794  1.00  0.00    -0.044 A 
HETATM   12  C   UNL     1      43.082 -13.215   5.012  1.00  0.00     0.011 A 
HETATM   13  C   UNL     1      43.305 -14.435   5.652  1.00  0.00     0.037 A 
HETATM   14  C   UNL     1      42.222 -15.194   6.094  1.00  0.00     0.068 A 
HETATM   15  C   UNL     1      40.923 -14.782   5.803  1.00  0.00     0.037 A 
HETATM   16  C   UNL     1      40.696 -13.561   5.163  1.00  0.00     0.011 A 
BRANCH  14  17
HETATM   17  O   UNL     1      42.344 -16.350   6.817  1.00  0.00    -0.352 OA
BRANCH  17  18
HETATM   18  C   UNL     1      43.211 -17.321   6.218  1.00  0.00     0.171 C 
HETATM   19  C   UNL     1      42.362 -18.292   5.417  1.00  0.00     0.034 C 
ENDBRANCH  17  18
ENDBRANCH  14  17
ENDBRANCH   1  11
BRANCH   6  20
HETATM   20  S   UNL     1      38.702 -11.416   1.323  1.00  0.00    -0.102 SA
BRANCH  20  21
HETATM   21  C   UNL     1      38.197 -13.148   1.530  1.00  0.00     0.184 C 
BRANCH  21  22
HETATM   22  C   UNL     1      39.280 -14.123   1.058  1.00  0.00     0.231 C 
HETATM   23  N   UNL     1      39.866 -14.852   2.078  1.00  0.00    -0.327 N 
HETATM   24  H   UNL     1      39.600 -14.569   3.016  1.00  0.00     0.169 HD
HETATM   25  O   UNL     1      39.493 -14.264  -0.144  1.00  0.00    -0.272 OA
BRANCH  23  26
HETATM   26  C   UNL     1      40.840 -15.863   1.997  1.00  0.00     0.034 A 
HETATM   27  C   UNL     1      40.571 -17.182   1.640  1.00  0.00     0.030 A 
HETATM   28  C   UNL     1      41.606 -18.125   1.586  1.00  0.00     0.009 A 
HETATM   29  C   UNL     1      42.921 -17.763   1.901  1.00  0.00    -0.062 A 
HETATM   30  C   UNL     1      44.035 -18.762   1.815  1.00  0.00     0.048 C 
HETATM   31  C   UNL     1      43.191 -16.437   2.246  1.00  0.00     0.009 A 
HETATM   32  C   UNL     1      42.159 -15.496   2.295  1.00  0.00     0.030 A 
ENDBRANCH  23  26
ENDBRANCH  21  22
ENDBRANCH  20  21
ENDBRANCH   6  20
BRANCH   2  33
HETATM   33  C   UNL     1      41.483 -10.102   6.571  1.00  0.00     0.255 C 
HETATM   34  N   UNL     1      41.568 -11.111   7.505  1.00  0.00    -0.323 N 
HETATM   35  H   UNL     1      41.191 -12.011   7.239  1.00  0.00     0.169 HD
HETATM   36  O   UNL     1      41.962  -8.977   6.629  1.00  0.00    -0.268 OA
BRANCH  34  37
HETATM   37  C   UNL     1      42.104 -11.029   8.807  1.00  0.00     0.035 A 
HETATM   38  C   UNL     1      43.453 -11.219   9.111  1.00  0.00     0.029 A 
HETATM   39  C   UNL     1      43.908 -11.090  10.427  1.00  0.00     0.002 A 
HETATM   40  C   UNL     1      43.020 -10.766  11.449  1.00  0.00     0.000 A 
HETATM   41  C   UNL     1      41.673 -10.576  11.158  1.00  0.00     0.002 A 
HETATM   42  C   UNL     1      41.216 -10.710   9.844  1.00  0.00     0.029 A 
ENDBRANCH  34  37
ENDBRANCH   2  33
TORSDOF 9
ENDMDL
MODEL 9
REMARK VINA RESULT:      -9.2      1.697      2.201
REMARK  9 active torsions:
REMARK  status: ('A' for Active; 'I' for Inactive)
REMARK    1  A    between atoms: C_2  and  O_3 
REMARK    2  A    between atoms: O_3  and  C_4 
REMARK    3  A    between atoms: C_7  and  C_8 
REMARK    4  A    between atoms: C_9  and  C_10 
REMARK       I    between atoms: C_10  and  N_11 
REMARK    5  A    between atoms: N_11  and  C_12 
REMARK    6  A    between atoms: C_22  and  S_23 
REMARK    7  A    between atoms: S_23  and  C_24 
REMARK    8  A    between atoms: C_24  and  C_25 
REMARK       I    between atoms: C_25  and  N_26 
REMARK    9  A    between atoms: N_26  and  C_27 
ROOT
HETATM    1  C   UNL     1      41.382 -13.144   2.552  1.00  0.00     0.106 C 
HETATM    2  C   UNL     1      41.411 -14.233   3.611  1.00  0.00     0.046 C 
HETATM    3  C   UNL     1      40.581 -14.190   4.677  1.00  0.00     0.019 C 
HETATM    4  C   UNL     1      40.603 -15.163   5.828  1.00  0.00     0.069 C 
HETATM    5  N   UNL     1      39.663 -13.157   4.775  1.00  0.00    -0.353 N 
HETATM    6  C   UNL     1      39.682 -12.001   4.007  1.00  0.00     0.088 C 
HETATM    7  C   UNL     1      40.549 -11.920   2.965  1.00  0.00     0.069 C 
HETATM    8  C   UNL     1      40.697 -10.749   2.159  1.00  0.00     0.099 C 
HETATM    9  N   UNL     1      40.848  -9.804   1.503  1.00  0.00    -0.192 NA
HETATM   10  H   UNL     1      39.018 -13.177   5.557  1.00  0.00     0.166 HD
ENDROOT
BRANCH   1  11
HETATM   11  C   UNL     1      40.831 -13.660   1.213  1.00  0.00    -0.044 A 
HETATM   12  C   UNL     1      39.455 -13.904   1.044  1.00  0.00     0.011 A 
HETATM   13  C   UNL     1      38.922 -14.145  -0.223  1.00  0.00     0.037 A 
HETATM   14  C   UNL     1      39.757 -14.133  -1.340  1.00  0.00     0.068 A 
HETATM   15  C   UNL     1      41.132 -13.983  -1.174  1.00  0.00     0.037 A 
HETATM   16  C   UNL     1      41.669 -13.741   0.093  1.00  0.00     0.011 A 
BRANCH  14  17
HETATM   17  O   UNL     1      39.311 -14.260  -2.628  1.00  0.00    -0.352 OA
BRANCH  17  18
HETATM   18  C   UNL     1      40.029 -15.232  -3.397  1.00  0.00     0.171 C 
HETATM   19  C   UNL     1      39.023 -16.134  -4.088  1.00  0.00     0.034 C 
ENDBRANCH  17  18
ENDBRANCH  14  17
ENDBRANCH   1  11
BRANCH   6  20
HETATM   20  S   UNL     1      38.516 -10.713   4.247  1.00  0.00    -0.102 SA
BRANCH  20  21
HETATM   21  C   UNL     1      39.412  -9.479   5.236  1.00  0.00     0.184 C 
BRANCH  21  22
HETATM   22  C   UNL     1      39.813 -10.026   6.610  1.00  0.00     0.231 C 
HETATM   23  N   UNL     1      40.913  -9.399   7.168  1.00  0.00    -0.327 N 
HETATM   24  H   UNL     1      41.391  -8.746   6.555  1.00  0.00     0.169 HD
HETATM   25  O   UNL     1      39.118 -10.882   7.153  1.00  0.00    -0.272 OA
BRANCH  23  26
HETATM   26  C   UNL     1      41.507  -9.607   8.426  1.00  0.00     0.034 A 
HETATM   27  C   UNL     1      41.202  -8.870   9.567  1.00  0.00     0.030 A 
HETATM   28  C   UNL     1      41.846  -9.147  10.780  1.00  0.00     0.009 A 
HETATM   29  C   UNL     1      42.813 -10.155  10.863  1.00  0.00    -0.062 A 
HETATM   30  C   UNL     1      43.482 -10.474  12.166  1.00  0.00     0.048 C 
HETATM   31  C   UNL     1      43.109 -10.901   9.720  1.00  0.00     0.009 A 
HETATM   32  C   UNL     1      42.462 -10.628   8.512  1.00  0.00     0.030 A 
ENDBRANCH  23  26
ENDBRANCH  21  22
ENDBRANCH  20  21
ENDBRANCH   6  20
BRANCH   2  33
HETATM   33  C   UNL     1      42.472 -15.263   3.440  1.00  0.00     0.255 C 
HETATM   34  N   UNL     1      41.963 -16.517   3.180  1.00  0.00    -0.323 N 
HETATM   35  H   UNL     1      40.962 -16.586   3.059  1.00  0.00     0.169 HD
HETATM   36  O   UNL     1      43.646 -14.925   3.515  1.00  0.00    -0.268 OA
BRANCH  34  37
HETATM   37  C   UNL     1      42.679 -17.728   3.084  1.00  0.00     0.035 A 
HETATM   38  C   UNL     1      42.844 -18.447   1.900  1.00  0.00     0.029 A 
HETATM   39  C   UNL     1      43.596 -19.626   1.885  1.00  0.00     0.002 A 
HETATM   40  C   UNL     1      44.193 -20.094   3.053  1.00  0.00     0.000 A 
HETATM   41  C   UNL     1      44.033 -19.386   4.240  1.00  0.00     0.002 A 
HETATM   42  C   UNL     1      43.278 -18.210   4.257  1.00  0.00     0.029 A 
ENDBRANCH  34  37
ENDBRANCH   2  33
TORSDOF 9
ENDMDL
MODEL 10
REMARK VINA RESULT:      -8.7      4.601      9.240
REMARK  9 active torsions:
REMARK  status: ('A' for Active; 'I' for Inactive)
REMARK    1  A    between atoms: C_2  and  O_3 
REMARK    2  A    between atoms: O_3  and  C_4 
REMARK    3  A    between atoms: C_7  and  C_8 
REMARK    4  A    between atoms: C_9  and  C_10 
REMARK       I    between atoms: C_10  and  N_11 
REMARK    5  A    between atoms: N_11  and  C_12 
REMARK    6  A    between atoms: C_22  and  S_23 
REMARK    7  A    between atoms: S_23  and  C_24 
REMARK    8  A    between atoms: C_24  and  C_25 
REMARK       I    between atoms: C_25  and  N_26 
REMARK    9  A    between atoms: N_26  and  C_27 
ROOT
HETATM    1  C   UNL     1      40.311 -12.369   1.506  1.00  0.00     0.106 C 
HETATM    2  C   UNL     1      40.025 -11.094   2.282  1.00  0.00     0.046 C 
HETATM    3  C   UNL     1      40.742 -10.772   3.382  1.00  0.00     0.019 C 
HETATM    4  C   UNL     1      40.470  -9.589   4.275  1.00  0.00     0.069 C 
HETATM    5  N   UNL     1      41.781 -11.601   3.775  1.00  0.00    -0.353 N 
HETATM    6  C   UNL     1      42.000 -12.884   3.294  1.00  0.00     0.088 C 
HETATM    7  C   UNL     1      41.261 -13.326   2.243  1.00  0.00     0.069 C 
HETATM    8  C   UNL     1      41.360 -14.653   1.720  1.00  0.00     0.099 C 
HETATM    9  N   UNL     1      41.409 -15.729   1.290  1.00  0.00    -0.192 NA
HETATM   10  H   UNL     1      42.335 -11.309   4.573  1.00  0.00     0.166 HD
ENDROOT
BRANCH   1  11
HETATM   11  C   UNL     1      40.916 -12.075   0.124  1.00  0.00    -0.044 A 
HETATM   12  C   UNL     1      42.213 -11.541   0.001  1.00  0.00     0.011 A 
HETATM   13  C   UNL     1      42.851 -11.491  -1.239  1.00  0.00     0.037 A 
HETATM   14  C   UNL     1      42.207 -11.988  -2.371  1.00  0.00     0.068 A 
HETATM   15  C   UNL     1      40.890 -12.434  -2.278  1.00  0.00     0.037 A 
HETATM   16  C   UNL     1      40.247 -12.486  -1.037  1.00  0.00     0.011 A 
BRANCH  14  17
HETATM   17  O   UNL     1      42.789 -12.072  -3.607  1.00  0.00    -0.352 OA
BRANCH  17  18
HETATM   18  C   UNL     1      42.032 -11.448  -4.650  1.00  0.00     0.171 C 
HETATM   19  C   UNL     1      42.522 -10.020  -4.809  1.00  0.00     0.034 C 
ENDBRANCH  17  18
ENDBRANCH  14  17
ENDBRANCH   1  11
BRANCH   6  20
HETATM   20  S   UNL     1      43.304 -13.888   3.900  1.00  0.00    -0.102 SA
BRANCH  20  21
HETATM   21  C   UNL     1      42.534 -14.871   5.220  1.00  0.00     0.184 C 
BRANCH  21  22
HETATM   22  C   UNL     1      42.421 -16.351   4.843  1.00  0.00     0.231 C 
HETATM   23  N   UNL     1      43.371 -16.775   3.930  1.00  0.00    -0.327 N 
HETATM   24  H   UNL     1      43.943 -16.036   3.531  1.00  0.00     0.169 HD
HETATM   25  O   UNL     1      41.597 -17.065   5.410  1.00  0.00    -0.272 OA
BRANCH  23  26
HETATM   26  C   UNL     1      43.592 -18.065   3.416  1.00  0.00     0.034 A 
HETATM   27  C   UNL     1      43.084 -18.523   2.204  1.00  0.00     0.030 A 
HETATM   28  C   UNL     1      43.354 -19.828   1.772  1.00  0.00     0.009 A 
HETATM   29  C   UNL     1      44.125 -20.695   2.554  1.00  0.00    -0.062 A 
HETATM   30  C   UNL     1      44.442 -22.083   2.081  1.00  0.00     0.048 C 
HETATM   31  C   UNL     1      44.645 -20.230   3.764  1.00  0.00     0.009 A 
HETATM   32  C   UNL     1      44.378 -18.927   4.192  1.00  0.00     0.030 A 
ENDBRANCH  23  26
ENDBRANCH  21  22
ENDBRANCH  20  21
ENDBRANCH   6  20
BRANCH   2  33
HETATM   33  C   UNL     1      38.853 -10.308   1.810  1.00  0.00     0.255 C 
HETATM   34  N   UNL     1      37.654 -10.951   2.030  1.00  0.00    -0.323 N 
HETATM   35  H   UNL     1      37.691 -11.822   2.542  1.00  0.00     0.169 HD
HETATM   36  O   UNL     1      39.038  -9.204   1.315  1.00  0.00    -0.268 OA
BRANCH  34  37
HETATM   37  C   UNL     1      36.373 -10.545   1.601  1.00  0.00     0.035 A 
HETATM   38  C   UNL     1      35.668  -9.474   2.152  1.00  0.00     0.029 A 
HETATM   39  C   UNL     1      34.414  -9.116   1.647  1.00  0.00     0.002 A 
HETATM   40  C   UNL     1      33.856  -9.823   0.585  1.00  0.00     0.000 A 
HETATM   41  C   UNL     1      34.550 -10.894   0.029  1.00  0.00     0.002 A 
HETATM   42  C   UNL     1      35.801 -11.255   0.536  1.00  0.00     0.029 A 
ENDBRANCH  34  37
ENDBRANCH   2  33
TORSDOF 9
ENDMDL
