MODEL 1
REMARK VINA RESULT:      -8.3      0.000      0.000
REMARK  2 active torsions:
REMARK  status: ('A' for Active; 'I' for Inactive)
REMARK    1  A    between atoms: C_8  and  S_9 
REMARK    2  A    between atoms: S_9  and  C_10 
ROOT
HETATM    1  C   UNL     1      44.002 -21.881   1.851  1.00  0.00     0.002 A 
HETATM    2  C   UNL     1      43.627 -20.538   1.853  1.00  0.00     0.034 A 
HETATM    3  C   UNL     1      43.850 -19.729   2.960  1.00  0.00     0.087 A 
HETATM    4  C   UNL     1      44.470 -20.284   4.109  1.00  0.00     0.087 A 
HETATM    5  N   UNL     1      44.716 -19.535   5.204  1.00  0.00    -0.231 NA
HETATM    6  C   UNL     1      44.309 -18.246   5.181  1.00  0.00     0.167 A 
HETATM    7 CL   UNL     1      44.772 -17.381   6.583  1.00  0.00    -0.059 Cl
HETATM    8  C   UNL     1      43.702 -17.720   4.065  1.00  0.00     0.192 A 
HETATM    9  N   UNL     1      43.484 -18.433   2.924  1.00  0.00    -0.232 NA
HETATM   10  C   UNL     1      44.841 -21.623   4.093  1.00  0.00     0.034 A 
HETATM   11  C   UNL     1      44.612 -22.425   2.975  1.00  0.00     0.002 A 
ENDROOT
BRANCH   8  12
HETATM   12  S   UNL     1      43.179 -16.042   3.943  1.00  0.00     0.200 S 
HETATM   13  O   UNL     1      43.535 -15.346   5.168  1.00  0.00    -0.221 OA
HETATM   14  O   UNL     1      43.609 -15.486   2.677  1.00  0.00    -0.221 OA
BRANCH  12  15
HETATM   15  C   UNL     1      41.384 -16.123   3.920  1.00  0.00     0.118 C 
HETATM   16  C   UNL     1      40.781 -14.713   4.030  1.00  0.00     0.048 C 
HETATM   17  C   UNL     1      40.897 -14.123   5.429  1.00  0.00     0.233 C 
HETATM   18  N   UNL     1      40.296 -15.068   6.414  1.00  0.00    -0.075 N 
HETATM   19  H   UNL     1      39.277 -15.114   6.281  1.00  0.00     0.277 HD
HETATM   20  H   UNL     1      40.426 -14.669   7.356  1.00  0.00     0.277 HD
HETATM   21  C   UNL     1      40.875 -16.442   6.416  1.00  0.00     0.233 C 
HETATM   22  C   UNL     1      40.807 -17.035   5.012  1.00  0.00     0.048 C 
ENDBRANCH  12  15
ENDBRANCH   8  12
TORSDOF 2
ENDMDL
MODEL 2
REMARK VINA RESULT:      -8.2      1.879      2.443
REMARK  2 active torsions:
REMARK  status: ('A' for Active; 'I' for Inactive)
REMARK    1  A    between atoms: C_8  and  S_9 
REMARK    2  A    between atoms: S_9  and  C_10 
ROOT
HETATM    1  C   UNL     1      43.683 -21.017   1.749  1.00  0.00     0.002 A 
HETATM    2  C   UNL     1      43.010 -19.827   2.028  1.00  0.00     0.034 A 
HETATM    3  C   UNL     1      43.282 -19.100   3.180  1.00  0.00     0.087 A 
HETATM    4  C   UNL     1      44.260 -19.580   4.088  1.00  0.00     0.087 A 
HETATM    5  N   UNL     1      44.564 -18.903   5.215  1.00  0.00    -0.231 NA
HETATM    6  C   UNL     1      43.869 -17.773   5.468  1.00  0.00     0.167 A 
HETATM    7 CL   UNL     1      44.421 -16.956   6.868  1.00  0.00    -0.059 Cl
HETATM    8  C   UNL     1      42.917 -17.319   4.586  1.00  0.00     0.192 A 
HETATM    9  N   UNL     1      42.620 -17.950   3.414  1.00  0.00    -0.232 NA
HETATM   10  C   UNL     1      44.925 -20.765   3.796  1.00  0.00     0.034 A 
HETATM   11  C   UNL     1      44.644 -21.486   2.635  1.00  0.00     0.002 A 
ENDROOT
BRANCH   8  12
HETATM   12  S   UNL     1      41.997 -15.836   4.826  1.00  0.00     0.200 S 
HETATM   13  O   UNL     1      41.152 -15.611   3.665  1.00  0.00    -0.221 OA
HETATM   14  O   UNL     1      41.387 -15.846   6.139  1.00  0.00    -0.221 OA
BRANCH  12  15
HETATM   15  C   UNL     1      43.227 -14.526   4.808  1.00  0.00     0.118 C 
HETATM   16  C   UNL     1      42.783 -13.358   5.704  1.00  0.00     0.048 C 
HETATM   17  C   UNL     1      41.658 -12.533   5.094  1.00  0.00     0.233 C 
HETATM   18  N   UNL     1      42.068 -12.072   3.735  1.00  0.00    -0.075 N 
HETATM   19  H   UNL     1      42.828 -11.382   3.812  1.00  0.00     0.277 HD
HETATM   20  H   UNL     1      41.276 -11.553   3.325  1.00  0.00     0.277 HD
HETATM   21  C   UNL     1      42.451 -13.152   2.782  1.00  0.00     0.233 C 
HETATM   22  C   UNL     1      43.547 -14.018   3.395  1.00  0.00     0.048 C 
ENDBRANCH  12  15
ENDBRANCH   8  12
TORSDOF 2
ENDMDL
MODEL 3
REMARK VINA RESULT:      -8.2      1.594      2.149
REMARK  2 active torsions:
REMARK  status: ('A' for Active; 'I' for Inactive)
REMARK    1  A    between atoms: C_8  and  S_9 
REMARK    2  A    between atoms: S_9  and  C_10 
ROOT
HETATM    1  C   UNL     1      44.964 -22.120   4.778  1.00  0.00     0.002 A 
HETATM    2  C   UNL     1      44.665 -20.790   5.076  1.00  0.00     0.034 A 
HETATM    3  C   UNL     1      44.227 -19.912   4.092  1.00  0.00     0.087 A 
HETATM    4  C   UNL     1      44.085 -20.380   2.760  1.00  0.00     0.087 A 
HETATM    5  N   UNL     1      43.654 -19.567   1.774  1.00  0.00    -0.231 NA
HETATM    6  C   UNL     1      43.406 -18.278   2.093  1.00  0.00     0.167 A 
HETATM    7 CL   UNL     1      42.768 -17.382   0.782  1.00  0.00    -0.059 Cl
HETATM    8  C   UNL     1      43.553 -17.832   3.386  1.00  0.00     0.192 A 
HETATM    9  N   UNL     1      43.938 -18.637   4.417  1.00  0.00    -0.232 NA
HETATM   10  C   UNL     1      44.384 -21.707   2.478  1.00  0.00     0.034 A 
HETATM   11  C   UNL     1      44.823 -22.579   3.475  1.00  0.00     0.002 A 
ENDROOT
BRANCH   8  12
HETATM   12  S   UNL     1      43.212 -16.179   3.889  1.00  0.00     0.200 S 
HETATM   13  O   UNL     1      43.602 -16.018   5.280  1.00  0.00    -0.221 OA
HETATM   14  O   UNL     1      43.735 -15.251   2.908  1.00  0.00    -0.221 OA
BRANCH  12  15
HETATM   15  C   UNL     1      41.420 -16.050   3.857  1.00  0.00     0.118 C 
HETATM   16  C   UNL     1      40.982 -14.587   4.032  1.00  0.00     0.048 C 
HETATM   17  C   UNL     1      41.155 -14.080   5.457  1.00  0.00     0.233 C 
HETATM   18  N   UNL     1      40.440 -14.994   6.395  1.00  0.00    -0.075 N 
HETATM   19  H   UNL     1      39.424 -14.916   6.257  1.00  0.00     0.277 HD
HETATM   20  H   UNL     1      40.608 -14.656   7.355  1.00  0.00     0.277 HD
HETATM   21  C   UNL     1      40.857 -16.425   6.334  1.00  0.00     0.233 C 
HETATM   22  C   UNL     1      40.733 -16.939   4.903  1.00  0.00     0.048 C 
ENDBRANCH  12  15
ENDBRANCH   8  12
TORSDOF 2
ENDMDL
MODEL 4
REMARK VINA RESULT:      -7.9      2.032      2.394
REMARK  2 active torsions:
REMARK  status: ('A' for Active; 'I' for Inactive)
REMARK    1  A    between atoms: C_8  and  S_9 
REMARK    2  A    between atoms: S_9  and  C_10 
ROOT
HETATM    1  C   UNL     1      43.923 -21.807   1.866  1.00  0.00     0.002 A 
HETATM    2  C   UNL     1      43.348 -20.541   1.749  1.00  0.00     0.034 A 
HETATM    3  C   UNL     1      43.485 -19.593   2.755  1.00  0.00     0.087 A 
HETATM    4  C   UNL     1      44.222 -19.922   3.921  1.00  0.00     0.087 A 
HETATM    5  N   UNL     1      44.390 -19.031   4.920  1.00  0.00    -0.231 NA
HETATM    6  C   UNL     1      43.791 -17.826   4.786  1.00  0.00     0.167 A 
HETATM    7 CL   UNL     1      44.167 -16.755   6.067  1.00  0.00    -0.059 Cl
HETATM    8  C   UNL     1      43.073 -17.519   3.655  1.00  0.00     0.192 A 
HETATM    9  N   UNL     1      42.925 -18.377   2.605  1.00  0.00    -0.232 NA
HETATM   10  C   UNL     1      44.791 -21.186   4.024  1.00  0.00     0.034 A 
HETATM   11  C   UNL     1      44.647 -22.129   3.006  1.00  0.00     0.002 A 
ENDROOT
BRANCH   8  12
HETATM   12  S   UNL     1      42.297 -15.960   3.389  1.00  0.00     0.200 S 
HETATM   13  O   UNL     1      41.333 -15.725   4.450  1.00  0.00    -0.221 OA
HETATM   14  O   UNL     1      43.303 -14.952   3.127  1.00  0.00    -0.221 OA
BRANCH  12  15
HETATM   15  C   UNL     1      41.339 -16.175   1.885  1.00  0.00     0.118 C 
HETATM   16  C   UNL     1      41.928 -15.328   0.745  1.00  0.00     0.048 C 
HETATM   17  C   UNL     1      41.648 -13.839   0.903  1.00  0.00     0.233 C 
HETATM   18  N   UNL     1      40.179 -13.628   1.057  1.00  0.00    -0.075 N 
HETATM   19  H   UNL     1      39.698 -13.848   0.174  1.00  0.00     0.277 HD
HETATM   20  H   UNL     1      40.018 -12.620   1.206  1.00  0.00     0.277 HD
HETATM   21  C   UNL     1      39.542 -14.366   2.185  1.00  0.00     0.233 C 
HETATM   22  C   UNL     1      39.848 -15.855   2.068  1.00  0.00     0.048 C 
ENDBRANCH  12  15
ENDBRANCH   8  12
TORSDOF 2
ENDMDL
MODEL 5
REMARK VINA RESULT:      -7.6      2.795      4.195
REMARK  2 active torsions:
REMARK  status: ('A' for Active; 'I' for Inactive)
REMARK    1  A    between atoms: C_8  and  S_9 
REMARK    2  A    between atoms: S_9  and  C_10 
ROOT
HETATM    1  C   UNL     1      43.584 -17.321   8.289  1.00  0.00     0.002 A 
HETATM    2  C   UNL     1      43.405 -16.694   7.055  1.00  0.00     0.034 A 
HETATM    3  C   UNL     1      43.539 -17.397   5.864  1.00  0.00     0.087 A 
HETATM    4  C   UNL     1      43.866 -18.776   5.907  1.00  0.00     0.087 A 
HETATM    5  N   UNL     1      43.998 -19.501   4.777  1.00  0.00    -0.231 NA
HETATM    6  C   UNL     1      43.850 -18.852   3.600  1.00  0.00     0.167 A 
HETATM    7 CL   UNL     1      43.936 -19.901   2.251  1.00  0.00    -0.059 Cl
HETATM    8  C   UNL     1      43.539 -17.513   3.570  1.00  0.00     0.192 A 
HETATM    9  N   UNL     1      43.350 -16.762   4.691  1.00  0.00    -0.232 NA
HETATM   10  C   UNL     1      44.039 -19.389   7.142  1.00  0.00     0.034 A 
HETATM   11  C   UNL     1      43.902 -18.673   8.331  1.00  0.00     0.002 A 
ENDROOT
BRANCH   8  12
HETATM   12  S   UNL     1      43.292 -16.607   2.079  1.00  0.00     0.200 S 
HETATM   13  O   UNL     1      43.020 -15.218   2.410  1.00  0.00    -0.221 OA
HETATM   14  O   UNL     1      44.357 -16.903   1.144  1.00  0.00    -0.221 OA
BRANCH  12  15
HETATM   15  C   UNL     1      41.767 -17.262   1.392  1.00  0.00     0.118 C 
HETATM   16  C   UNL     1      41.530 -16.705  -0.021  1.00  0.00     0.048 C 
HETATM   17  C   UNL     1      41.093 -15.246  -0.020  1.00  0.00     0.233 C 
HETATM   18  N   UNL     1      39.891 -15.092   0.851  1.00  0.00    -0.075 N 
HETATM   19  H   UNL     1      39.082 -15.562   0.422  1.00  0.00     0.277 HD
HETATM   20  H   UNL     1      39.641 -14.092   0.872  1.00  0.00     0.277 HD
HETATM   21  C   UNL     1      40.062 -15.550   2.260  1.00  0.00     0.233 C 
HETATM   22  C   UNL     1      40.542 -16.998   2.280  1.00  0.00     0.048 C 
ENDBRANCH  12  15
ENDBRANCH   8  12
TORSDOF 2
ENDMDL
MODEL 6
REMARK VINA RESULT:      -7.6      2.539      3.430
REMARK  2 active torsions:
REMARK  status: ('A' for Active; 'I' for Inactive)
REMARK    1  A    between atoms: C_8  and  S_9 
REMARK    2  A    between atoms: S_9  and  C_10 
ROOT
HETATM    1  C   UNL     1      44.901 -20.704   3.821  1.00  0.00     0.002 A 
HETATM    2  C   UNL     1      44.365 -19.607   4.495  1.00  0.00     0.034 A 
HETATM    3  C   UNL     1      43.424 -18.781   3.893  1.00  0.00     0.087 A 
HETATM    4  C   UNL     1      43.005 -19.062   2.567  1.00  0.00     0.087 A 
HETATM    5  N   UNL     1      42.086 -18.294   1.945  1.00  0.00    -0.231 NA
HETATM    6  C   UNL     1      41.614 -17.220   2.617  1.00  0.00     0.167 A 
HETATM    7 CL   UNL     1      40.383 -16.393   1.762  1.00  0.00    -0.059 Cl
HETATM    8  C   UNL     1      42.032 -16.953   3.899  1.00  0.00     0.192 A 
HETATM    9  N   UNL     1      42.920 -17.735   4.576  1.00  0.00    -0.232 NA
HETATM   10  C   UNL     1      43.544 -20.159   1.908  1.00  0.00     0.034 A 
HETATM   11  C   UNL     1      44.489 -20.981   2.524  1.00  0.00     0.002 A 
ENDROOT
BRANCH   8  12
HETATM   12  S   UNL     1      41.435 -15.598   4.854  1.00  0.00     0.200 S 
HETATM   13  O   UNL     1      40.345 -14.958   4.137  1.00  0.00    -0.221 OA
HETATM   14  O   UNL     1      41.214 -16.022   6.221  1.00  0.00    -0.221 OA
BRANCH  12  15
HETATM   15  C   UNL     1      42.787 -14.414   4.865  1.00  0.00     0.118 C 
HETATM   16  C   UNL     1      42.348 -13.103   5.536  1.00  0.00     0.048 C 
HETATM   17  C   UNL     1      41.413 -12.272   4.667  1.00  0.00     0.233 C 
HETATM   18  N   UNL     1      42.054 -12.036   3.341  1.00  0.00    -0.075 N 
HETATM   19  H   UNL     1      42.865 -11.411   3.447  1.00  0.00     0.277 HD
HETATM   20  H   UNL     1      41.386 -11.511   2.755  1.00  0.00     0.277 HD
HETATM   21  C   UNL     1      42.449 -13.264   2.594  1.00  0.00     0.233 C 
HETATM   22  C   UNL     1      43.352 -14.132   3.465  1.00  0.00     0.048 C 
ENDBRANCH  12  15
ENDBRANCH   8  12
TORSDOF 2
ENDMDL
MODEL 7
REMARK VINA RESULT:      -7.6      1.676      2.235
REMARK  2 active torsions:
REMARK  status: ('A' for Active; 'I' for Inactive)
REMARK    1  A    between atoms: C_8  and  S_9 
REMARK    2  A    between atoms: S_9  and  C_10 
ROOT
HETATM    1  C   UNL     1      44.564 -22.292   2.665  1.00  0.00     0.002 A 
HETATM    2  C   UNL     1      44.117 -21.086   2.125  1.00  0.00     0.034 A 
HETATM    3  C   UNL     1      43.969 -19.954   2.917  1.00  0.00     0.087 A 
HETATM    4  C   UNL     1      44.276 -20.031   4.299  1.00  0.00     0.087 A 
HETATM    5  N   UNL     1      44.155 -18.955   5.105  1.00  0.00    -0.231 NA
HETATM    6  C   UNL     1      43.688 -17.813   4.553  1.00  0.00     0.167 A 
HETATM    7 CL   UNL     1      43.683 -16.502   5.652  1.00  0.00    -0.059 Cl
HETATM    8  C   UNL     1      43.387 -17.751   3.213  1.00  0.00     0.192 A 
HETATM    9  N   UNL     1      43.544 -18.803   2.360  1.00  0.00    -0.232 NA
HETATM   10  C   UNL     1      44.722 -21.237   4.824  1.00  0.00     0.034 A 
HETATM   11  C   UNL     1      44.868 -22.368   4.019  1.00  0.00     0.002 A 
ENDROOT
BRANCH   8  12
HETATM   12  S   UNL     1      42.811 -16.291   2.413  1.00  0.00     0.200 S 
HETATM   13  O   UNL     1      43.600 -15.159   2.870  1.00  0.00    -0.221 OA
HETATM   14  O   UNL     1      42.694 -16.528   0.989  1.00  0.00    -0.221 OA
BRANCH  12  15
HETATM   15  C   UNL     1      41.154 -16.037   3.060  1.00  0.00     0.118 C 
HETATM   16  C   UNL     1      40.120 -16.086   1.924  1.00  0.00     0.048 C 
HETATM   17  C   UNL     1      40.142 -14.844   1.043  1.00  0.00     0.233 C 
HETATM   18  N   UNL     1      39.978 -13.632   1.897  1.00  0.00    -0.075 N 
HETATM   19  H   UNL     1      39.028 -13.603   2.290  1.00  0.00     0.277 HD
HETATM   20  H   UNL     1      40.041 -12.803   1.286  1.00  0.00     0.277 HD
HETATM   21  C   UNL     1      40.987 -13.476   2.984  1.00  0.00     0.233 C 
HETATM   22  C   UNL     1      41.011 -14.729   3.853  1.00  0.00     0.048 C 
ENDBRANCH  12  15
ENDBRANCH   8  12
TORSDOF 2
ENDMDL
MODEL 8
REMARK VINA RESULT:      -7.5      2.235      3.347
REMARK  2 active torsions:
REMARK  status: ('A' for Active; 'I' for Inactive)
REMARK    1  A    between atoms: C_8  and  S_9 
REMARK    2  A    between atoms: S_9  and  C_10 
ROOT
HETATM    1  C   UNL     1      44.742 -21.503   5.196  1.00  0.00     0.002 A 
HETATM    2  C   UNL     1      44.650 -20.430   4.309  1.00  0.00     0.034 A 
HETATM    3  C   UNL     1      44.035 -19.240   4.679  1.00  0.00     0.087 A 
HETATM    4  C   UNL     1      43.490 -19.119   5.982  1.00  0.00     0.087 A 
HETATM    5  N   UNL     1      42.892 -17.980   6.389  1.00  0.00    -0.231 NA
HETATM    6  C   UNL     1      42.793 -16.974   5.492  1.00  0.00     0.167 A 
HETATM    7 CL   UNL     1      42.112 -15.554   6.162  1.00  0.00    -0.059 Cl
HETATM    8  C   UNL     1      43.319 -17.104   4.228  1.00  0.00     0.192 A 
HETATM    9  N   UNL     1      43.973 -18.221   3.800  1.00  0.00    -0.232 NA
HETATM   10  C   UNL     1      43.591 -20.194   6.857  1.00  0.00     0.034 A 
HETATM   11  C   UNL     1      44.211 -21.384   6.474  1.00  0.00     0.002 A 
ENDROOT
BRANCH   8  12
HETATM   12  S   UNL     1      43.264 -15.827   3.016  1.00  0.00     0.200 S 
HETATM   13  O   UNL     1      43.734 -14.588   3.613  1.00  0.00    -0.221 OA
HETATM   14  O   UNL     1      43.884 -16.288   1.791  1.00  0.00    -0.221 OA
BRANCH  12  15
HETATM   15  C   UNL     1      41.515 -15.586   2.683  1.00  0.00     0.118 C 
HETATM   16  C   UNL     1      40.814 -16.940   2.483  1.00  0.00     0.048 C 
HETATM   17  C   UNL     1      41.145 -17.591   1.147  1.00  0.00     0.233 C 
HETATM   18  N   UNL     1      40.840 -16.634   0.044  1.00  0.00    -0.075 N 
HETATM   19  H   UNL     1      39.823 -16.493  -0.029  1.00  0.00     0.277 HD
HETATM   20  H   UNL     1      41.113 -17.079  -0.846  1.00  0.00     0.277 HD
HETATM   21  C   UNL     1      41.535 -15.318   0.129  1.00  0.00     0.233 C 
HETATM   22  C   UNL     1      41.251 -14.669   1.480  1.00  0.00     0.048 C 
ENDBRANCH  12  15
ENDBRANCH   8  12
TORSDOF 2
ENDMDL
MODEL 9
REMARK VINA RESULT:      -7.3      2.406      3.049
REMARK  2 active torsions:
REMARK  status: ('A' for Active; 'I' for Inactive)
REMARK    1  A    between atoms: C_8  and  S_9 
REMARK    2  A    between atoms: S_9  and  C_10 
ROOT
HETATM    1  C   UNL     1      44.706 -20.674   2.812  1.00  0.00     0.002 A 
HETATM    2  C   UNL     1      43.858 -19.666   2.353  1.00  0.00     0.034 A 
HETATM    3  C   UNL     1      43.269 -18.765   3.231  1.00  0.00     0.087 A 
HETATM    4  C   UNL     1      43.536 -18.877   4.620  1.00  0.00     0.087 A 
HETATM    5  N   UNL     1      42.994 -18.019   5.509  1.00  0.00    -0.231 NA
HETATM    6  C   UNL     1      42.151 -17.077   5.031  1.00  0.00     0.167 A 
HETATM    7 CL   UNL     1      41.617 -15.991   6.242  1.00  0.00    -0.059 Cl
HETATM    8  C   UNL     1      41.894 -16.981   3.684  1.00  0.00     0.192 A 
HETATM    9  N   UNL     1      42.463 -17.798   2.752  1.00  0.00    -0.232 NA
HETATM   10  C   UNL     1      44.384 -19.883   5.063  1.00  0.00     0.034 A 
HETATM   11  C   UNL     1      44.971 -20.782   4.171  1.00  0.00     0.002 A 
ENDROOT
BRANCH   8  12
HETATM   12  S   UNL     1      40.840 -15.757   2.980  1.00  0.00     0.200 S 
HETATM   13  O   UNL     1      40.003 -16.380   1.969  1.00  0.00    -0.221 OA
HETATM   14  O   UNL     1      40.206 -14.993   4.034  1.00  0.00    -0.221 OA
BRANCH  12  15
HETATM   15  C   UNL     1      41.947 -14.650   2.098  1.00  0.00     0.118 C 
HETATM   16  C   UNL     1      43.108 -14.215   3.007  1.00  0.00     0.048 C 
HETATM   17  C   UNL     1      42.689 -13.210   4.071  1.00  0.00     0.233 C 
HETATM   18  N   UNL     1      42.025 -12.046   3.414  1.00  0.00    -0.075 N 
HETATM   19  H   UNL     1      42.714 -11.511   2.868  1.00  0.00     0.277 HD
HETATM   20  H   UNL     1      41.711 -11.401   4.156  1.00  0.00     0.277 HD
HETATM   21  C   UNL     1      40.845 -12.379   2.566  1.00  0.00     0.233 C 
HETATM   22  C   UNL     1      41.235 -13.419   1.521  1.00  0.00     0.048 C 
ENDBRANCH  12  15
ENDBRANCH   8  12
TORSDOF 2
ENDMDL
MODEL 10
REMARK VINA RESULT:      -7.3      2.488      3.264
REMARK  2 active torsions:
REMARK  status: ('A' for Active; 'I' for Inactive)
REMARK    1  A    between atoms: C_8  and  S_9 
REMARK    2  A    between atoms: S_9  and  C_10 
ROOT
HETATM    1  C   UNL     1      44.740 -21.464   3.159  1.00  0.00     0.002 A 
HETATM    2  C   UNL     1      44.697 -20.514   4.180  1.00  0.00     0.034 A 
HETATM    3  C   UNL     1      43.895 -19.384   4.078  1.00  0.00     0.087 A 
HETATM    4  C   UNL     1      43.110 -19.195   2.912  1.00  0.00     0.087 A 
HETATM    5  N   UNL     1      42.309 -18.118   2.772  1.00  0.00    -0.231 NA
HETATM    6  C   UNL     1      42.319 -17.203   3.767  1.00  0.00     0.167 A 
HETATM    7 CL   UNL     1      41.187 -15.943   3.517  1.00  0.00    -0.059 Cl
HETATM    8  C   UNL     1      43.089 -17.392   4.890  1.00  0.00     0.192 A 
HETATM    9  N   UNL     1      43.870 -18.491   5.087  1.00  0.00    -0.232 NA
HETATM   10  C   UNL     1      43.161 -20.150   1.904  1.00  0.00     0.034 A 
HETATM   11  C   UNL     1      43.969 -21.281   2.018  1.00  0.00     0.002 A 
ENDROOT
BRANCH   8  12
HETATM   12  S   UNL     1      43.125 -16.266   6.245  1.00  0.00     0.200 S 
HETATM   13  O   UNL     1      41.766 -15.857   6.555  1.00  0.00    -0.221 OA
HETATM   14  O   UNL     1      43.950 -16.804   7.306  1.00  0.00    -0.221 OA
BRANCH  12  15
HETATM   15  C   UNL     1      43.951 -14.804   5.604  1.00  0.00     0.118 C 
HETATM   16  C   UNL     1      44.974 -14.275   6.621  1.00  0.00     0.048 C 
HETATM   17  C   UNL     1      44.326 -13.584   7.814  1.00  0.00     0.233 C 
HETATM   18  N   UNL     1      43.414 -12.509   7.325  1.00  0.00    -0.075 N 
HETATM   19  H   UNL     1      43.963 -11.747   6.903  1.00  0.00     0.277 HD
HETATM   20  H   UNL     1      42.954 -12.086   8.146  1.00  0.00     0.277 HD
HETATM   21  C   UNL     1      42.348 -12.955   6.383  1.00  0.00     0.233 C 
HETATM   22  C   UNL     1      42.975 -13.688   5.201  1.00  0.00     0.048 C 
ENDBRANCH  12  15
ENDBRANCH   8  12
TORSDOF 2
ENDMDL
