MODEL 1
REMARK VINA RESULT:      -8.2      0.000      0.000
REMARK  11 active torsions:
REMARK  status: ('A' for Active; 'I' for Inactive)
REMARK    1  A    between atoms: C_2  and  N_3 
REMARK    2  A    between atoms: N_3  and  C_5 
REMARK    3  A    between atoms: N_3  and  C_35 
REMARK    4  A    between atoms: C_5  and  C_6 
REMARK    5  A    between atoms: C_6  and  C_7 
REMARK    6  A    between atoms: C_7  and  N_8 
REMARK    7  A    between atoms: N_8  and  C_9 
REMARK    8  A    between atoms: N_8  and  C_19 
REMARK    9  A    between atoms: C_9  and  N_10 
REMARK   10  A    between atoms: N_10  and  C_11 
REMARK   11  A    between atoms: C_19  and  C_20 
ROOT
HETATM    1  N   UNL     1      43.231 -16.425   5.507  1.00  0.00    -0.255 NA
ENDROOT
BRANCH   1   2
HETATM    2  C   UNL     1      44.075 -17.540   5.034  1.00  0.00     0.100 C 
BRANCH   2   3
HETATM    3  C   UNL     1      43.337 -18.816   4.591  1.00  0.00     0.042 C 
BRANCH   3   4
HETATM    4  C   UNL     1      43.842 -19.347   3.254  1.00  0.00     0.236 C 
BRANCH   4   5
HETATM    5  N   UNL     1      44.817 -20.513   3.399  1.00  0.00    -0.072 N 
HETATM    6  H   UNL     1      45.713 -20.152   3.043  1.00  0.00     0.279 HD
BRANCH   5   7
HETATM    7  C   UNL     1      44.495 -21.717   2.525  1.00  0.00     0.230 C 
HETATM    8  C   UNL     1      43.241 -21.487   1.703  1.00  0.00     0.034 C 
ENDBRANCH   5   7
BRANCH   5   9
HETATM    9  C   UNL     1      45.106 -20.950   4.824  1.00  0.00     0.230 C 
HETATM   10  C   UNL     1      44.951 -22.450   4.993  1.00  0.00     0.034 C 
ENDBRANCH   5   9
ENDBRANCH   4   5
ENDBRANCH   3   4
ENDBRANCH   2   3
ENDBRANCH   1   2
BRANCH   1  11
HETATM   11  C   UNL     1      43.351 -16.055   6.839  1.00  0.00     0.153 C 
HETATM   12  S   UNL     1      43.410 -17.137   8.126  1.00  0.00    -0.047 SA
BRANCH  11  13
HETATM   13  N   UNL     1      43.465 -14.734   7.150  1.00  0.00    -0.338 N 
HETATM   14  H   UNL     1      42.561 -14.270   7.105  1.00  0.00     0.168 HD
BRANCH  13  15
HETATM   15  C   UNL     1      44.554 -13.881   7.426  1.00  0.00     0.035 A 
HETATM   16  C   UNL     1      44.472 -13.142   8.615  1.00  0.00     0.053 A 
HETATM   17  C   UNL     1      45.504 -12.282   8.990  1.00  0.00     0.036 A 
HETATM   18 CL   UNL     1      45.388 -11.408  10.467  1.00  0.00    -0.084 Cl
HETATM   19  C   UNL     1      46.628 -12.136   8.186  1.00  0.00     0.024 A 
HETATM   20  C   UNL     1      46.714 -12.857   6.997  1.00  0.00     0.004 A 
HETATM   21  C   UNL     1      45.681 -13.725   6.619  1.00  0.00     0.029 A 
ENDBRANCH  13  15
ENDBRANCH  11  13
ENDBRANCH   1  11
BRANCH   1  22
HETATM   22  C   UNL     1      41.817 -16.494   5.060  1.00  0.00     0.142 C 
BRANCH  22  23
HETATM   23  C   UNL     1      41.524 -15.727   3.803  1.00  0.00     0.024 A 
HETATM   24  C   UNL     1      41.499 -14.235   3.931  1.00  0.00     0.253 A 
HETATM   25  O   UNL     1      41.524 -13.685   5.030  1.00  0.00    -0.268 OA
HETATM   26  N   UNL     1      41.426 -13.506   2.778  1.00  0.00    -0.322 N 
HETATM   27  C   UNL     1      41.346 -14.075   1.503  1.00  0.00     0.048 A 
HETATM   28  H   UNL     1      41.438 -12.499   2.883  1.00  0.00     0.169 HD
HETATM   29  C   UNL     1      41.326 -15.471   1.378  1.00  0.00    -0.006 A 
HETATM   30  C   UNL     1      41.301 -13.249   0.380  1.00  0.00     0.070 A 
HETATM   31  C   UNL     1      41.243 -16.042   0.105  1.00  0.00     0.053 A 
HETATM   32  C   UNL     1      41.438 -16.293   2.586  1.00  0.00     0.027 A 
HETATM   33  C   UNL     1      41.190 -15.220  -1.023  1.00  0.00     0.103 A 
HETATM   34  C   UNL     1      41.245 -13.828  -0.885  1.00  0.00     0.104 A 
HETATM   35  O   UNL     1      41.104 -15.849  -2.239  1.00  0.00    -0.346 OA
HETATM   36  O   UNL     1      41.248 -12.967  -1.953  1.00  0.00    -0.346 OA
HETATM   37  C   UNL     1      41.575 -13.650  -3.169  1.00  0.00     0.202 C 
HETATM   38  C   UNL     1      40.767 -14.932  -3.289  1.00  0.00     0.202 C 
ENDBRANCH  22  23
ENDBRANCH   1  22
TORSDOF 11
ENDMDL
MODEL 2
REMARK VINA RESULT:      -8.2      4.091      7.558
REMARK  11 active torsions:
REMARK  status: ('A' for Active; 'I' for Inactive)
REMARK    1  A    between atoms: C_2  and  N_3 
REMARK    2  A    between atoms: N_3  and  C_5 
REMARK    3  A    between atoms: N_3  and  C_35 
REMARK    4  A    between atoms: C_5  and  C_6 
REMARK    5  A    between atoms: C_6  and  C_7 
REMARK    6  A    between atoms: C_7  and  N_8 
REMARK    7  A    between atoms: N_8  and  C_9 
REMARK    8  A    between atoms: N_8  and  C_19 
REMARK    9  A    between atoms: C_9  and  N_10 
REMARK   10  A    between atoms: N_10  and  C_11 
REMARK   11  A    between atoms: C_19  and  C_20 
ROOT
HETATM    1  N   UNL     1      42.575 -16.370   3.154  1.00  0.00    -0.255 NA
ENDROOT
BRANCH   1   2
HETATM    2  C   UNL     1      42.723 -16.237   1.692  1.00  0.00     0.100 C 
BRANCH   2   3
HETATM    3  C   UNL     1      41.425 -16.284   0.865  1.00  0.00     0.042 C 
BRANCH   3   4
HETATM    4  C   UNL     1      41.375 -15.198  -0.204  1.00  0.00     0.236 C 
BRANCH   4   5
HETATM    5  N   UNL     1      39.954 -14.832  -0.624  1.00  0.00    -0.072 N 
HETATM    6  H   UNL     1      39.397 -15.676  -0.431  1.00  0.00     0.279 HD
BRANCH   5   7
HETATM    7  C   UNL     1      39.784 -14.573  -2.114  1.00  0.00     0.230 C 
HETATM    8  C   UNL     1      40.477 -15.635  -2.946  1.00  0.00     0.034 C 
ENDBRANCH   5   7
BRANCH   5   9
HETATM    9  C   UNL     1      39.296 -13.730   0.188  1.00  0.00     0.230 C 
HETATM   10  C   UNL     1      38.009 -14.205   0.839  1.00  0.00     0.034 C 
ENDBRANCH   5   9
ENDBRANCH   4   5
ENDBRANCH   3   4
ENDBRANCH   2   3
ENDBRANCH   1   2
BRANCH   1  11
HETATM   11  C   UNL     1      43.472 -17.198   3.812  1.00  0.00     0.153 C 
HETATM   12  S   UNL     1      43.693 -17.230   5.480  1.00  0.00    -0.047 SA
BRANCH  11  13
HETATM   13  N   UNL     1      44.213 -18.081   3.084  1.00  0.00    -0.338 N 
HETATM   14  H   UNL     1      44.876 -17.594   2.487  1.00  0.00     0.168 HD
BRANCH  13  15
HETATM   15  C   UNL     1      44.190 -19.482   2.924  1.00  0.00     0.035 A 
HETATM   16  C   UNL     1      44.724 -20.232   3.983  1.00  0.00     0.053 A 
HETATM   17  C   UNL     1      44.734 -21.626   3.933  1.00  0.00     0.036 A 
HETATM   18 CL   UNL     1      45.370 -22.520   5.257  1.00  0.00    -0.084 Cl
HETATM   19  C   UNL     1      44.224 -22.295   2.827  1.00  0.00     0.024 A 
HETATM   20  C   UNL     1      43.703 -21.559   1.765  1.00  0.00     0.004 A 
HETATM   21  C   UNL     1      43.686 -20.160   1.814  1.00  0.00     0.029 A 
ENDBRANCH  13  15
ENDBRANCH  11  13
ENDBRANCH   1  11
BRANCH   1  22
HETATM   22  C   UNL     1      41.176 -16.564   3.614  1.00  0.00     0.142 C 
BRANCH  22  23
HETATM   23  C   UNL     1      40.583 -15.378   4.318  1.00  0.00     0.024 A 
HETATM   24  C   UNL     1      40.372 -15.524   5.793  1.00  0.00     0.253 A 
HETATM   25  O   UNL     1      40.496 -16.610   6.354  1.00  0.00    -0.268 OA
HETATM   26  N   UNL     1      40.016 -14.404   6.491  1.00  0.00    -0.322 N 
HETATM   27  C   UNL     1      39.814 -13.153   5.901  1.00  0.00     0.048 A 
HETATM   28  H   UNL     1      39.905 -14.517   7.491  1.00  0.00     0.169 HD
HETATM   29  C   UNL     1      39.968 -13.018   4.515  1.00  0.00    -0.006 A 
HETATM   30  C   UNL     1      39.476 -12.060   6.699  1.00  0.00     0.070 A 
HETATM   31  C   UNL     1      39.762 -11.769   3.922  1.00  0.00     0.053 A 
HETATM   32  C   UNL     1      40.384 -14.184   3.731  1.00  0.00     0.027 A 
HETATM   33  C   UNL     1      39.417 -10.672   4.715  1.00  0.00     0.103 A 
HETATM   34  C   UNL     1      39.300 -10.815   6.103  1.00  0.00     0.104 A 
HETATM   35  O   UNL     1      39.226  -9.480   4.066  1.00  0.00    -0.346 OA
HETATM   36  O   UNL     1      39.013  -9.769   6.943  1.00  0.00    -0.346 OA
HETATM   37  C   UNL     1      39.234  -8.509   6.297  1.00  0.00     0.202 C 
HETATM   38  C   UNL     1      38.602  -8.506   4.915  1.00  0.00     0.202 C 
ENDBRANCH  22  23
ENDBRANCH   1  22
TORSDOF 11
ENDMDL
MODEL 3
REMARK VINA RESULT:      -8.1      3.419      6.338
REMARK  11 active torsions:
REMARK  status: ('A' for Active; 'I' for Inactive)
REMARK    1  A    between atoms: C_2  and  N_3 
REMARK    2  A    between atoms: N_3  and  C_5 
REMARK    3  A    between atoms: N_3  and  C_35 
REMARK    4  A    between atoms: C_5  and  C_6 
REMARK    5  A    between atoms: C_6  and  C_7 
REMARK    6  A    between atoms: C_7  and  N_8 
REMARK    7  A    between atoms: N_8  and  C_9 
REMARK    8  A    between atoms: N_8  and  C_19 
REMARK    9  A    between atoms: C_9  and  N_10 
REMARK   10  A    between atoms: N_10  and  C_11 
REMARK   11  A    between atoms: C_19  and  C_20 
ROOT
HETATM    1  N   UNL     1      42.607 -16.510   4.252  1.00  0.00    -0.255 NA
ENDROOT
BRANCH   1   2
HETATM    2  C   UNL     1      43.361 -15.357   3.721  1.00  0.00     0.100 C 
BRANCH   2   3
HETATM    3  C   UNL     1      43.761 -14.273   4.738  1.00  0.00     0.042 C 
BRANCH   3   4
HETATM    4  C   UNL     1      42.552 -13.602   5.381  1.00  0.00     0.236 C 
BRANCH   4   5
HETATM    5  N   UNL     1      41.366 -13.462   4.431  1.00  0.00    -0.072 N 
HETATM    6  H   UNL     1      41.534 -14.162   3.695  1.00  0.00     0.279 HD
BRANCH   5   7
HETATM    7  C   UNL     1      41.294 -12.126   3.705  1.00  0.00     0.230 C 
HETATM    8  C   UNL     1      39.883 -11.821   3.239  1.00  0.00     0.034 C 
ENDBRANCH   5   7
BRANCH   5   9
HETATM    9  C   UNL     1      40.012 -13.824   5.017  1.00  0.00     0.230 C 
HETATM   10  C   UNL     1      40.111 -14.997   5.976  1.00  0.00     0.034 C 
ENDBRANCH   5   9
ENDBRANCH   4   5
ENDBRANCH   3   4
ENDBRANCH   2   3
ENDBRANCH   1   2
BRANCH   1  11
HETATM   11  C   UNL     1      43.281 -17.376   5.100  1.00  0.00     0.153 C 
HETATM   12  S   UNL     1      42.968 -17.535   6.745  1.00  0.00    -0.047 SA
BRANCH  11  13
HETATM   13  N   UNL     1      44.246 -18.188   4.583  1.00  0.00    -0.338 N 
HETATM   14  H   UNL     1      44.995 -17.643   4.165  1.00  0.00     0.168 HD
BRANCH  13  15
HETATM   15  C   UNL     1      44.375 -19.584   4.433  1.00  0.00     0.035 A 
HETATM   16  C   UNL     1      44.221 -20.081   3.130  1.00  0.00     0.053 A 
HETATM   17  C   UNL     1      44.347 -21.445   2.870  1.00  0.00     0.036 A 
HETATM   18 CL   UNL     1      44.180 -22.022   1.258  1.00  0.00    -0.084 Cl
HETATM   19  C   UNL     1      44.618 -22.338   3.900  1.00  0.00     0.024 A 
HETATM   20  C   UNL     1      44.760 -21.856   5.200  1.00  0.00     0.004 A 
HETATM   21  C   UNL     1      44.639 -20.486   5.464  1.00  0.00     0.029 A 
ENDBRANCH  13  15
ENDBRANCH  11  13
ENDBRANCH   1  11
BRANCH   1  22
HETATM   22  C   UNL     1      41.787 -17.224   3.241  1.00  0.00     0.142 C 
BRANCH  22  23
HETATM   23  C   UNL     1      41.514 -16.436   1.993  1.00  0.00     0.024 A 
HETATM   24  C   UNL     1      42.380 -16.747   0.812  1.00  0.00     0.253 A 
HETATM   25  O   UNL     1      43.374 -17.462   0.916  1.00  0.00    -0.268 OA
HETATM   26  N   UNL     1      42.034 -16.190  -0.387  1.00  0.00    -0.322 N 
HETATM   27  C   UNL     1      40.944 -15.331  -0.558  1.00  0.00     0.048 A 
HETATM   28  H   UNL     1      42.616 -16.434  -1.179  1.00  0.00     0.169 HD
HETATM   29  C   UNL     1      40.153 -15.001   0.552  1.00  0.00    -0.006 A 
HETATM   30  C   UNL     1      40.653 -14.829  -1.826  1.00  0.00     0.070 A 
HETATM   31  C   UNL     1      39.065 -14.140   0.384  1.00  0.00     0.053 A 
HETATM   32  C   UNL     1      40.466 -15.605   1.850  1.00  0.00     0.027 A 
HETATM   33  C   UNL     1      38.773 -13.629  -0.882  1.00  0.00     0.103 A 
HETATM   34  C   UNL     1      39.551 -13.994  -1.988  1.00  0.00     0.104 A 
HETATM   35  O   UNL     1      37.694 -12.787  -0.971  1.00  0.00    -0.346 OA
HETATM   36  O   UNL     1      39.288 -13.568  -3.265  1.00  0.00    -0.346 OA
HETATM   37  C   UNL     1      37.954 -13.055  -3.376  1.00  0.00     0.202 C 
HETATM   38  C   UNL     1      37.658 -12.101  -2.231  1.00  0.00     0.202 C 
ENDBRANCH  22  23
ENDBRANCH   1  22
TORSDOF 11
ENDMDL
MODEL 4
REMARK VINA RESULT:      -8.0      4.147      8.628
REMARK  11 active torsions:
REMARK  status: ('A' for Active; 'I' for Inactive)
REMARK    1  A    between atoms: C_2  and  N_3 
REMARK    2  A    between atoms: N_3  and  C_5 
REMARK    3  A    between atoms: N_3  and  C_35 
REMARK    4  A    between atoms: C_5  and  C_6 
REMARK    5  A    between atoms: C_6  and  C_7 
REMARK    6  A    between atoms: C_7  and  N_8 
REMARK    7  A    between atoms: N_8  and  C_9 
REMARK    8  A    between atoms: N_8  and  C_19 
REMARK    9  A    between atoms: C_9  and  N_10 
REMARK   10  A    between atoms: N_10  and  C_11 
REMARK   11  A    between atoms: C_19  and  C_20 
ROOT
HETATM    1  N   UNL     1      40.857 -14.251  -0.287  1.00  0.00    -0.255 NA
ENDROOT
BRANCH   1   2
HETATM    2  C   UNL     1      40.104 -13.011  -0.015  1.00  0.00     0.100 C 
BRANCH   2   3
HETATM    3  C   UNL     1      40.720 -12.047   1.015  1.00  0.00     0.042 C 
BRANCH   3   4
HETATM    4  C   UNL     1      41.950 -12.633   1.699  1.00  0.00     0.236 C 
BRANCH   4   5
HETATM    5  N   UNL     1      42.094 -12.198   3.155  1.00  0.00    -0.072 N 
HETATM    6  H   UNL     1      42.670 -11.346   3.120  1.00  0.00     0.279 HD
BRANCH   5   7
HETATM    7  C   UNL     1      42.871 -13.171   4.029  1.00  0.00     0.230 C 
HETATM    8  C   UNL     1      43.612 -14.199   3.195  1.00  0.00     0.034 C 
ENDBRANCH   5   7
BRANCH   5   9
HETATM    9  C   UNL     1      40.806 -11.776   3.841  1.00  0.00     0.230 C 
HETATM   10  C   UNL     1      40.924 -10.391   4.452  1.00  0.00     0.034 C 
ENDBRANCH   5   9
ENDBRANCH   4   5
ENDBRANCH   3   4
ENDBRANCH   2   3
ENDBRANCH   1   2
BRANCH   1  11
HETATM   11  C   UNL     1      41.372 -14.416  -1.565  1.00  0.00     0.153 C 
HETATM   12  S   UNL     1      40.779 -15.511  -2.696  1.00  0.00    -0.047 SA
BRANCH  11  13
HETATM   13  N   UNL     1      42.406 -13.626  -1.967  1.00  0.00    -0.338 N 
HETATM   14  H   UNL     1      43.301 -14.056  -1.748  1.00  0.00     0.168 HD
BRANCH  13  15
HETATM   15  C   UNL     1      42.494 -12.335  -2.527  1.00  0.00     0.035 A 
HETATM   16  C   UNL     1      43.049 -11.342  -1.706  1.00  0.00     0.053 A 
HETATM   17  C   UNL     1      43.197 -10.035  -2.170  1.00  0.00     0.036 A 
HETATM   18 CL   UNL     1      43.905  -8.846  -1.149  1.00  0.00    -0.084 Cl
HETATM   19  C   UNL     1      42.787  -9.692  -3.452  1.00  0.00     0.024 A 
HETATM   20  C   UNL     1      42.223 -10.667  -4.273  1.00  0.00     0.004 A 
HETATM   21  C   UNL     1      42.077 -11.982  -3.812  1.00  0.00     0.029 A 
ENDBRANCH  13  15
ENDBRANCH  11  13
ENDBRANCH   1  11
BRANCH   1  22
HETATM   22  C   UNL     1      40.216 -15.485   0.233  1.00  0.00     0.142 C 
BRANCH  22  23
HETATM   23  C   UNL     1      40.911 -16.096   1.415  1.00  0.00     0.024 A 
HETATM   24  C   UNL     1      40.338 -15.770   2.760  1.00  0.00     0.253 A 
HETATM   25  O   UNL     1      39.476 -14.905   2.896  1.00  0.00    -0.268 OA
HETATM   26  N   UNL     1      40.825 -16.459   3.835  1.00  0.00    -0.322 N 
HETATM   27  C   UNL     1      41.838 -17.419   3.748  1.00  0.00     0.048 A 
HETATM   28  H   UNL     1      40.406 -16.244   4.731  1.00  0.00     0.169 HD
HETATM   29  C   UNL     1      42.409 -17.698   2.499  1.00  0.00    -0.006 A 
HETATM   30  C   UNL     1      42.254 -18.089   4.898  1.00  0.00     0.070 A 
HETATM   31  C   UNL     1      43.425 -18.654   2.411  1.00  0.00     0.053 A 
HETATM   32  C   UNL     1      41.893 -17.010   1.313  1.00  0.00     0.027 A 
HETATM   33  C   UNL     1      43.850 -19.324   3.560  1.00  0.00     0.103 A 
HETATM   34  C   UNL     1      43.247 -19.059   4.795  1.00  0.00     0.104 A 
HETATM   35  O   UNL     1      44.854 -20.245   3.399  1.00  0.00    -0.346 OA
HETATM   36  O   UNL     1      43.583 -19.716   5.951  1.00  0.00    -0.346 OA
HETATM   37  C   UNL     1      44.305 -20.921   5.671  1.00  0.00     0.202 C 
HETATM   38  C   UNL     1      45.406 -20.655   4.658  1.00  0.00     0.202 C 
ENDBRANCH  22  23
ENDBRANCH   1  22
TORSDOF 11
ENDMDL
MODEL 5
REMARK VINA RESULT:      -8.0      3.477      6.469
REMARK  11 active torsions:
REMARK  status: ('A' for Active; 'I' for Inactive)
REMARK    1  A    between atoms: C_2  and  N_3 
REMARK    2  A    between atoms: N_3  and  C_5 
REMARK    3  A    between atoms: N_3  and  C_35 
REMARK    4  A    between atoms: C_5  and  C_6 
REMARK    5  A    between atoms: C_6  and  C_7 
REMARK    6  A    between atoms: C_7  and  N_8 
REMARK    7  A    between atoms: N_8  and  C_9 
REMARK    8  A    between atoms: N_8  and  C_19 
REMARK    9  A    between atoms: C_9  and  N_10 
REMARK   10  A    between atoms: N_10  and  C_11 
REMARK   11  A    between atoms: C_19  and  C_20 
ROOT
HETATM    1  N   UNL     1      42.169 -16.161   3.451  1.00  0.00    -0.255 NA
ENDROOT
BRANCH   1   2
HETATM    2  C   UNL     1      43.245 -15.465   2.719  1.00  0.00     0.100 C 
BRANCH   2   3
HETATM    3  C   UNL     1      43.719 -14.125   3.310  1.00  0.00     0.042 C 
BRANCH   3   4
HETATM    4  C   UNL     1      42.582 -13.334   3.948  1.00  0.00     0.236 C 
BRANCH   4   5
HETATM    5  N   UNL     1      42.326 -13.717   5.402  1.00  0.00    -0.072 N 
HETATM    6  H   UNL     1      42.234 -14.743   5.392  1.00  0.00     0.279 HD
BRANCH   5   7
HETATM    7  C   UNL     1      41.009 -13.204   5.967  1.00  0.00     0.230 C 
HETATM    8  C   UNL     1      39.841 -14.065   5.525  1.00  0.00     0.034 C 
ENDBRANCH   5   7
BRANCH   5   9
HETATM    9  C   UNL     1      43.466 -13.433   6.364  1.00  0.00     0.230 C 
HETATM   10  C   UNL     1      44.137 -14.711   6.834  1.00  0.00     0.034 C 
ENDBRANCH   5   9
ENDBRANCH   4   5
ENDBRANCH   3   4
ENDBRANCH   2   3
ENDBRANCH   1   2
BRANCH   1  11
HETATM   11  C   UNL     1      42.548 -17.088   4.411  1.00  0.00     0.153 C 
HETATM   12  S   UNL     1      41.703 -17.383   5.836  1.00  0.00    -0.047 SA
BRANCH  11  13
HETATM   13  N   UNL     1      43.659 -17.846   4.195  1.00  0.00    -0.338 N 
HETATM   14  H   UNL     1      44.504 -17.329   4.423  1.00  0.00     0.168 HD
BRANCH  13  15
HETATM   15  C   UNL     1      43.879 -19.129   3.652  1.00  0.00     0.035 A 
HETATM   16  C   UNL     1      44.455 -20.073   4.516  1.00  0.00     0.053 A 
HETATM   17  C   UNL     1      44.699 -21.377   4.084  1.00  0.00     0.036 A 
HETATM   18 CL   UNL     1      45.381 -22.520   5.172  1.00  0.00    -0.084 Cl
HETATM   19  C   UNL     1      44.384 -21.760   2.785  1.00  0.00     0.024 A 
HETATM   20  C   UNL     1      43.823 -20.827   1.916  1.00  0.00     0.004 A 
HETATM   21  C   UNL     1      43.572 -19.518   2.348  1.00  0.00     0.029 A 
ENDBRANCH  13  15
ENDBRANCH  11  13
ENDBRANCH   1  11
BRANCH   1  22
HETATM   22  C   UNL     1      41.062 -16.651   2.591  1.00  0.00     0.142 C 
BRANCH  22  23
HETATM   23  C   UNL     1      40.489 -15.618   1.666  1.00  0.00     0.024 A 
HETATM   24  C   UNL     1      40.854 -15.751   0.220  1.00  0.00     0.253 A 
HETATM   25  O   UNL     1      41.721 -16.538  -0.153  1.00  0.00    -0.268 OA
HETATM   26  N   UNL     1      40.200 -14.947  -0.671  1.00  0.00    -0.322 N 
HETATM   27  C   UNL     1      39.240 -13.999  -0.302  1.00  0.00     0.048 A 
HETATM   28  H   UNL     1      40.441 -15.070  -1.647  1.00  0.00     0.169 HD
HETATM   29  C   UNL     1      38.924 -13.839   1.054  1.00  0.00    -0.006 A 
HETATM   30  C   UNL     1      38.607 -13.240  -1.286  1.00  0.00     0.070 A 
HETATM   31  C   UNL     1      37.967 -12.889   1.425  1.00  0.00     0.053 A 
HETATM   32  C   UNL     1      39.574 -14.705   2.041  1.00  0.00     0.027 A 
HETATM   33  C   UNL     1      37.334 -12.122   0.446  1.00  0.00     0.103 A 
HETATM   34  C   UNL     1      37.636 -12.316  -0.908  1.00  0.00     0.104 A 
HETATM   35  O   UNL     1      36.411 -11.207   0.883  1.00  0.00    -0.346 OA
HETATM   36  O   UNL     1      37.015 -11.631  -1.922  1.00  0.00    -0.346 OA
HETATM   37  C   UNL     1      35.804 -11.017  -1.466  1.00  0.00     0.202 C 
HETATM   38  C   UNL     1      36.042 -10.287  -0.154  1.00  0.00     0.202 C 
ENDBRANCH  22  23
ENDBRANCH   1  22
TORSDOF 11
ENDMDL
MODEL 6
REMARK VINA RESULT:      -7.9      3.101      6.992
REMARK  11 active torsions:
REMARK  status: ('A' for Active; 'I' for Inactive)
REMARK    1  A    between atoms: C_2  and  N_3 
REMARK    2  A    between atoms: N_3  and  C_5 
REMARK    3  A    between atoms: N_3  and  C_35 
REMARK    4  A    between atoms: C_5  and  C_6 
REMARK    5  A    between atoms: C_6  and  C_7 
REMARK    6  A    between atoms: C_7  and  N_8 
REMARK    7  A    between atoms: N_8  and  C_9 
REMARK    8  A    between atoms: N_8  and  C_19 
REMARK    9  A    between atoms: C_9  and  N_10 
REMARK   10  A    between atoms: N_10  and  C_11 
REMARK   11  A    between atoms: C_19  and  C_20 
ROOT
HETATM    1  N   UNL     1      39.602 -14.451   2.137  1.00  0.00    -0.255 NA
ENDROOT
BRANCH   1   2
HETATM    2  C   UNL     1      38.388 -14.058   1.395  1.00  0.00     0.100 C 
BRANCH   2   3
HETATM    3  C   UNL     1      38.608 -13.267   0.092  1.00  0.00     0.042 C 
BRANCH   3   4
HETATM    4  C   UNL     1      38.125 -14.026  -1.139  1.00  0.00     0.236 C 
BRANCH   4   5
HETATM    5  N   UNL     1      39.122 -13.993  -2.295  1.00  0.00    -0.072 N 
HETATM    6  H   UNL     1      39.177 -13.001  -2.566  1.00  0.00     0.279 HD
BRANCH   5   7
HETATM    7  C   UNL     1      38.660 -14.724  -3.547  1.00  0.00     0.230 C 
HETATM    8  C   UNL     1      37.147 -14.801  -3.620  1.00  0.00     0.034 C 
ENDBRANCH   5   7
BRANCH   5   9
HETATM    9  C   UNL     1      40.546 -14.385  -1.942  1.00  0.00     0.230 C 
HETATM   10  C   UNL     1      40.982 -15.637  -2.681  1.00  0.00     0.034 C 
ENDBRANCH   5   9
ENDBRANCH   4   5
ENDBRANCH   3   4
ENDBRANCH   2   3
ENDBRANCH   1   2
BRANCH   1  11
HETATM   11  C   UNL     1      39.746 -13.963   3.427  1.00  0.00     0.153 C 
HETATM   12  S   UNL     1      39.797 -12.330   3.828  1.00  0.00    -0.047 SA
BRANCH  11  13
HETATM   13  N   UNL     1      39.819 -14.846   4.463  1.00  0.00    -0.338 N 
HETATM   14  H   UNL     1      38.915 -14.952   4.915  1.00  0.00     0.168 HD
BRANCH  13  15
HETATM   15  C   UNL     1      40.875 -15.552   5.076  1.00  0.00     0.035 A 
HETATM   16  C   UNL     1      41.886 -14.770   5.654  1.00  0.00     0.053 A 
HETATM   17  C   UNL     1      42.966 -15.370   6.301  1.00  0.00     0.036 A 
HETATM   18 CL   UNL     1      44.177 -14.386   7.025  1.00  0.00    -0.084 Cl
HETATM   19  C   UNL     1      43.064 -16.754   6.375  1.00  0.00     0.024 A 
HETATM   20  C   UNL     1      42.071 -17.540   5.793  1.00  0.00     0.004 A 
HETATM   21  C   UNL     1      40.983 -16.941   5.147  1.00  0.00     0.029 A 
ENDBRANCH  13  15
ENDBRANCH  11  13
ENDBRANCH   1  11
BRANCH   1  22
HETATM   22  C   UNL     1      40.858 -14.360   1.349  1.00  0.00     0.142 C 
BRANCH  22  23
HETATM   23  C   UNL     1      41.851 -15.449   1.635  1.00  0.00     0.024 A 
HETATM   24  C   UNL     1      43.061 -15.049   2.422  1.00  0.00     0.253 A 
HETATM   25  O   UNL     1      43.316 -13.870   2.650  1.00  0.00    -0.268 OA
HETATM   26  N   UNL     1      43.884 -16.048   2.861  1.00  0.00    -0.322 N 
HETATM   27  C   UNL     1      43.672 -17.404   2.592  1.00  0.00     0.048 A 
HETATM   28  H   UNL     1      44.681 -15.760   3.414  1.00  0.00     0.169 HD
HETATM   29  C   UNL     1      42.564 -17.782   1.819  1.00  0.00    -0.006 A 
HETATM   30  C   UNL     1      44.553 -18.355   3.104  1.00  0.00     0.070 A 
HETATM   31  C   UNL     1      42.353 -19.137   1.546  1.00  0.00     0.053 A 
HETATM   32  C   UNL     1      41.635 -16.748   1.358  1.00  0.00     0.027 A 
HETATM   33  C   UNL     1      43.236 -20.093   2.050  1.00  0.00     0.103 A 
HETATM   34  C   UNL     1      44.319 -19.703   2.848  1.00  0.00     0.104 A 
HETATM   35  O   UNL     1      42.969 -21.402   1.738  1.00  0.00    -0.346 OA
HETATM   36  O   UNL     1      45.193 -20.596   3.415  1.00  0.00    -0.346 OA
HETATM   37  C   UNL     1      44.652 -21.922   3.416  1.00  0.00     0.202 C 
HETATM   38  C   UNL     1      44.075 -22.260   2.051  1.00  0.00     0.202 C 
ENDBRANCH  22  23
ENDBRANCH   1  22
TORSDOF 11
ENDMDL
MODEL 7
REMARK VINA RESULT:      -7.8      3.265      6.329
REMARK  11 active torsions:
REMARK  status: ('A' for Active; 'I' for Inactive)
REMARK    1  A    between atoms: C_2  and  N_3 
REMARK    2  A    between atoms: N_3  and  C_5 
REMARK    3  A    between atoms: N_3  and  C_35 
REMARK    4  A    between atoms: C_5  and  C_6 
REMARK    5  A    between atoms: C_6  and  C_7 
REMARK    6  A    between atoms: C_7  and  N_8 
REMARK    7  A    between atoms: N_8  and  C_9 
REMARK    8  A    between atoms: N_8  and  C_19 
REMARK    9  A    between atoms: C_9  and  N_10 
REMARK   10  A    between atoms: N_10  and  C_11 
REMARK   11  A    between atoms: C_19  and  C_20 
ROOT
HETATM    1  N   UNL     1      41.823 -15.231   3.295  1.00  0.00    -0.255 NA
ENDROOT
BRANCH   1   2
HETATM    2  C   UNL     1      41.722 -14.160   4.306  1.00  0.00     0.100 C 
BRANCH   2   3
HETATM    3  C   UNL     1      43.051 -13.623   4.869  1.00  0.00     0.042 C 
BRANCH   3   4
HETATM    4  C   UNL     1      42.967 -13.306   6.358  1.00  0.00     0.236 C 
BRANCH   4   5
HETATM    5  N   UNL     1      43.911 -14.153   7.207  1.00  0.00    -0.072 N 
HETATM    6  H   UNL     1      43.441 -14.236   8.119  1.00  0.00     0.279 HD
BRANCH   5   7
HETATM    7  C   UNL     1      45.251 -13.496   7.506  1.00  0.00     0.230 C 
HETATM    8  C   UNL     1      45.153 -12.542   8.681  1.00  0.00     0.034 C 
ENDBRANCH   5   7
BRANCH   5   9
HETATM    9  C   UNL     1      44.111 -15.582   6.734  1.00  0.00     0.230 C 
HETATM   10  C   UNL     1      43.524 -16.584   7.713  1.00  0.00     0.034 C 
ENDBRANCH   5   9
ENDBRANCH   4   5
ENDBRANCH   3   4
ENDBRANCH   2   3
ENDBRANCH   1   2
BRANCH   1  11
HETATM   11  C   UNL     1      42.073 -16.516   3.752  1.00  0.00     0.153 C 
HETATM   12  S   UNL     1      41.115 -17.335   4.867  1.00  0.00    -0.047 SA
BRANCH  11  13
HETATM   13  N   UNL     1      43.144 -17.197   3.256  1.00  0.00    -0.338 N 
HETATM   14  H   UNL     1      43.560 -16.701   2.472  1.00  0.00     0.168 HD
BRANCH  13  15
HETATM   15  C   UNL     1      43.723 -18.452   3.535  1.00  0.00     0.035 A 
HETATM   16  C   UNL     1      43.609 -19.422   2.528  1.00  0.00     0.053 A 
HETATM   17  C   UNL     1      44.163 -20.691   2.697  1.00  0.00     0.036 A 
HETATM   18 CL   UNL     1      44.031 -21.851   1.434  1.00  0.00    -0.084 Cl
HETATM   19  C   UNL     1      44.830 -21.019   3.871  1.00  0.00     0.024 A 
HETATM   20  C   UNL     1      44.938 -20.067   4.883  1.00  0.00     0.004 A 
HETATM   21  C   UNL     1      44.387 -18.790   4.715  1.00  0.00     0.029 A 
ENDBRANCH  13  15
ENDBRANCH  11  13
ENDBRANCH   1  11
BRANCH   1  22
HETATM   22  C   UNL     1      42.642 -14.878   2.108  1.00  0.00     0.142 C 
BRANCH  22  23
HETATM   23  C   UNL     1      41.849 -14.625   0.858  1.00  0.00     0.024 A 
HETATM   24  C   UNL     1      41.485 -15.834   0.052  1.00  0.00     0.253 A 
HETATM   25  O   UNL     1      41.969 -16.936   0.295  1.00  0.00    -0.268 OA
HETATM   26  N   UNL     1      40.606 -15.659  -0.980  1.00  0.00    -0.322 N 
HETATM   27  C   UNL     1      40.060 -14.422  -1.334  1.00  0.00     0.048 A 
HETATM   28  H   UNL     1      40.351 -16.492  -1.496  1.00  0.00     0.169 HD
HETATM   29  C   UNL     1      40.430 -13.279  -0.611  1.00  0.00    -0.006 A 
HETATM   30  C   UNL     1      39.151 -14.345  -2.389  1.00  0.00     0.070 A 
HETATM   31  C   UNL     1      39.888 -12.040  -0.966  1.00  0.00     0.053 A 
HETATM   32  C   UNL     1      41.341 -13.424   0.527  1.00  0.00     0.027 A 
HETATM   33  C   UNL     1      38.982 -11.956  -2.026  1.00  0.00     0.103 A 
HETATM   34  C   UNL     1      38.596 -13.111  -2.717  1.00  0.00     0.104 A 
HETATM   35  O   UNL     1      38.495 -10.709  -2.321  1.00  0.00    -0.346 OA
HETATM   36  O   UNL     1      37.674 -13.105  -3.733  1.00  0.00    -0.346 OA
HETATM   37  C   UNL     1      36.903 -11.897  -3.726  1.00  0.00     0.202 C 
HETATM   38  C   UNL     1      37.815 -10.689  -3.583  1.00  0.00     0.202 C 
ENDBRANCH  22  23
ENDBRANCH   1  22
TORSDOF 11
ENDMDL
MODEL 8
REMARK VINA RESULT:      -7.7      2.967      7.324
REMARK  11 active torsions:
REMARK  status: ('A' for Active; 'I' for Inactive)
REMARK    1  A    between atoms: C_2  and  N_3 
REMARK    2  A    between atoms: N_3  and  C_5 
REMARK    3  A    between atoms: N_3  and  C_35 
REMARK    4  A    between atoms: C_5  and  C_6 
REMARK    5  A    between atoms: C_6  and  C_7 
REMARK    6  A    between atoms: C_7  and  N_8 
REMARK    7  A    between atoms: N_8  and  C_9 
REMARK    8  A    between atoms: N_8  and  C_19 
REMARK    9  A    between atoms: C_9  and  N_10 
REMARK   10  A    between atoms: N_10  and  C_11 
REMARK   11  A    between atoms: C_19  and  C_20 
ROOT
HETATM    1  N   UNL     1      41.119 -14.070   2.393  1.00  0.00    -0.255 NA
ENDROOT
BRANCH   1   2
HETATM    2  C   UNL     1      40.445 -13.450   1.235  1.00  0.00     0.100 C 
BRANCH   2   3
HETATM    3  C   UNL     1      41.356 -12.957   0.096  1.00  0.00     0.042 C 
BRANCH   3   4
HETATM    4  C   UNL     1      40.573 -12.607  -1.165  1.00  0.00     0.236 C 
BRANCH   4   5
HETATM    5  N   UNL     1      40.909 -13.507  -2.351  1.00  0.00    -0.072 N 
HETATM    6  H   UNL     1      41.696 -14.087  -2.026  1.00  0.00     0.279 HD
BRANCH   5   7
HETATM    7  C   UNL     1      41.434 -12.769  -3.574  1.00  0.00     0.230 C 
HETATM    8  C   UNL     1      42.424 -11.686  -3.188  1.00  0.00     0.034 C 
ENDBRANCH   5   7
BRANCH   5   9
HETATM    9  C   UNL     1      39.828 -14.496  -2.748  1.00  0.00     0.230 C 
HETATM   10  C   UNL     1      40.411 -15.850  -3.111  1.00  0.00     0.034 C 
ENDBRANCH   5   9
ENDBRANCH   4   5
ENDBRANCH   3   4
ENDBRANCH   2   3
ENDBRANCH   1   2
BRANCH   1  11
HETATM   11  C   UNL     1      41.044 -13.403   3.606  1.00  0.00     0.153 C 
HETATM   12  S   UNL     1      41.066 -11.729   3.777  1.00  0.00    -0.047 SA
BRANCH  11  13
HETATM   13  N   UNL     1      40.909 -14.129   4.752  1.00  0.00    -0.338 N 
HETATM   14  H   UNL     1      39.945 -14.125   5.074  1.00  0.00     0.168 HD
BRANCH  13  15
HETATM   15  C   UNL     1      41.816 -14.790   5.606  1.00  0.00     0.035 A 
HETATM   16  C   UNL     1      43.024 -14.123   5.857  1.00  0.00     0.053 A 
HETATM   17  C   UNL     1      43.983 -14.682   6.702  1.00  0.00     0.036 A 
HETATM   18 CL   UNL     1      45.444 -13.830   7.012  1.00  0.00    -0.084 Cl
HETATM   19  C   UNL     1      43.760 -15.915   7.303  1.00  0.00     0.024 A 
HETATM   20  C   UNL     1      42.568 -16.591   7.052  1.00  0.00     0.004 A 
HETATM   21  C   UNL     1      41.601 -16.031   6.207  1.00  0.00     0.029 A 
ENDBRANCH  13  15
ENDBRANCH  11  13
ENDBRANCH   1  11
BRANCH   1  22
HETATM   22  C   UNL     1      42.484 -14.580   2.106  1.00  0.00     0.142 C 
BRANCH  22  23
HETATM   23  C   UNL     1      42.626 -16.071   2.209  1.00  0.00     0.024 A 
HETATM   24  C   UNL     1      42.278 -16.854   0.981  1.00  0.00     0.253 A 
HETATM   25  O   UNL     1      41.728 -16.325   0.018  1.00  0.00    -0.268 OA
HETATM   26  N   UNL     1      42.577 -18.187   0.980  1.00  0.00    -0.322 N 
HETATM   27  C   UNL     1      43.158 -18.854   2.064  1.00  0.00     0.048 A 
HETATM   28  H   UNL     1      42.360 -18.694   0.131  1.00  0.00     0.169 HD
HETATM   29  C   UNL     1      43.447 -18.136   3.232  1.00  0.00    -0.006 A 
HETATM   30  C   UNL     1      43.450 -20.214   1.961  1.00  0.00     0.070 A 
HETATM   31  C   UNL     1      44.023 -18.801   4.318  1.00  0.00     0.053 A 
HETATM   32  C   UNL     1      43.176 -16.696   3.266  1.00  0.00     0.027 A 
HETATM   33  C   UNL     1      44.312 -20.164   4.224  1.00  0.00     0.103 A 
HETATM   34  C   UNL     1      44.049 -20.861   3.038  1.00  0.00     0.104 A 
HETATM   35  O   UNL     1      44.872 -20.752   5.329  1.00  0.00    -0.346 OA
HETATM   36  O   UNL     1      44.354 -22.187   2.862  1.00  0.00    -0.346 OA
HETATM   37  C   UNL     1      45.290 -22.638   3.849  1.00  0.00     0.202 C 
HETATM   38  C   UNL     1      44.859 -22.183   5.234  1.00  0.00     0.202 C 
ENDBRANCH  22  23
ENDBRANCH   1  22
TORSDOF 11
ENDMDL
MODEL 9
REMARK VINA RESULT:      -7.6      3.233      6.383
REMARK  11 active torsions:
REMARK  status: ('A' for Active; 'I' for Inactive)
REMARK    1  A    between atoms: C_2  and  N_3 
REMARK    2  A    between atoms: N_3  and  C_5 
REMARK    3  A    between atoms: N_3  and  C_35 
REMARK    4  A    between atoms: C_5  and  C_6 
REMARK    5  A    between atoms: C_6  and  C_7 
REMARK    6  A    between atoms: C_7  and  N_8 
REMARK    7  A    between atoms: N_8  and  C_9 
REMARK    8  A    between atoms: N_8  and  C_19 
REMARK    9  A    between atoms: C_9  and  N_10 
REMARK   10  A    between atoms: N_10  and  C_11 
REMARK   11  A    between atoms: C_19  and  C_20 
ROOT
HETATM    1  N   UNL     1      40.839 -15.526   3.130  1.00  0.00    -0.255 NA
ENDROOT
BRANCH   1   2
HETATM    2  C   UNL     1      40.915 -14.263   3.891  1.00  0.00     0.100 C 
BRANCH   2   3
HETATM    3  C   UNL     1      41.158 -14.390   5.406  1.00  0.00     0.042 C 
BRANCH   3   4
HETATM    4  C   UNL     1      42.377 -13.601   5.869  1.00  0.00     0.236 C 
BRANCH   4   5
HETATM    5  N   UNL     1      43.268 -14.380   6.833  1.00  0.00    -0.072 N 
HETATM    6  H   UNL     1      42.910 -14.145   7.769  1.00  0.00     0.279 HD
BRANCH   5   7
HETATM    7  C   UNL     1      44.725 -13.941   6.839  1.00  0.00     0.230 C 
HETATM    8  C   UNL     1      45.053 -13.119   8.071  1.00  0.00     0.034 C 
ENDBRANCH   5   7
BRANCH   5   9
HETATM    9  C   UNL     1      43.167 -15.892   6.739  1.00  0.00     0.230 C 
HETATM   10  C   UNL     1      44.533 -16.551   6.806  1.00  0.00     0.034 C 
ENDBRANCH   5   9
ENDBRANCH   4   5
ENDBRANCH   3   4
ENDBRANCH   2   3
ENDBRANCH   1   2
BRANCH   1  11
HETATM   11  C   UNL     1      42.022 -16.222   2.933  1.00  0.00     0.153 C 
HETATM   12  S   UNL     1      43.544 -15.511   2.850  1.00  0.00    -0.047 SA
BRANCH  11  13
HETATM   13  N   UNL     1      41.979 -17.580   2.828  1.00  0.00    -0.338 N 
HETATM   14  H   UNL     1      41.071 -17.892   2.494  1.00  0.00     0.168 HD
BRANCH  13  15
HETATM   15  C   UNL     1      42.874 -18.618   3.163  1.00  0.00     0.035 A 
HETATM   16  C   UNL     1      43.048 -19.618   2.194  1.00  0.00     0.053 A 
HETATM   17  C   UNL     1      43.924 -20.680   2.418  1.00  0.00     0.036 A 
HETATM   18 CL   UNL     1      44.138 -21.877   1.202  1.00  0.00    -0.084 Cl
HETATM   19  C   UNL     1      44.633 -20.770   3.610  1.00  0.00     0.024 A 
HETATM   20  C   UNL     1      44.458 -19.788   4.584  1.00  0.00     0.004 A 
HETATM   21  C   UNL     1      43.583 -18.718   4.360  1.00  0.00     0.029 A 
ENDBRANCH  13  15
ENDBRANCH  11  13
ENDBRANCH   1  11
BRANCH   1  22
HETATM   22  C   UNL     1      40.009 -15.451   1.901  1.00  0.00     0.142 C 
BRANCH  22  23
HETATM   23  C   UNL     1      40.685 -14.794   0.733  1.00  0.00     0.024 A 
HETATM   24  C   UNL     1      41.249 -15.714  -0.306  1.00  0.00     0.253 A 
HETATM   25  O   UNL     1      41.322 -16.926  -0.117  1.00  0.00    -0.268 OA
HETATM   26  N   UNL     1      41.697 -15.151  -1.468  1.00  0.00    -0.322 N 
HETATM   27  C   UNL     1      41.684 -13.776  -1.720  1.00  0.00     0.048 A 
HETATM   28  H   UNL     1      42.049 -15.791  -2.169  1.00  0.00     0.169 HD
HETATM   29  C   UNL     1      41.197 -12.905  -0.735  1.00  0.00    -0.006 A 
HETATM   30  C   UNL     1      42.140 -13.295  -2.946  1.00  0.00     0.070 A 
HETATM   31  C   UNL     1      41.187 -11.529  -0.983  1.00  0.00     0.053 A 
HETATM   32  C   UNL     1      40.672 -13.467   0.512  1.00  0.00     0.027 A 
HETATM   33  C   UNL     1      41.649 -11.041  -2.207  1.00  0.00     0.103 A 
HETATM   34  C   UNL     1      42.100 -11.926  -3.195  1.00  0.00     0.104 A 
HETATM   35  O   UNL     1      41.613  -9.681  -2.379  1.00  0.00    -0.346 OA
HETATM   36  O   UNL     1      42.520 -11.515  -4.435  1.00  0.00    -0.346 OA
HETATM   37  C   UNL     1      42.082 -10.180  -4.714  1.00  0.00     0.202 C 
HETATM   38  C   UNL     1      42.366  -9.271  -3.530  1.00  0.00     0.202 C 
ENDBRANCH  22  23
ENDBRANCH   1  22
TORSDOF 11
ENDMDL
MODEL 10
REMARK VINA RESULT:      -7.6      2.587      6.251
REMARK  11 active torsions:
REMARK  status: ('A' for Active; 'I' for Inactive)
REMARK    1  A    between atoms: C_2  and  N_3 
REMARK    2  A    between atoms: N_3  and  C_5 
REMARK    3  A    between atoms: N_3  and  C_35 
REMARK    4  A    between atoms: C_5  and  C_6 
REMARK    5  A    between atoms: C_6  and  C_7 
REMARK    6  A    between atoms: C_7  and  N_8 
REMARK    7  A    between atoms: N_8  and  C_9 
REMARK    8  A    between atoms: N_8  and  C_19 
REMARK    9  A    between atoms: C_9  and  N_10 
REMARK   10  A    between atoms: N_10  and  C_11 
REMARK   11  A    between atoms: C_19  and  C_20 
ROOT
HETATM    1  N   UNL     1      43.187 -15.055   6.196  1.00  0.00    -0.255 NA
ENDROOT
BRANCH   1   2
HETATM    2  C   UNL     1      43.990 -14.733   7.392  1.00  0.00     0.100 C 
BRANCH   2   3
HETATM    3  C   UNL     1      45.062 -13.640   7.223  1.00  0.00     0.042 C 
BRANCH   3   4
HETATM    4  C   UNL     1      45.101 -12.675   8.404  1.00  0.00     0.236 C 
BRANCH   4   5
HETATM    5  N   UNL     1      43.715 -12.255   8.883  1.00  0.00    -0.072 N 
HETATM    6  H   UNL     1      43.184 -13.134   8.958  1.00  0.00     0.279 HD
BRANCH   5   7
HETATM    7  C   UNL     1      42.937 -11.401   7.892  1.00  0.00     0.230 C 
HETATM    8  C   UNL     1      42.021 -10.421   8.601  1.00  0.00     0.034 C 
ENDBRANCH   5   7
BRANCH   5   9
HETATM    9  C   UNL     1      43.661 -11.643  10.272  1.00  0.00     0.230 C 
HETATM   10  C   UNL     1      44.345 -12.526  11.301  1.00  0.00     0.034 C 
ENDBRANCH   5   9
ENDBRANCH   4   5
ENDBRANCH   3   4
ENDBRANCH   2   3
ENDBRANCH   1   2
BRANCH   1  11
HETATM   11  C   UNL     1      42.933 -16.394   5.941  1.00  0.00     0.153 C 
HETATM   12  S   UNL     1      41.413 -17.110   6.029  1.00  0.00    -0.047 SA
BRANCH  11  13
HETATM   13  N   UNL     1      43.963 -17.201   5.560  1.00  0.00    -0.338 N 
HETATM   14  H   UNL     1      44.837 -16.900   5.983  1.00  0.00     0.168 HD
BRANCH  13  15
HETATM   15  C   UNL     1      44.083 -18.277   4.657  1.00  0.00     0.035 A 
HETATM   16  C   UNL     1      44.489 -19.502   5.208  1.00  0.00     0.053 A 
HETATM   17  C   UNL     1      44.621 -20.635   4.405  1.00  0.00     0.036 A 
HETATM   18 CL   UNL     1      45.095 -22.129   5.113  1.00  0.00    -0.084 Cl
HETATM   19  C   UNL     1      44.362 -20.566   3.041  1.00  0.00     0.024 A 
HETATM   20  C   UNL     1      43.970 -19.352   2.482  1.00  0.00     0.004 A 
HETATM   21  C   UNL     1      43.832 -18.214   3.286  1.00  0.00     0.029 A 
ENDBRANCH  13  15
ENDBRANCH  11  13
ENDBRANCH   1  11
BRANCH   1  22
HETATM   22  C   UNL     1      43.578 -14.306   4.975  1.00  0.00     0.142 C 
BRANCH  22  23
HETATM   23  C   UNL     1      42.555 -14.328   3.877  1.00  0.00     0.024 A 
HETATM   24  C   UNL     1      41.314 -13.525   4.115  1.00  0.00     0.253 A 
HETATM   25  O   UNL     1      41.066 -13.039   5.216  1.00  0.00    -0.268 OA
HETATM   26  N   UNL     1      40.454 -13.369   3.065  1.00  0.00    -0.322 N 
HETATM   27  C   UNL     1      40.658 -13.938   1.804  1.00  0.00     0.048 A 
HETATM   28  H   UNL     1      39.634 -12.800   3.237  1.00  0.00     0.169 HD
HETATM   29  C   UNL     1      41.796 -14.727   1.586  1.00  0.00    -0.006 A 
HETATM   30  C   UNL     1      39.736 -13.704   0.784  1.00  0.00     0.070 A 
HETATM   31  C   UNL     1      41.999 -15.300   0.327  1.00  0.00     0.053 A 
HETATM   32  C   UNL     1      42.764 -14.892   2.673  1.00  0.00     0.027 A 
HETATM   33  C   UNL     1      41.077 -15.074  -0.696  1.00  0.00     0.103 A 
HETATM   34  C   UNL     1      39.962 -14.256  -0.474  1.00  0.00     0.104 A 
HETATM   35  O   UNL     1      41.338 -15.672  -1.903  1.00  0.00    -0.346 OA
HETATM   36  O   UNL     1      39.046 -13.954  -1.449  1.00  0.00    -0.346 OA
HETATM   37  C   UNL     1      39.565 -14.239  -2.754  1.00  0.00     0.202 C 
HETATM   38  C   UNL     1      40.204 -15.618  -2.779  1.00  0.00     0.202 C 
ENDBRANCH  22  23
ENDBRANCH   1  22
TORSDOF 11
ENDMDL
