MODEL 1
REMARK VINA RESULT:      -8.2      0.000      0.000
REMARK  5 active torsions:
REMARK  status: ('A' for Active; 'I' for Inactive)
REMARK    1  A    between atoms: C_3  and  N_4 
REMARK       I    between atoms: N_4  and  C_5 
REMARK       I    between atoms: C_5  and  N_6 
REMARK    2  A    between atoms: N_6  and  C_7 
REMARK    3  A    between atoms: C_7  and  C_8 
REMARK    4  A    between atoms: C_10  and  O_11 
REMARK    5  A    between atoms: O_11  and  C_12 
ROOT
HETATM    1  N   UNL     1      43.647 -15.499   6.979  1.00  0.00    -0.308 N 
HETATM    2  C   UNL     1      44.435 -14.374   7.112  1.00  0.00     0.321 C 
HETATM    3  N   UNL     1      44.242 -13.786   8.343  1.00  0.00    -0.339 N 
HETATM    4  O   UNL     1      45.240 -13.951   6.294  1.00  0.00    -0.247 OA
HETATM    5  H   UNL     1      43.543 -15.988   7.854  1.00  0.00     0.170 HD
HETATM    6  H   UNL     1      43.390 -14.010   8.833  1.00  0.00     0.164 HD
ENDROOT
BRANCH   3   7
HETATM    7  C   UNL     1      44.905 -12.545   8.686  1.00  0.00     0.163 C 
BRANCH   7   8
HETATM    8  C   UNL     1      43.998 -11.544   9.353  1.00  0.00    -0.035 A 
HETATM    9  C   UNL     1      44.255 -11.041  10.633  1.00  0.00     0.066 A 
HETATM   10  C   UNL     1      43.407 -10.077  11.155  1.00  0.00     0.164 A 
HETATM   11  N   UNL     1      42.342  -9.571  10.500  1.00  0.00    -0.237 NA
HETATM   12  C   UNL     1      42.124 -10.048   9.259  1.00  0.00     0.120 A 
HETATM   13  C   UNL     1      42.909 -11.016   8.651  1.00  0.00     0.028 A 
BRANCH  10  14
HETATM   14  O   UNL     1      43.693  -9.629  12.432  1.00  0.00    -0.329 OA
BRANCH  14  15
HETATM   15  C   UNL     1      42.558  -9.375  13.286  1.00  0.00     0.130 C 
HETATM   16  C   UNL     1      41.787 -10.608  13.828  1.00  0.00     0.032 C 
HETATM   17  C   UNL     1      41.665  -9.864  15.170  1.00  0.00     0.005 C 
HETATM   18  C   UNL     1      42.918  -9.069  14.764  1.00  0.00     0.032 C 
ENDBRANCH  14  15
ENDBRANCH  10  14
ENDBRANCH   7   8
ENDBRANCH   3   7
BRANCH   1  19
HETATM   19  C   UNL     1      43.524 -16.281   5.802  1.00  0.00     0.048 A 
HETATM   20  C   UNL     1      44.224 -17.513   5.754  1.00  0.00    -0.033 A 
HETATM   21  C   UNL     1      45.081 -18.002   6.892  1.00  0.00     0.050 C 
HETATM   22  C   UNL     1      44.159 -18.308   4.596  1.00  0.00     0.033 A 
HETATM   23  C   UNL     1      43.403 -17.902   3.505  1.00  0.00     0.035 A 
HETATM   24  C   UNL     1      42.678 -16.719   3.560  1.00  0.00     0.033 A 
HETATM   25 CL   UNL     1      43.344 -18.881   2.090  1.00  0.00    -0.084 Cl
HETATM   26  C   UNL     1      42.698 -15.911   4.713  1.00  0.00    -0.033 A 
HETATM   27  C   UNL     1      41.792 -14.709   4.700  1.00  0.00     0.050 C 
ENDBRANCH   1  19
TORSDOF 5
ENDMDL
MODEL 2
REMARK VINA RESULT:      -8.1      6.452      9.250
REMARK  5 active torsions:
REMARK  status: ('A' for Active; 'I' for Inactive)
REMARK    1  A    between atoms: C_3  and  N_4 
REMARK       I    between atoms: N_4  and  C_5 
REMARK       I    between atoms: C_5  and  N_6 
REMARK    2  A    between atoms: N_6  and  C_7 
REMARK    3  A    between atoms: C_7  and  C_8 
REMARK    4  A    between atoms: C_10  and  O_11 
REMARK    5  A    between atoms: O_11  and  C_12 
ROOT
HETATM    1  N   UNL     1      40.605 -16.285   3.009  1.00  0.00    -0.308 N 
HETATM    2  C   UNL     1      41.839 -16.607   2.483  1.00  0.00     0.321 C 
HETATM    3  N   UNL     1      41.804 -17.845   1.880  1.00  0.00    -0.339 N 
HETATM    4  O   UNL     1      42.838 -15.901   2.490  1.00  0.00    -0.247 OA
HETATM    5  H   UNL     1      39.853 -16.640   2.441  1.00  0.00     0.170 HD
HETATM    6  H   UNL     1      41.061 -18.470   2.151  1.00  0.00     0.164 HD
ENDROOT
BRANCH   3   7
HETATM    7  C   UNL     1      43.003 -18.433   1.320  1.00  0.00     0.163 C 
BRANCH   7   8
HETATM    8  C   UNL     1      43.654 -19.447   2.225  1.00  0.00    -0.035 A 
HETATM    9  C   UNL     1      44.009 -19.150   3.545  1.00  0.00     0.066 A 
HETATM   10  C   UNL     1      44.548 -20.153   4.335  1.00  0.00     0.164 A 
HETATM   11  N   UNL     1      44.746 -21.420   3.918  1.00  0.00    -0.237 NA
HETATM   12  C   UNL     1      44.376 -21.696   2.651  1.00  0.00     0.120 A 
HETATM   13  C   UNL     1      43.834 -20.762   1.781  1.00  0.00     0.028 A 
BRANCH  10  14
HETATM   14  O   UNL     1      44.901 -19.802   5.625  1.00  0.00    -0.329 OA
BRANCH  14  15
HETATM   15  C   UNL     1      43.998 -18.909   6.310  1.00  0.00     0.130 C 
HETATM   16  C   UNL     1      43.754 -19.166   7.821  1.00  0.00     0.032 C 
HETATM   17  C   UNL     1      43.784 -17.641   8.022  1.00  0.00     0.005 C 
HETATM   18  C   UNL     1      44.628 -17.557   6.738  1.00  0.00     0.032 C 
ENDBRANCH  14  15
ENDBRANCH  10  14
ENDBRANCH   7   8
ENDBRANCH   3   7
BRANCH   1  19
HETATM   19  C   UNL     1      40.319 -15.133   3.786  1.00  0.00     0.048 A 
HETATM   20  C   UNL     1      39.802 -13.997   3.112  1.00  0.00    -0.033 A 
HETATM   21  C   UNL     1      39.558 -13.979   1.625  1.00  0.00     0.050 C 
HETATM   22  C   UNL     1      39.532 -12.820   3.833  1.00  0.00     0.033 A 
HETATM   23  C   UNL     1      39.756 -12.766   5.202  1.00  0.00     0.035 A 
HETATM   24  C   UNL     1      40.219 -13.887   5.877  1.00  0.00     0.033 A 
HETATM   25 CL   UNL     1      39.433 -11.315   6.067  1.00  0.00    -0.084 Cl
HETATM   26  C   UNL     1      40.475 -15.091   5.192  1.00  0.00    -0.033 A 
HETATM   27  C   UNL     1      40.871 -16.270   6.040  1.00  0.00     0.050 C 
ENDBRANCH   1  19
TORSDOF 5
ENDMDL
MODEL 3
REMARK VINA RESULT:      -8.0      6.406      9.151
REMARK  5 active torsions:
REMARK  status: ('A' for Active; 'I' for Inactive)
REMARK    1  A    between atoms: C_3  and  N_4 
REMARK       I    between atoms: N_4  and  C_5 
REMARK       I    between atoms: C_5  and  N_6 
REMARK    2  A    between atoms: N_6  and  C_7 
REMARK    3  A    between atoms: C_7  and  C_8 
REMARK    4  A    between atoms: C_10  and  O_11 
REMARK    5  A    between atoms: O_11  and  C_12 
ROOT
HETATM    1  N   UNL     1      40.338 -16.400   2.477  1.00  0.00    -0.308 N 
HETATM    2  C   UNL     1      40.942 -16.008   3.654  1.00  0.00     0.321 C 
HETATM    3  N   UNL     1      40.585 -16.846   4.687  1.00  0.00    -0.339 N 
HETATM    4  O   UNL     1      41.726 -15.080   3.794  1.00  0.00    -0.247 OA
HETATM    5  H   UNL     1      40.252 -17.402   2.417  1.00  0.00     0.170 HD
HETATM    6  H   UNL     1      39.745 -17.392   4.570  1.00  0.00     0.164 HD
ENDROOT
BRANCH   3   7
HETATM    7  C   UNL     1      41.034 -16.591   6.040  1.00  0.00     0.163 C 
BRANCH   7   8
HETATM    8  C   UNL     1      42.280 -17.353   6.412  1.00  0.00    -0.035 A 
HETATM    9  C   UNL     1      43.026 -18.068   5.470  1.00  0.00     0.066 A 
HETATM   10  C   UNL     1      44.195 -18.694   5.878  1.00  0.00     0.164 A 
HETATM   11  N   UNL     1      44.677 -18.649   7.137  1.00  0.00    -0.237 NA
HETATM   12  C   UNL     1      43.958 -17.936   8.026  1.00  0.00     0.120 A 
HETATM   13  C   UNL     1      42.775 -17.280   7.719  1.00  0.00     0.028 A 
BRANCH  10  14
HETATM   14  O   UNL     1      44.884 -19.405   4.913  1.00  0.00    -0.329 OA
BRANCH  14  15
HETATM   15  C   UNL     1      44.078 -20.078   3.922  1.00  0.00     0.130 C 
HETATM   16  C   UNL     1      44.332 -19.717   2.435  1.00  0.00     0.032 C 
HETATM   17  C   UNL     1      44.155 -21.210   2.107  1.00  0.00     0.005 C 
HETATM   18  C   UNL     1      44.563 -21.507   3.561  1.00  0.00     0.032 C 
ENDBRANCH  14  15
ENDBRANCH  10  14
ENDBRANCH   7   8
ENDBRANCH   3   7
BRANCH   1  19
HETATM   19  C   UNL     1      40.408 -15.698   1.245  1.00  0.00     0.048 A 
HETATM   20  C   UNL     1      41.453 -16.042   0.351  1.00  0.00    -0.033 A 
HETATM   21  C   UNL     1      42.473 -17.105   0.667  1.00  0.00     0.050 C 
HETATM   22  C   UNL     1      41.583 -15.354  -0.869  1.00  0.00     0.033 A 
HETATM   23  C   UNL     1      40.688 -14.348  -1.209  1.00  0.00     0.035 A 
HETATM   24  C   UNL     1      39.635 -14.036  -0.359  1.00  0.00     0.033 A 
HETATM   25 CL   UNL     1      40.869 -13.506  -2.698  1.00  0.00    -0.084 Cl
HETATM   26  C   UNL     1      39.458 -14.723   0.858  1.00  0.00    -0.033 A 
HETATM   27  C   UNL     1      38.224 -14.375   1.646  1.00  0.00     0.050 C 
ENDBRANCH   1  19
TORSDOF 5
ENDMDL
MODEL 4
REMARK VINA RESULT:      -8.0      2.748      3.775
REMARK  5 active torsions:
REMARK  status: ('A' for Active; 'I' for Inactive)
REMARK    1  A    between atoms: C_3  and  N_4 
REMARK       I    between atoms: N_4  and  C_5 
REMARK       I    between atoms: C_5  and  N_6 
REMARK    2  A    between atoms: N_6  and  C_7 
REMARK    3  A    between atoms: C_7  and  C_8 
REMARK    4  A    between atoms: C_10  and  O_11 
REMARK    5  A    between atoms: O_11  and  C_12 
ROOT
HETATM    1  N   UNL     1      40.491 -15.807   5.210  1.00  0.00    -0.308 N 
HETATM    2  C   UNL     1      40.668 -14.439   5.189  1.00  0.00     0.321 C 
HETATM    3  N   UNL     1      39.627 -13.804   5.830  1.00  0.00    -0.339 N 
HETATM    4  O   UNL     1      41.622 -13.837   4.719  1.00  0.00    -0.247 OA
HETATM    5  H   UNL     1      40.051 -16.114   6.063  1.00  0.00     0.170 HD
HETATM    6  H   UNL     1      38.766 -14.318   5.936  1.00  0.00     0.164 HD
ENDROOT
BRANCH   3   7
HETATM    7  C   UNL     1      39.551 -12.358   5.872  1.00  0.00     0.163 C 
BRANCH   7   8
HETATM    8  C   UNL     1      40.072 -11.766   7.156  1.00  0.00    -0.035 A 
HETATM    9  C   UNL     1      41.405 -11.369   7.308  1.00  0.00     0.066 A 
HETATM   10  C   UNL     1      41.795 -10.777   8.500  1.00  0.00     0.164 A 
HETATM   11  N   UNL     1      40.963 -10.541   9.535  1.00  0.00    -0.237 NA
HETATM   12  C   UNL     1      39.678 -10.908   9.363  1.00  0.00     0.120 A 
HETATM   13  C   UNL     1      39.190 -11.512   8.213  1.00  0.00     0.028 A 
BRANCH  10  14
HETATM   14  O   UNL     1      43.127 -10.423   8.606  1.00  0.00    -0.329 OA
BRANCH  14  15
HETATM   15  C   UNL     1      43.928 -11.222   9.502  1.00  0.00     0.130 C 
HETATM   16  C   UNL     1      45.441 -11.351   9.179  1.00  0.00     0.032 C 
HETATM   17  C   UNL     1      45.710 -11.233  10.689  1.00  0.00     0.005 C 
HETATM   18  C   UNL     1      44.364 -10.495  10.801  1.00  0.00     0.032 C 
ENDBRANCH  14  15
ENDBRANCH  10  14
ENDBRANCH   7   8
ENDBRANCH   3   7
BRANCH   1  19
HETATM   19  C   UNL     1      41.321 -16.751   4.552  1.00  0.00     0.048 A 
HETATM   20  C   UNL     1      42.202 -17.522   5.353  1.00  0.00    -0.033 A 
HETATM   21  C   UNL     1      42.283 -17.366   6.849  1.00  0.00     0.050 C 
HETATM   22  C   UNL     1      43.066 -18.450   4.745  1.00  0.00     0.033 A 
HETATM   23  C   UNL     1      43.055 -18.625   3.367  1.00  0.00     0.035 A 
HETATM   24  C   UNL     1      42.165 -17.907   2.581  1.00  0.00     0.033 A 
HETATM   25 CL   UNL     1      44.129 -19.754   2.637  1.00  0.00    -0.084 Cl
HETATM   26  C   UNL     1      41.265 -16.989   3.158  1.00  0.00    -0.033 A 
HETATM   27  C   UNL     1      40.275 -16.348   2.223  1.00  0.00     0.050 C 
ENDBRANCH   1  19
TORSDOF 5
ENDMDL
MODEL 5
REMARK VINA RESULT:      -7.9      3.873      5.311
REMARK  5 active torsions:
REMARK  status: ('A' for Active; 'I' for Inactive)
REMARK    1  A    between atoms: C_3  and  N_4 
REMARK       I    between atoms: N_4  and  C_5 
REMARK       I    between atoms: C_5  and  N_6 
REMARK    2  A    between atoms: N_6  and  C_7 
REMARK    3  A    between atoms: C_7  and  C_8 
REMARK    4  A    between atoms: C_10  and  O_11 
REMARK    5  A    between atoms: O_11  and  C_12 
ROOT
HETATM    1  N   UNL     1      42.949 -17.035   4.068  1.00  0.00    -0.308 N 
HETATM    2  C   UNL     1      41.791 -16.820   4.785  1.00  0.00     0.321 C 
HETATM    3  N   UNL     1      41.685 -15.497   5.154  1.00  0.00    -0.339 N 
HETATM    4  O   UNL     1      40.929 -17.649   5.039  1.00  0.00    -0.247 OA
HETATM    5  H   UNL     1      43.185 -16.244   3.491  1.00  0.00     0.170 HD
HETATM    6  H   UNL     1      42.532 -14.950   5.163  1.00  0.00     0.164 HD
ENDROOT
BRANCH   3   7
HETATM    7  C   UNL     1      40.587 -15.041   5.982  1.00  0.00     0.163 C 
BRANCH   7   8
HETATM    8  C   UNL     1      40.025 -13.710   5.554  1.00  0.00    -0.035 A 
HETATM    9  C   UNL     1      39.771 -12.680   6.465  1.00  0.00     0.066 A 
HETATM   10  C   UNL     1      39.310 -11.463   5.987  1.00  0.00     0.164 A 
HETATM   11  N   UNL     1      39.098 -11.193   4.683  1.00  0.00    -0.237 NA
HETATM   12  C   UNL     1      39.371 -12.189   3.816  1.00  0.00     0.120 A 
HETATM   13  C   UNL     1      39.829 -13.443   4.194  1.00  0.00     0.028 A 
BRANCH  10  14
HETATM   14  O   UNL     1      39.055 -10.485   6.931  1.00  0.00    -0.329 OA
BRANCH  14  15
HETATM   15  C   UNL     1      39.441 -10.794   8.287  1.00  0.00     0.130 C 
HETATM   16  C   UNL     1      40.674 -10.049   8.862  1.00  0.00     0.032 C 
HETATM   17  C   UNL     1      39.909  -9.937  10.192  1.00  0.00     0.005 C 
HETATM   18  C   UNL     1      38.610 -10.065   9.376  1.00  0.00     0.032 C 
ENDBRANCH  14  15
ENDBRANCH  10  14
ENDBRANCH   7   8
ENDBRANCH   3   7
BRANCH   1  19
HETATM   19  C   UNL     1      43.418 -18.300   3.626  1.00  0.00     0.048 A 
HETATM   20  C   UNL     1      43.011 -18.739   2.341  1.00  0.00    -0.033 A 
HETATM   21  C   UNL     1      42.110 -17.920   1.452  1.00  0.00     0.050 C 
HETATM   22  C   UNL     1      43.423 -19.998   1.870  1.00  0.00     0.033 A 
HETATM   23  C   UNL     1      44.237 -20.810   2.651  1.00  0.00     0.035 A 
HETATM   24  C   UNL     1      44.676 -20.369   3.892  1.00  0.00     0.033 A 
HETATM   25 CL   UNL     1      44.721 -22.354   2.066  1.00  0.00    -0.084 Cl
HETATM   26  C   UNL     1      44.305 -19.101   4.383  1.00  0.00    -0.033 A 
HETATM   27  C   UNL     1      44.926 -18.685   5.690  1.00  0.00     0.050 C 
ENDBRANCH   1  19
TORSDOF 5
ENDMDL
MODEL 6
REMARK VINA RESULT:      -7.8      6.854      9.990
REMARK  5 active torsions:
REMARK  status: ('A' for Active; 'I' for Inactive)
REMARK    1  A    between atoms: C_3  and  N_4 
REMARK       I    between atoms: N_4  and  C_5 
REMARK       I    between atoms: C_5  and  N_6 
REMARK    2  A    between atoms: N_6  and  C_7 
REMARK    3  A    between atoms: C_7  and  C_8 
REMARK    4  A    between atoms: C_10  and  O_11 
REMARK    5  A    between atoms: O_11  and  C_12 
ROOT
HETATM    1  N   UNL     1      43.256 -16.913   3.473  1.00  0.00    -0.308 N 
HETATM    2  C   UNL     1      41.930 -16.535   3.517  1.00  0.00     0.321 C 
HETATM    3  N   UNL     1      41.784 -15.224   3.117  1.00  0.00    -0.339 N 
HETATM    4  O   UNL     1      40.982 -17.245   3.819  1.00  0.00    -0.247 OA
HETATM    5  H   UNL     1      43.745 -16.474   2.709  1.00  0.00     0.170 HD
HETATM    6  H   UNL     1      42.601 -14.635   3.158  1.00  0.00     0.164 HD
ENDROOT
BRANCH   3   7
HETATM    7  C   UNL     1      40.490 -14.576   3.152  1.00  0.00     0.163 C 
BRANCH   7   8
HETATM    8  C   UNL     1      39.903 -14.333   1.785  1.00  0.00    -0.035 A 
HETATM    9  C   UNL     1      40.683 -14.355   0.624  1.00  0.00     0.066 A 
HETATM   10  C   UNL     1      40.061 -14.182  -0.603  1.00  0.00     0.164 A 
HETATM   11  N   UNL     1      38.733 -14.006  -0.759  1.00  0.00    -0.237 NA
HETATM   12  C   UNL     1      37.993 -14.012   0.367  1.00  0.00     0.120 A 
HETATM   13  C   UNL     1      38.520 -14.171   1.640  1.00  0.00     0.028 A 
BRANCH  10  14
HETATM   14  O   UNL     1      40.879 -14.190  -1.717  1.00  0.00    -0.329 OA
BRANCH  14  15
HETATM   15  C   UNL     1      41.347 -12.903  -2.173  1.00  0.00     0.130 C 
HETATM   16  C   UNL     1      42.818 -12.812  -2.657  1.00  0.00     0.032 C 
HETATM   17  C   UNL     1      42.325 -11.886  -3.783  1.00  0.00     0.005 C 
HETATM   18  C   UNL     1      40.944 -12.549  -3.629  1.00  0.00     0.032 C 
ENDBRANCH  14  15
ENDBRANCH  10  14
ENDBRANCH   7   8
ENDBRANCH   3   7
BRANCH   1  19
HETATM   19  C   UNL     1      43.769 -18.160   3.917  1.00  0.00     0.048 A 
HETATM   20  C   UNL     1      43.924 -19.188   2.954  1.00  0.00    -0.033 A 
HETATM   21  C   UNL     1      43.562 -19.000   1.503  1.00  0.00     0.050 C 
HETATM   22  C   UNL     1      44.399 -20.451   3.350  1.00  0.00     0.033 A 
HETATM   23  C   UNL     1      44.729 -20.694   4.677  1.00  0.00     0.035 A 
HETATM   24  C   UNL     1      44.623 -19.679   5.619  1.00  0.00     0.033 A 
HETATM   25 CL   UNL     1      45.296 -22.249   5.148  1.00  0.00    -0.084 Cl
HETATM   26  C   UNL     1      44.177 -18.395   5.252  1.00  0.00    -0.033 A 
HETATM   27  C   UNL     1      44.204 -17.346   6.332  1.00  0.00     0.050 C 
ENDBRANCH   1  19
TORSDOF 5
ENDMDL
MODEL 7
REMARK VINA RESULT:      -7.8      6.999     10.906
REMARK  5 active torsions:
REMARK  status: ('A' for Active; 'I' for Inactive)
REMARK    1  A    between atoms: C_3  and  N_4 
REMARK       I    between atoms: N_4  and  C_5 
REMARK       I    between atoms: C_5  and  N_6 
REMARK    2  A    between atoms: N_6  and  C_7 
REMARK    3  A    between atoms: C_7  and  C_8 
REMARK    4  A    between atoms: C_10  and  O_11 
REMARK    5  A    between atoms: O_11  and  C_12 
ROOT
HETATM    1  N   UNL     1      41.805 -16.043   2.499  1.00  0.00    -0.308 N 
HETATM    2  C   UNL     1      42.371 -14.819   2.210  1.00  0.00     0.321 C 
HETATM    3  N   UNL     1      41.563 -14.096   1.361  1.00  0.00    -0.339 N 
HETATM    4  O   UNL     1      43.420 -14.380   2.660  1.00  0.00    -0.247 OA
HETATM    5  H   UNL     1      40.800 -15.987   2.551  1.00  0.00     0.170 HD
HETATM    6  H   UNL     1      40.883 -14.610   0.822  1.00  0.00     0.164 HD
ENDROOT
BRANCH   3   7
HETATM    7  C   UNL     1      41.982 -12.806   0.854  1.00  0.00     0.163 C 
BRANCH   7   8
HETATM    8  C   UNL     1      42.072 -12.751  -0.649  1.00  0.00    -0.035 A 
HETATM    9  C   UNL     1      41.547 -13.759  -1.465  1.00  0.00     0.066 A 
HETATM   10  C   UNL     1      41.616 -13.609  -2.842  1.00  0.00     0.164 A 
HETATM   11  N   UNL     1      42.149 -12.535  -3.459  1.00  0.00    -0.237 NA
HETATM   12  C   UNL     1      42.628 -11.563  -2.659  1.00  0.00     0.120 A 
HETATM   13  C   UNL     1      42.612 -11.621  -1.273  1.00  0.00     0.028 A 
BRANCH  10  14
HETATM   14  O   UNL     1      41.102 -14.643  -3.602  1.00  0.00    -0.329 OA
BRANCH  14  15
HETATM   15  C   UNL     1      39.812 -15.149  -3.198  1.00  0.00     0.130 C 
HETATM   16  C   UNL     1      38.595 -14.198  -3.353  1.00  0.00     0.032 C 
HETATM   17  C   UNL     1      37.782 -15.416  -3.826  1.00  0.00     0.005 C 
HETATM   18  C   UNL     1      39.117 -16.056  -4.248  1.00  0.00     0.032 C 
ENDBRANCH  14  15
ENDBRANCH  10  14
ENDBRANCH   7   8
ENDBRANCH   3   7
BRANCH   1  19
HETATM   19  C   UNL     1      42.419 -17.073   3.258  1.00  0.00     0.048 A 
HETATM   20  C   UNL     1      41.998 -17.240   4.602  1.00  0.00    -0.033 A 
HETATM   21  C   UNL     1      40.944 -16.369   5.235  1.00  0.00     0.050 C 
HETATM   22  C   UNL     1      42.599 -18.226   5.404  1.00  0.00     0.033 A 
HETATM   23  C   UNL     1      43.592 -19.047   4.886  1.00  0.00     0.035 A 
HETATM   24  C   UNL     1      43.978 -18.921   3.558  1.00  0.00     0.033 A 
HETATM   25 CL   UNL     1      44.326 -20.240   5.884  1.00  0.00    -0.084 Cl
HETATM   26  C   UNL     1      43.379 -17.962   2.718  1.00  0.00    -0.033 A 
HETATM   27  C   UNL     1      43.799 -17.987   1.272  1.00  0.00     0.050 C 
ENDBRANCH   1  19
TORSDOF 5
ENDMDL
MODEL 8
REMARK VINA RESULT:      -7.8      5.490      7.752
REMARK  5 active torsions:
REMARK  status: ('A' for Active; 'I' for Inactive)
REMARK    1  A    between atoms: C_3  and  N_4 
REMARK       I    between atoms: N_4  and  C_5 
REMARK       I    between atoms: C_5  and  N_6 
REMARK    2  A    between atoms: N_6  and  C_7 
REMARK    3  A    between atoms: C_7  and  C_8 
REMARK    4  A    between atoms: C_10  and  O_11 
REMARK    5  A    between atoms: O_11  and  C_12 
ROOT
HETATM    1  N   UNL     1      42.969 -16.939   4.088  1.00  0.00    -0.308 N 
HETATM    2  C   UNL     1      41.813 -16.723   4.808  1.00  0.00     0.321 C 
HETATM    3  N   UNL     1      41.715 -15.402   5.187  1.00  0.00    -0.339 N 
HETATM    4  O   UNL     1      40.948 -17.549   5.059  1.00  0.00    -0.247 OA
HETATM    5  H   UNL     1      43.207 -16.145   3.515  1.00  0.00     0.170 HD
HETATM    6  H   UNL     1      42.565 -14.859   5.197  1.00  0.00     0.164 HD
ENDROOT
BRANCH   3   7
HETATM    7  C   UNL     1      40.620 -14.946   6.019  1.00  0.00     0.163 C 
BRANCH   7   8
HETATM    8  C   UNL     1      40.033 -13.632   5.572  1.00  0.00    -0.035 A 
HETATM    9  C   UNL     1      39.639 -13.402   4.250  1.00  0.00     0.066 A 
HETATM   10  C   UNL     1      39.051 -12.188   3.929  1.00  0.00     0.164 A 
HETATM   11  N   UNL     1      38.815 -11.203   4.819  1.00  0.00    -0.237 NA
HETATM   12  C   UNL     1      39.178 -11.451   6.093  1.00  0.00     0.120 A 
HETATM   13  C   UNL     1      39.779 -12.628   6.514  1.00  0.00     0.028 A 
BRANCH  10  14
HETATM   14  O   UNL     1      38.699 -12.004   2.604  1.00  0.00    -0.329 OA
BRANCH  14  15
HETATM   15  C   UNL     1      38.786 -13.168   1.755  1.00  0.00     0.130 C 
HETATM   16  C   UNL     1      37.520 -13.551   0.943  1.00  0.00     0.032 C 
HETATM   17  C   UNL     1      38.452 -13.889  -0.233  1.00  0.00     0.005 C 
HETATM   18  C   UNL     1      39.473 -12.918   0.386  1.00  0.00     0.032 C 
ENDBRANCH  14  15
ENDBRANCH  10  14
ENDBRANCH   7   8
ENDBRANCH   3   7
BRANCH   1  19
HETATM   19  C   UNL     1      43.431 -18.203   3.637  1.00  0.00     0.048 A 
HETATM   20  C   UNL     1      43.011 -18.636   2.354  1.00  0.00    -0.033 A 
HETATM   21  C   UNL     1      42.104 -17.812   1.477  1.00  0.00     0.050 C 
HETATM   22  C   UNL     1      43.416 -19.895   1.875  1.00  0.00     0.033 A 
HETATM   23  C   UNL     1      44.235 -20.711   2.644  1.00  0.00     0.035 A 
HETATM   24  C   UNL     1      44.687 -20.275   3.883  1.00  0.00     0.033 A 
HETATM   25 CL   UNL     1      44.710 -22.254   2.050  1.00  0.00    -0.084 Cl
HETATM   26  C   UNL     1      44.323 -19.009   4.382  1.00  0.00    -0.033 A 
HETATM   27  C   UNL     1      44.958 -18.599   5.684  1.00  0.00     0.050 C 
ENDBRANCH   1  19
TORSDOF 5
ENDMDL
MODEL 9
REMARK VINA RESULT:      -7.8      6.264      8.899
REMARK  5 active torsions:
REMARK  status: ('A' for Active; 'I' for Inactive)
REMARK    1  A    between atoms: C_3  and  N_4 
REMARK       I    between atoms: N_4  and  C_5 
REMARK       I    between atoms: C_5  and  N_6 
REMARK    2  A    between atoms: N_6  and  C_7 
REMARK    3  A    between atoms: C_7  and  C_8 
REMARK    4  A    between atoms: C_10  and  O_11 
REMARK    5  A    between atoms: O_11  and  C_12 
ROOT
HETATM    1  N   UNL     1      43.489 -16.915   3.917  1.00  0.00    -0.308 N 
HETATM    2  C   UNL     1      42.250 -16.459   4.319  1.00  0.00     0.321 C 
HETATM    3  N   UNL     1      42.269 -15.094   4.502  1.00  0.00    -0.339 N 
HETATM    4  O   UNL     1      41.239 -17.133   4.459  1.00  0.00    -0.247 OA
HETATM    5  H   UNL     1      43.958 -16.249   3.324  1.00  0.00     0.170 HD
HETATM    6  H   UNL     1      43.168 -14.659   4.643  1.00  0.00     0.164 HD
ENDROOT
BRANCH   3   7
HETATM    7  C   UNL     1      41.102 -14.394   4.996  1.00  0.00     0.163 C 
BRANCH   7   8
HETATM    8  C   UNL     1      40.293 -13.732   3.911  1.00  0.00    -0.035 A 
HETATM    9  C   UNL     1      40.061 -14.345   2.675  1.00  0.00     0.066 A 
HETATM   10  C   UNL     1      39.256 -13.700   1.749  1.00  0.00     0.164 A 
HETATM   11  N   UNL     1      38.660 -12.509   1.964  1.00  0.00    -0.237 NA
HETATM   12  C   UNL     1      38.875 -11.944   3.169  1.00  0.00     0.120 A 
HETATM   13  C   UNL     1      39.667 -12.505   4.159  1.00  0.00     0.028 A 
BRANCH  10  14
HETATM   14  O   UNL     1      39.076 -14.338   0.536  1.00  0.00    -0.329 OA
BRANCH  14  15
HETATM   15  C   UNL     1      40.127 -14.162  -0.438  1.00  0.00     0.130 C 
HETATM   16  C   UNL     1      41.054 -15.376  -0.710  1.00  0.00     0.032 C 
HETATM   17  C   UNL     1      41.011 -14.995  -2.201  1.00  0.00     0.005 C 
HETATM   18  C   UNL     1      39.668 -14.301  -1.914  1.00  0.00     0.032 C 
ENDBRANCH  14  15
ENDBRANCH  10  14
ENDBRANCH   7   8
ENDBRANCH   3   7
BRANCH   1  19
HETATM   19  C   UNL     1      43.845 -18.277   3.741  1.00  0.00     0.048 A 
HETATM   20  C   UNL     1      43.686 -18.836   2.447  1.00  0.00    -0.033 A 
HETATM   21  C   UNL     1      43.157 -18.042   1.281  1.00  0.00     0.050 C 
HETATM   22  C   UNL     1      43.995 -20.190   2.230  1.00  0.00     0.033 A 
HETATM   23  C   UNL     1      44.467 -20.981   3.269  1.00  0.00     0.035 A 
HETATM   24  C   UNL     1      44.668 -20.431   4.528  1.00  0.00     0.033 A 
HETATM   25 CL   UNL     1      44.828 -22.640   2.989  1.00  0.00    -0.084 Cl
HETATM   26  C   UNL     1      44.395 -19.071   4.775  1.00  0.00    -0.033 A 
HETATM   27  C   UNL     1      44.751 -18.559   6.146  1.00  0.00     0.050 C 
ENDBRANCH   1  19
TORSDOF 5
ENDMDL
MODEL 10
REMARK VINA RESULT:      -7.7      6.439      9.143
REMARK  5 active torsions:
REMARK  status: ('A' for Active; 'I' for Inactive)
REMARK    1  A    between atoms: C_3  and  N_4 
REMARK       I    between atoms: N_4  and  C_5 
REMARK       I    between atoms: C_5  and  N_6 
REMARK    2  A    between atoms: N_6  and  C_7 
REMARK    3  A    between atoms: C_7  and  C_8 
REMARK    4  A    between atoms: C_10  and  O_11 
REMARK    5  A    between atoms: O_11  and  C_12 
ROOT
HETATM    1  N   UNL     1      42.691 -16.768   4.000  1.00  0.00    -0.308 N 
HETATM    2  C   UNL     1      43.071 -15.539   3.503  1.00  0.00     0.321 C 
HETATM    3  N   UNL     1      42.388 -14.524   4.138  1.00  0.00    -0.339 N 
HETATM    4  O   UNL     1      43.924 -15.332   2.652  1.00  0.00    -0.247 OA
HETATM    5  H   UNL     1      42.485 -16.725   4.986  1.00  0.00     0.170 HD
HETATM    6  H   UNL     1      41.529 -14.767   4.605  1.00  0.00     0.164 HD
ENDROOT
BRANCH   3   7
HETATM    7  C   UNL     1      42.563 -13.144   3.734  1.00  0.00     0.163 C 
BRANCH   7   8
HETATM    8  C   UNL     1      41.676 -12.737   2.586  1.00  0.00    -0.035 A 
HETATM    9  C   UNL     1      42.053 -12.920   1.252  1.00  0.00     0.066 A 
HETATM   10  C   UNL     1      41.158 -12.576   0.250  1.00  0.00     0.164 A 
HETATM   11  N   UNL     1      39.923 -12.082   0.477  1.00  0.00    -0.237 NA
HETATM   12  C   UNL     1      39.567 -11.935   1.768  1.00  0.00     0.120 A 
HETATM   13  C   UNL     1      40.392 -12.243   2.840  1.00  0.00     0.028 A 
BRANCH  10  14
HETATM   14  O   UNL     1      41.587 -12.757  -1.051  1.00  0.00    -0.329 OA
BRANCH  14  15
HETATM   15  C   UNL     1      40.841 -13.708  -1.841  1.00  0.00     0.130 C 
HETATM   16  C   UNL     1      41.468 -14.161  -3.186  1.00  0.00     0.032 C 
HETATM   17  C   UNL     1      40.968 -15.581  -2.869  1.00  0.00     0.005 C 
HETATM   18  C   UNL     1      40.989 -15.183  -1.382  1.00  0.00     0.032 C 
ENDBRANCH  14  15
ENDBRANCH  10  14
ENDBRANCH   7   8
ENDBRANCH   3   7
BRANCH   1  19
HETATM   19  C   UNL     1      43.120 -18.024   3.500  1.00  0.00     0.048 A 
HETATM   20  C   UNL     1      44.019 -18.777   4.297  1.00  0.00    -0.033 A 
HETATM   21  C   UNL     1      44.524 -18.289   5.630  1.00  0.00     0.050 C 
HETATM   22  C   UNL     1      44.498 -20.014   3.830  1.00  0.00     0.033 A 
HETATM   23  C   UNL     1      44.087 -20.509   2.599  1.00  0.00     0.035 A 
HETATM   24  C   UNL     1      43.173 -19.800   1.833  1.00  0.00     0.033 A 
HETATM   25 CL   UNL     1      44.693 -22.018   2.036  1.00  0.00    -0.084 Cl
HETATM   26  C   UNL     1      42.652 -18.570   2.281  1.00  0.00    -0.033 A 
HETATM   27  C   UNL     1      41.589 -17.943   1.419  1.00  0.00     0.050 C 
ENDBRANCH   1  19
TORSDOF 5
ENDMDL
