MODEL 1
REMARK VINA RESULT:      -9.2      0.000      0.000
REMARK  8 active torsions:
REMARK  status: ('A' for Active; 'I' for Inactive)
REMARK    1  A    between atoms: C_2  and  C_3 
REMARK    2  A    between atoms: C_3  and  C_4 
REMARK       I    between atoms: C_4  and  N_5 
REMARK    3  A    between atoms: N_8  and  C_9 
REMARK    4  A    between atoms: C_12  and  N_13 
REMARK    5  A    between atoms: N_13  and  C_14 
REMARK    6  A    between atoms: C_14  and  N_15 
REMARK       I    between atoms: N_15  and  C_16 
REMARK    7  A    between atoms: C_16  and  C_17 
REMARK    8  A    between atoms: C_18  and  O_19 
ROOT
HETATM    1  N   UNL     1      42.900 -13.351   5.804  1.00  0.00    -0.333 N 
HETATM    2  H   UNL     1      42.373 -12.731   6.410  1.00  0.00     0.168 HD
ENDROOT
BRANCH   1   3
HETATM    3  C   UNL     1      42.418 -13.393   4.481  1.00  0.00     0.034 A 
HETATM    4  C   UNL     1      43.206 -13.547   3.347  1.00  0.00     0.032 A 
HETATM    5  C   UNL     1      42.616 -13.634   2.072  1.00  0.00     0.031 A 
HETATM    6  C   UNL     1      41.226 -13.594   1.883  1.00  0.00     0.030 A 
HETATM    7  C   UNL     1      40.453 -13.489   3.049  1.00  0.00     0.031 A 
HETATM    8  C   UNL     1      41.032 -13.379   4.319  1.00  0.00     0.032 A 
BRANCH   6   9
HETATM    9  N   UNL     1      40.605 -13.726   0.630  1.00  0.00    -0.378 N 
HETATM   10  C   UNL     1      39.172 -14.079   0.586  1.00  0.00     0.143 C 
HETATM   11  C   UNL     1      38.582 -13.857  -0.822  1.00  0.00     0.145 C 
HETATM   12  N   UNL     1      39.382 -14.454  -1.899  1.00  0.00    -0.349 N 
HETATM   13  C   UNL     1      38.873 -14.737  -3.165  1.00  0.00     0.219 C 
HETATM   14  C   UNL     1      40.823 -14.205  -1.800  1.00  0.00     0.145 C 
HETATM   15  O   UNL     1      39.607 -14.924  -4.136  1.00  0.00    -0.273 OA
HETATM   16  C   UNL     1      41.389 -14.465  -0.394  1.00  0.00     0.143 C 
BRANCH  13  17
HETATM   17  C   UNL     1      37.359 -14.834  -3.287  1.00  0.00     0.103 C 
BRANCH  17  18
HETATM   18  C   UNL     1      36.774 -13.726  -4.163  1.00  0.00     0.005 C 
HETATM   19  C   UNL     1      35.596 -14.226  -4.982  1.00  0.00     0.005 C 
ENDBRANCH  17  18
ENDBRANCH  13  17
ENDBRANCH   6   9
ENDBRANCH   1   3
BRANCH   1  20
HETATM   20  C   UNL     1      43.727 -14.156   6.495  1.00  0.00     0.179 C 
HETATM   21  S   UNL     1      44.678 -13.465   7.692  1.00  0.00    -0.040 SA
BRANCH  20  22
HETATM   22  N   UNL     1      43.895 -15.483   6.270  1.00  0.00    -0.299 N 
HETATM   23  C   UNL     1      42.937 -16.474   6.047  1.00  0.00     0.260 C 
HETATM   24  O   UNL     1      41.743 -16.393   6.292  1.00  0.00    -0.267 OA
HETATM   25  H   UNL     1      44.773 -15.642   5.793  1.00  0.00     0.171 HD
BRANCH  23  26
HETATM   26  C   UNL     1      43.491 -17.713   5.420  1.00  0.00     0.066 A 
HETATM   27  C   UNL     1      44.425 -18.516   6.083  1.00  0.00     0.084 A 
HETATM   28  C   UNL     1      44.930 -19.664   5.463  1.00  0.00     0.050 A 
HETATM   29  C   UNL     1      44.479 -20.059   4.195  1.00  0.00    -0.023 A 
HETATM   30  C   UNL     1      43.529 -19.260   3.521  1.00  0.00    -0.025 A 
HETATM   31  C   UNL     1      44.951 -21.232   3.584  1.00  0.00     0.012 A 
HETATM   32  C   UNL     1      43.059 -18.085   4.134  1.00  0.00     0.032 A 
HETATM   33  C   UNL     1      43.076 -19.659   2.252  1.00  0.00     0.012 A 
HETATM   34  C   UNL     1      43.549 -20.832   1.662  1.00  0.00     0.001 A 
HETATM   35  C   UNL     1      44.487 -21.618   2.326  1.00  0.00     0.001 A 
BRANCH  27  36
HETATM   36  O   UNL     1      44.941 -18.239   7.321  1.00  0.00    -0.355 OA
HETATM   37  C   UNL     1      44.169 -18.825   8.368  1.00  0.00     0.210 C 
ENDBRANCH  27  36
ENDBRANCH  23  26
ENDBRANCH  20  22
ENDBRANCH   1  20
TORSDOF 8
ENDMDL
MODEL 2
REMARK VINA RESULT:      -9.1      5.231      9.766
REMARK  8 active torsions:
REMARK  status: ('A' for Active; 'I' for Inactive)
REMARK    1  A    between atoms: C_2  and  C_3 
REMARK    2  A    between atoms: C_3  and  C_4 
REMARK       I    between atoms: C_4  and  N_5 
REMARK    3  A    between atoms: N_8  and  C_9 
REMARK    4  A    between atoms: C_12  and  N_13 
REMARK    5  A    between atoms: N_13  and  C_14 
REMARK    6  A    between atoms: C_14  and  N_15 
REMARK       I    between atoms: N_15  and  C_16 
REMARK    7  A    between atoms: C_16  and  C_17 
REMARK    8  A    between atoms: C_18  and  O_19 
ROOT
HETATM    1  N   UNL     1      39.812 -11.381   5.859  1.00  0.00    -0.333 N 
HETATM    2  H   UNL     1      38.812 -11.430   5.690  1.00  0.00     0.168 HD
ENDROOT
BRANCH   1   3
HETATM    3  C   UNL     1      40.460 -12.629   5.783  1.00  0.00     0.034 A 
HETATM    4  C   UNL     1      39.831 -13.864   5.882  1.00  0.00     0.032 A 
HETATM    5  C   UNL     1      40.566 -15.056   5.733  1.00  0.00     0.031 A 
HETATM    6  C   UNL     1      41.943 -15.060   5.460  1.00  0.00     0.030 A 
HETATM    7  C   UNL     1      42.542 -13.799   5.315  1.00  0.00     0.031 A 
HETATM    8  C   UNL     1      41.823 -12.609   5.483  1.00  0.00     0.032 A 
BRANCH   6   9
HETATM    9  N   UNL     1      42.695 -16.229   5.260  1.00  0.00    -0.378 N 
HETATM   10  C   UNL     1      42.881 -16.722   3.880  1.00  0.00     0.143 C 
HETATM   11  C   UNL     1      43.984 -17.797   3.812  1.00  0.00     0.145 C 
HETATM   12  N   UNL     1      43.838 -18.859   4.815  1.00  0.00    -0.349 N 
HETATM   13  C   UNL     1      44.443 -20.109   4.701  1.00  0.00     0.219 C 
HETATM   14  C   UNL     1      43.538 -18.384   6.168  1.00  0.00     0.145 C 
HETATM   15  O   UNL     1      44.584 -20.856   5.669  1.00  0.00    -0.273 OA
HETATM   16  C   UNL     1      42.412 -17.337   6.210  1.00  0.00     0.143 C 
BRANCH  13  17
HETATM   17  C   UNL     1      44.898 -20.524   3.309  1.00  0.00     0.103 C 
BRANCH  17  18
HETATM   18  C   UNL     1      44.345 -21.889   2.900  1.00  0.00     0.005 C 
HETATM   19  C   UNL     1      44.063 -21.953   1.408  1.00  0.00     0.005 C 
ENDBRANCH  17  18
ENDBRANCH  13  17
ENDBRANCH   6   9
ENDBRANCH   1   3
BRANCH   1  20
HETATM   20  C   UNL     1      40.182 -10.195   6.373  1.00  0.00     0.179 C 
HETATM   21  S   UNL     1      40.289  -8.884   5.331  1.00  0.00    -0.040 SA
BRANCH  20  22
HETATM   22  N   UNL     1      40.530  -9.977   7.666  1.00  0.00    -0.299 N 
HETATM   23  C   UNL     1      40.202 -10.710   8.808  1.00  0.00     0.260 C 
HETATM   24  O   UNL     1      39.303 -11.531   8.907  1.00  0.00    -0.267 OA
HETATM   25  H   UNL     1      41.437  -9.530   7.708  1.00  0.00     0.171 HD
BRANCH  23  26
HETATM   26  C   UNL     1      41.095 -10.434   9.974  1.00  0.00     0.066 A 
HETATM   27  C   UNL     1      42.488 -10.415   9.843  1.00  0.00     0.084 A 
HETATM   28  C   UNL     1      43.295 -10.162  10.957  1.00  0.00     0.050 A 
HETATM   29  C   UNL     1      42.731  -9.877  12.209  1.00  0.00    -0.023 A 
HETATM   30  C   UNL     1      41.326  -9.885  12.350  1.00  0.00    -0.025 A 
HETATM   31  C   UNL     1      43.535  -9.583  13.323  1.00  0.00     0.012 A 
HETATM   32  C   UNL     1      40.523 -10.181  11.235  1.00  0.00     0.032 A 
HETATM   33  C   UNL     1      40.762  -9.596  13.605  1.00  0.00     0.012 A 
HETATM   34  C   UNL     1      41.574  -9.298  14.700  1.00  0.00     0.001 A 
HETATM   35  C   UNL     1      42.959  -9.292  14.560  1.00  0.00     0.001 A 
BRANCH  27  36
HETATM   36  O   UNL     1      43.158 -10.676   8.677  1.00  0.00    -0.355 OA
HETATM   37  C   UNL     1      44.102 -11.734   8.826  1.00  0.00     0.210 C 
ENDBRANCH  27  36
ENDBRANCH  23  26
ENDBRANCH  20  22
ENDBRANCH   1  20
TORSDOF 8
ENDMDL
MODEL 3
REMARK VINA RESULT:      -9.0      4.196      8.399
REMARK  8 active torsions:
REMARK  status: ('A' for Active; 'I' for Inactive)
REMARK    1  A    between atoms: C_2  and  C_3 
REMARK    2  A    between atoms: C_3  and  C_4 
REMARK       I    between atoms: C_4  and  N_5 
REMARK    3  A    between atoms: N_8  and  C_9 
REMARK    4  A    between atoms: C_12  and  N_13 
REMARK    5  A    between atoms: N_13  and  C_14 
REMARK    6  A    between atoms: C_14  and  N_15 
REMARK       I    between atoms: N_15  and  C_16 
REMARK    7  A    between atoms: C_16  and  C_17 
REMARK    8  A    between atoms: C_18  and  O_19 
ROOT
HETATM    1  N   UNL     1      39.614 -14.798   2.848  1.00  0.00    -0.333 N 
HETATM    2  H   UNL     1      38.631 -14.952   2.649  1.00  0.00     0.168 HD
ENDROOT
BRANCH   1   3
HETATM    3  C   UNL     1      39.842 -13.860   3.873  1.00  0.00     0.034 A 
HETATM    4  C   UNL     1      39.680 -12.485   3.750  1.00  0.00     0.032 A 
HETATM    5  C   UNL     1      39.879 -11.639   4.857  1.00  0.00     0.031 A 
HETATM    6  C   UNL     1      40.224 -12.130   6.126  1.00  0.00     0.030 A 
HETATM    7  C   UNL     1      40.332 -13.525   6.234  1.00  0.00     0.031 A 
HETATM    8  C   UNL     1      40.157 -14.373   5.132  1.00  0.00     0.032 A 
BRANCH   6   9
HETATM    9  N   UNL     1      40.384 -11.317   7.260  1.00  0.00    -0.378 N 
HETATM   10  C   UNL     1      41.753 -10.992   7.709  1.00  0.00     0.143 C 
HETATM   11  C   UNL     1      41.748  -9.844   8.739  1.00  0.00     0.145 C 
HETATM   12  N   UNL     1      40.787 -10.035   9.832  1.00  0.00    -0.349 N 
HETATM   13  C   UNL     1      40.876  -9.372  11.055  1.00  0.00     0.219 C 
HETATM   14  C   UNL     1      39.454 -10.470   9.405  1.00  0.00     0.145 C 
HETATM   15  O   UNL     1      39.916  -9.287  11.821  1.00  0.00    -0.273 OA
HETATM   16  C   UNL     1      39.488 -11.637   8.403  1.00  0.00     0.143 C 
BRANCH  13  17
HETATM   17  C   UNL     1      42.232  -8.782  11.415  1.00  0.00     0.103 C 
BRANCH  17  18
HETATM   18  C   UNL     1      43.119  -9.778  12.161  1.00  0.00     0.005 C 
HETATM   19  C   UNL     1      43.256  -9.412  13.630  1.00  0.00     0.005 C 
ENDBRANCH  17  18
ENDBRANCH  13  17
ENDBRANCH   6   9
ENDBRANCH   1   3
BRANCH   1  20
HETATM   20  C   UNL     1      40.413 -15.321   1.901  1.00  0.00     0.179 C 
HETATM   21  S   UNL     1      40.207 -14.797   0.320  1.00  0.00    -0.040 SA
BRANCH  20  22
HETATM   22  N   UNL     1      41.346 -16.283   2.109  1.00  0.00    -0.299 N 
HETATM   23  C   UNL     1      42.644 -16.167   2.611  1.00  0.00     0.260 C 
HETATM   24  O   UNL     1      43.296 -15.138   2.696  1.00  0.00    -0.267 OA
HETATM   25  H   UNL     1      40.892 -17.159   2.335  1.00  0.00     0.171 HD
BRANCH  23  26
HETATM   26  C   UNL     1      43.215 -17.459   3.099  1.00  0.00     0.066 A 
HETATM   27  C   UNL     1      43.690 -17.603   4.407  1.00  0.00     0.084 A 
HETATM   28  C   UNL     1      44.227 -18.824   4.829  1.00  0.00     0.050 A 
HETATM   29  C   UNL     1      44.257 -19.935   3.974  1.00  0.00    -0.023 A 
HETATM   30  C   UNL     1      43.771 -19.803   2.654  1.00  0.00    -0.025 A 
HETATM   31  C   UNL     1      44.757 -21.175   4.403  1.00  0.00     0.012 A 
HETATM   32  C   UNL     1      43.271 -18.560   2.226  1.00  0.00     0.032 A 
HETATM   33  C   UNL     1      43.798 -20.918   1.799  1.00  0.00     0.012 A 
HETATM   34  C   UNL     1      44.291 -22.146   2.245  1.00  0.00     0.001 A 
HETATM   35  C   UNL     1      44.771 -22.274   3.545  1.00  0.00     0.001 A 
BRANCH  27  36
HETATM   36  O   UNL     1      43.716 -16.596   5.335  1.00  0.00    -0.355 OA
HETATM   37  C   UNL     1      43.713 -17.097   6.671  1.00  0.00     0.210 C 
ENDBRANCH  27  36
ENDBRANCH  23  26
ENDBRANCH  20  22
ENDBRANCH   1  20
TORSDOF 8
ENDMDL
MODEL 4
REMARK VINA RESULT:      -8.8      2.266      3.530
REMARK  8 active torsions:
REMARK  status: ('A' for Active; 'I' for Inactive)
REMARK    1  A    between atoms: C_2  and  C_3 
REMARK    2  A    between atoms: C_3  and  C_4 
REMARK       I    between atoms: C_4  and  N_5 
REMARK    3  A    between atoms: N_8  and  C_9 
REMARK    4  A    between atoms: C_12  and  N_13 
REMARK    5  A    between atoms: N_13  and  C_14 
REMARK    6  A    between atoms: C_14  and  N_15 
REMARK       I    between atoms: N_15  and  C_16 
REMARK    7  A    between atoms: C_16  and  C_17 
REMARK    8  A    between atoms: C_18  and  O_19 
ROOT
HETATM    1  N   UNL     1      42.382 -13.812   1.773  1.00  0.00    -0.333 N 
HETATM    2  H   UNL     1      43.048 -13.046   1.786  1.00  0.00     0.168 HD
ENDROOT
BRANCH   1   3
HETATM    3  C   UNL     1      41.539 -13.809   0.645  1.00  0.00     0.034 A 
HETATM    4  C   UNL     1      41.394 -14.863  -0.248  1.00  0.00     0.032 A 
HETATM    5  C   UNL     1      40.478 -14.778  -1.313  1.00  0.00     0.031 A 
HETATM    6  C   UNL     1      39.659 -13.655  -1.512  1.00  0.00     0.030 A 
HETATM    7  C   UNL     1      39.790 -12.627  -0.567  1.00  0.00     0.031 A 
HETATM    8  C   UNL     1      40.716 -12.694   0.483  1.00  0.00     0.032 A 
BRANCH   6   9
HETATM    9  N   UNL     1      38.703 -13.559  -2.536  1.00  0.00    -0.378 N 
HETATM   10  C   UNL     1      37.895 -12.326  -2.635  1.00  0.00     0.143 C 
HETATM   11  C   UNL     1      37.150 -12.249  -3.982  1.00  0.00     0.145 C 
HETATM   12  N   UNL     1      36.419 -13.476  -4.324  1.00  0.00    -0.349 N 
HETATM   13  C   UNL     1      35.376 -13.514  -5.248  1.00  0.00     0.219 C 
HETATM   14  C   UNL     1      37.174 -14.715  -4.120  1.00  0.00     0.145 C 
HETATM   15  O   UNL     1      34.997 -14.568  -5.760  1.00  0.00    -0.273 OA
HETATM   16  C   UNL     1      37.881 -14.778  -2.755  1.00  0.00     0.143 C 
BRANCH  13  17
HETATM   17  C   UNL     1      34.702 -12.189  -5.574  1.00  0.00     0.103 C 
BRANCH  17  18
HETATM   18  C   UNL     1      33.272 -12.117  -5.039  1.00  0.00     0.005 C 
HETATM   19  C   UNL     1      33.244 -11.739  -3.568  1.00  0.00     0.005 C 
ENDBRANCH  17  18
ENDBRANCH  13  17
ENDBRANCH   6   9
ENDBRANCH   1   3
BRANCH   1  20
HETATM   20  C   UNL     1      42.313 -14.445   2.958  1.00  0.00     0.179 C 
HETATM   21  S   UNL     1      41.916 -13.538   4.313  1.00  0.00    -0.040 SA
BRANCH  20  22
HETATM   22  N   UNL     1      42.588 -15.757   3.160  1.00  0.00    -0.299 N 
HETATM   23  C   UNL     1      43.535 -16.572   2.536  1.00  0.00     0.260 C 
HETATM   24  O   UNL     1      44.110 -16.336   1.484  1.00  0.00    -0.267 OA
HETATM   25  H   UNL     1      42.403 -16.003   4.124  1.00  0.00     0.171 HD
BRANCH  23  26
HETATM   26  C   UNL     1      43.847 -17.820   3.297  1.00  0.00     0.066 A 
HETATM   27  C   UNL     1      43.970 -17.818   4.691  1.00  0.00     0.084 A 
HETATM   28  C   UNL     1      44.272 -19.003   5.371  1.00  0.00     0.050 A 
HETATM   29  C   UNL     1      44.408 -20.217   4.683  1.00  0.00    -0.023 A 
HETATM   30  C   UNL     1      44.276 -20.231   3.277  1.00  0.00    -0.025 A 
HETATM   31  C   UNL     1      44.671 -21.417   5.363  1.00  0.00     0.012 A 
HETATM   32  C   UNL     1      44.015 -19.029   2.597  1.00  0.00     0.032 A 
HETATM   33  C   UNL     1      44.410 -21.450   2.589  1.00  0.00     0.012 A 
HETATM   34  C   UNL     1      44.664 -22.635   3.281  1.00  0.00     0.001 A 
HETATM   35  C   UNL     1      44.795 -22.619   4.667  1.00  0.00     0.001 A 
BRANCH  27  36
HETATM   36  O   UNL     1      43.859 -16.701   5.474  1.00  0.00    -0.355 OA
HETATM   37  C   UNL     1      42.938 -16.887   6.548  1.00  0.00     0.210 C 
ENDBRANCH  27  36
ENDBRANCH  23  26
ENDBRANCH  20  22
ENDBRANCH   1  20
TORSDOF 8
ENDMDL
MODEL 5
REMARK VINA RESULT:      -8.6      1.482      2.448
REMARK  8 active torsions:
REMARK  status: ('A' for Active; 'I' for Inactive)
REMARK    1  A    between atoms: C_2  and  C_3 
REMARK    2  A    between atoms: C_3  and  C_4 
REMARK       I    between atoms: C_4  and  N_5 
REMARK    3  A    between atoms: N_8  and  C_9 
REMARK    4  A    between atoms: C_12  and  N_13 
REMARK    5  A    between atoms: N_13  and  C_14 
REMARK    6  A    between atoms: C_14  and  N_15 
REMARK       I    between atoms: N_15  and  C_16 
REMARK    7  A    between atoms: C_16  and  C_17 
REMARK    8  A    between atoms: C_18  and  O_19 
ROOT
HETATM    1  N   UNL     1      42.951 -13.378   5.502  1.00  0.00    -0.333 N 
HETATM    2  H   UNL     1      42.687 -12.703   6.212  1.00  0.00     0.168 HD
ENDROOT
BRANCH   1   3
HETATM    3  C   UNL     1      42.211 -13.261   4.309  1.00  0.00     0.034 A 
HETATM    4  C   UNL     1      42.757 -13.198   3.033  1.00  0.00     0.032 A 
HETATM    5  C   UNL     1      41.924 -13.141   1.900  1.00  0.00     0.031 A 
HETATM    6  C   UNL     1      40.524 -13.166   1.995  1.00  0.00     0.030 A 
HETATM    7  C   UNL     1      40.001 -13.280   3.292  1.00  0.00     0.031 A 
HETATM    8  C   UNL     1      40.822 -13.315   4.426  1.00  0.00     0.032 A 
BRANCH   6   9
HETATM    9  N   UNL     1      39.666 -13.157   0.883  1.00  0.00    -0.378 N 
HETATM   10  C   UNL     1      40.131 -13.782  -0.372  1.00  0.00     0.143 C 
HETATM   11  C   UNL     1      38.967 -13.979  -1.365  1.00  0.00     0.145 C 
HETATM   12  N   UNL     1      38.147 -12.777  -1.560  1.00  0.00    -0.349 N 
HETATM   13  C   UNL     1      37.323 -12.583  -2.667  1.00  0.00     0.219 C 
HETATM   14  C   UNL     1      37.776 -12.083  -0.324  1.00  0.00     0.145 C 
HETATM   15  O   UNL     1      36.415 -11.752  -2.666  1.00  0.00    -0.273 OA
HETATM   16  C   UNL     1      38.961 -11.872   0.633  1.00  0.00     0.143 C 
BRANCH  13  17
HETATM   17  C   UNL     1      37.619 -13.430  -3.896  1.00  0.00     0.103 C 
BRANCH  17  18
HETATM   18  C   UNL     1      36.560 -14.507  -4.129  1.00  0.00     0.005 C 
HETATM   19  C   UNL     1      35.515 -14.053  -5.135  1.00  0.00     0.005 C 
ENDBRANCH  17  18
ENDBRANCH  13  17
ENDBRANCH   6   9
ENDBRANCH   1   3
BRANCH   1  20
HETATM   20  C   UNL     1      43.730 -14.357   5.996  1.00  0.00     0.179 C 
HETATM   21  S   UNL     1      44.684 -14.006   7.331  1.00  0.00    -0.040 SA
BRANCH  20  22
HETATM   22  N   UNL     1      43.848 -15.602   5.470  1.00  0.00    -0.299 N 
HETATM   23  C   UNL     1      43.120 -16.758   5.754  1.00  0.00     0.260 C 
HETATM   24  O   UNL     1      42.420 -16.949   6.737  1.00  0.00    -0.267 OA
HETATM   25  H   UNL     1      44.171 -15.541   4.513  1.00  0.00     0.171 HD
BRANCH  23  26
HETATM   26  C   UNL     1      43.230 -17.811   4.698  1.00  0.00     0.066 A 
HETATM   27  C   UNL     1      42.691 -17.627   3.420  1.00  0.00     0.084 A 
HETATM   28  C   UNL     1      42.804 -18.636   2.458  1.00  0.00     0.050 A 
HETATM   29  C   UNL     1      43.496 -19.824   2.734  1.00  0.00    -0.023 A 
HETATM   30  C   UNL     1      44.052 -20.016   4.019  1.00  0.00    -0.025 A 
HETATM   31  C   UNL     1      43.648 -20.825   1.761  1.00  0.00     0.012 A 
HETATM   32  C   UNL     1      43.898 -19.014   4.993  1.00  0.00     0.032 A 
HETATM   33  C   UNL     1      44.748 -21.206   4.293  1.00  0.00     0.012 A 
HETATM   34  C   UNL     1      44.898 -22.187   3.312  1.00  0.00     0.001 A 
HETATM   35  C   UNL     1      44.348 -21.997   2.047  1.00  0.00     0.001 A 
BRANCH  27  36
HETATM   36  O   UNL     1      41.995 -16.514   3.028  1.00  0.00    -0.355 OA
HETATM   37  C   UNL     1      40.713 -16.843   2.497  1.00  0.00     0.210 C 
ENDBRANCH  27  36
ENDBRANCH  23  26
ENDBRANCH  20  22
ENDBRANCH   1  20
TORSDOF 8
ENDMDL
MODEL 6
REMARK VINA RESULT:      -8.4      4.612      8.762
REMARK  8 active torsions:
REMARK  status: ('A' for Active; 'I' for Inactive)
REMARK    1  A    between atoms: C_2  and  C_3 
REMARK    2  A    between atoms: C_3  and  C_4 
REMARK       I    between atoms: C_4  and  N_5 
REMARK    3  A    between atoms: N_8  and  C_9 
REMARK    4  A    between atoms: C_12  and  N_13 
REMARK    5  A    between atoms: N_13  and  C_14 
REMARK    6  A    between atoms: C_14  and  N_15 
REMARK       I    between atoms: N_15  and  C_16 
REMARK    7  A    between atoms: C_16  and  C_17 
REMARK    8  A    between atoms: C_18  and  O_19 
ROOT
HETATM    1  N   UNL     1      38.994 -10.089   5.019  1.00  0.00    -0.333 N 
HETATM    2  H   UNL     1      38.110 -10.098   4.521  1.00  0.00     0.168 HD
ENDROOT
BRANCH   1   3
HETATM    3  C   UNL     1      39.808 -11.205   4.746  1.00  0.00     0.034 A 
HETATM    4  C   UNL     1      41.128 -11.147   4.317  1.00  0.00     0.032 A 
HETATM    5  C   UNL     1      41.873 -12.326   4.127  1.00  0.00     0.031 A 
HETATM    6  C   UNL     1      41.339 -13.600   4.379  1.00  0.00     0.030 A 
HETATM    7  C   UNL     1      40.020 -13.627   4.859  1.00  0.00     0.031 A 
HETATM    8  C   UNL     1      39.265 -12.460   5.029  1.00  0.00     0.032 A 
BRANCH   6   9
HETATM    9  N   UNL     1      42.069 -14.792   4.245  1.00  0.00    -0.378 N 
HETATM   10  C   UNL     1      42.257 -15.357   2.893  1.00  0.00     0.143 C 
HETATM   11  C   UNL     1      43.339 -16.455   2.890  1.00  0.00     0.145 C 
HETATM   12  N   UNL     1      43.164 -17.462   3.943  1.00  0.00    -0.349 N 
HETATM   13  C   UNL     1      43.745 -18.728   3.898  1.00  0.00     0.219 C 
HETATM   14  C   UNL     1      42.863 -16.914   5.269  1.00  0.00     0.145 C 
HETATM   15  O   UNL     1      43.864 -19.428   4.904  1.00  0.00    -0.273 OA
HETATM   16  C   UNL     1      41.757 -15.845   5.247  1.00  0.00     0.143 C 
BRANCH  13  17
HETATM   17  C   UNL     1      44.203 -19.222   2.533  1.00  0.00     0.103 C 
BRANCH  17  18
HETATM   18  C   UNL     1      43.300 -20.325   1.982  1.00  0.00     0.005 C 
HETATM   19  C   UNL     1      44.065 -21.622   1.776  1.00  0.00     0.005 C 
ENDBRANCH  17  18
ENDBRANCH  13  17
ENDBRANCH   6   9
ENDBRANCH   1   3
BRANCH   1  20
HETATM   20  C   UNL     1      39.018  -9.165   5.996  1.00  0.00     0.179 C 
HETATM   21  S   UNL     1      38.047  -7.808   5.821  1.00  0.00    -0.040 SA
BRANCH  20  22
HETATM   22  N   UNL     1      39.806  -9.214   7.099  1.00  0.00    -0.299 N 
HETATM   23  C   UNL     1      39.656  -9.966   8.266  1.00  0.00     0.260 C 
HETATM   24  O   UNL     1      38.633 -10.518   8.643  1.00  0.00    -0.267 OA
HETATM   25  H   UNL     1      40.769  -9.039   6.841  1.00  0.00     0.171 HD
BRANCH  23  26
HETATM   26  C   UNL     1      40.913 -10.092   9.064  1.00  0.00     0.066 A 
HETATM   27  C   UNL     1      41.045  -9.496  10.324  1.00  0.00     0.084 A 
HETATM   28  C   UNL     1      42.239  -9.626  11.041  1.00  0.00     0.050 A 
HETATM   29  C   UNL     1      43.303 -10.390  10.541  1.00  0.00    -0.023 A 
HETATM   30  C   UNL     1      43.176 -11.004   9.275  1.00  0.00    -0.025 A 
HETATM   31  C   UNL     1      44.489 -10.559  11.273  1.00  0.00     0.012 A 
HETATM   32  C   UNL     1      41.988 -10.833   8.542  1.00  0.00     0.032 A 
HETATM   33  C   UNL     1      44.243 -11.773   8.776  1.00  0.00     0.012 A 
HETATM   34  C   UNL     1      45.412 -11.937   9.521  1.00  0.00     0.001 A 
HETATM   35  C   UNL     1      45.536 -11.330  10.767  1.00  0.00     0.001 A 
BRANCH  27  36
HETATM   36  O   UNL     1      40.080  -8.728  10.919  1.00  0.00    -0.355 OA
HETATM   37  C   UNL     1      39.530  -9.357  12.075  1.00  0.00     0.210 C 
ENDBRANCH  27  36
ENDBRANCH  23  26
ENDBRANCH  20  22
ENDBRANCH   1  20
TORSDOF 8
ENDMDL
MODEL 7
REMARK VINA RESULT:      -8.2      1.738      2.221
REMARK  8 active torsions:
REMARK  status: ('A' for Active; 'I' for Inactive)
REMARK    1  A    between atoms: C_2  and  C_3 
REMARK    2  A    between atoms: C_3  and  C_4 
REMARK       I    between atoms: C_4  and  N_5 
REMARK    3  A    between atoms: N_8  and  C_9 
REMARK    4  A    between atoms: C_12  and  N_13 
REMARK    5  A    between atoms: N_13  and  C_14 
REMARK    6  A    between atoms: C_14  and  N_15 
REMARK       I    between atoms: N_15  and  C_16 
REMARK    7  A    between atoms: C_16  and  C_17 
REMARK    8  A    between atoms: C_18  and  O_19 
ROOT
HETATM    1  N   UNL     1      42.781 -13.288   6.162  1.00  0.00    -0.333 N 
HETATM    2  H   UNL     1      42.259 -12.787   6.874  1.00  0.00     0.168 HD
ENDROOT
BRANCH   1   3
HETATM    3  C   UNL     1      42.191 -13.231   4.885  1.00  0.00     0.034 A 
HETATM    4  C   UNL     1      40.872 -12.878   4.628  1.00  0.00     0.032 A 
HETATM    5  C   UNL     1      40.397 -12.796   3.305  1.00  0.00     0.031 A 
HETATM    6  C   UNL     1      41.221 -13.039   2.195  1.00  0.00     0.030 A 
HETATM    7  C   UNL     1      42.561 -13.344   2.482  1.00  0.00     0.031 A 
HETATM    8  C   UNL     1      43.035 -13.449   3.795  1.00  0.00     0.032 A 
BRANCH   6   9
HETATM    9  N   UNL     1      40.791 -12.920   0.863  1.00  0.00    -0.378 N 
HETATM   10  C   UNL     1      41.740 -12.397  -0.141  1.00  0.00     0.143 C 
HETATM   11  C   UNL     1      41.230 -12.642  -1.576  1.00  0.00     0.145 C 
HETATM   12  N   UNL     1      39.839 -12.225  -1.788  1.00  0.00    -0.349 N 
HETATM   13  C   UNL     1      39.298 -11.971  -3.048  1.00  0.00     0.219 C 
HETATM   14  C   UNL     1      38.908 -12.642  -0.736  1.00  0.00     0.145 C 
HETATM   15  O   UNL     1      38.083 -11.943  -3.242  1.00  0.00    -0.273 OA
HETATM   16  C   UNL     1      39.428 -12.356   0.683  1.00  0.00     0.143 C 
BRANCH  13  17
HETATM   17  C   UNL     1      40.286 -11.697  -4.172  1.00  0.00     0.103 C 
BRANCH  17  18
HETATM   18  C   UNL     1      40.396 -10.208  -4.500  1.00  0.00     0.005 C 
HETATM   19  C   UNL     1      40.292  -9.956  -5.995  1.00  0.00     0.005 C 
ENDBRANCH  17  18
ENDBRANCH  13  17
ENDBRANCH   6   9
ENDBRANCH   1   3
BRANCH   1  20
HETATM   20  C   UNL     1      43.727 -14.084   6.691  1.00  0.00     0.179 C 
HETATM   21  S   UNL     1      44.859 -13.387   7.716  1.00  0.00    -0.040 SA
BRANCH  20  22
HETATM   22  N   UNL     1      43.876 -15.405   6.424  1.00  0.00    -0.299 N 
HETATM   23  C   UNL     1      42.906 -16.367   6.135  1.00  0.00     0.260 C 
HETATM   24  O   UNL     1      41.706 -16.269   6.343  1.00  0.00    -0.267 OA
HETATM   25  H   UNL     1      44.766 -15.567   5.971  1.00  0.00     0.171 HD
BRANCH  23  26
HETATM   26  C   UNL     1      43.455 -17.595   5.482  1.00  0.00     0.066 A 
HETATM   27  C   UNL     1      44.390 -18.413   6.127  1.00  0.00     0.084 A 
HETATM   28  C   UNL     1      44.890 -19.550   5.484  1.00  0.00     0.050 A 
HETATM   29  C   UNL     1      44.434 -19.919   4.210  1.00  0.00    -0.023 A 
HETATM   30  C   UNL     1      43.483 -19.106   3.555  1.00  0.00    -0.025 A 
HETATM   31  C   UNL     1      44.901 -21.081   3.575  1.00  0.00     0.012 A 
HETATM   32  C   UNL     1      43.017 -17.942   4.191  1.00  0.00     0.032 A 
HETATM   33  C   UNL     1      43.025 -19.479   2.280  1.00  0.00     0.012 A 
HETATM   34  C   UNL     1      43.494 -20.642   1.666  1.00  0.00     0.001 A 
HETATM   35  C   UNL     1      44.431 -21.442   2.312  1.00  0.00     0.001 A 
BRANCH  27  36
HETATM   36  O   UNL     1      44.911 -18.160   7.368  1.00  0.00    -0.355 OA
HETATM   37  C   UNL     1      44.254 -18.910   8.389  1.00  0.00     0.210 C 
ENDBRANCH  27  36
ENDBRANCH  23  26
ENDBRANCH  20  22
ENDBRANCH   1  20
TORSDOF 8
ENDMDL
MODEL 8
REMARK VINA RESULT:      -8.0      5.089      9.541
REMARK  8 active torsions:
REMARK  status: ('A' for Active; 'I' for Inactive)
REMARK    1  A    between atoms: C_2  and  C_3 
REMARK    2  A    between atoms: C_3  and  C_4 
REMARK       I    between atoms: C_4  and  N_5 
REMARK    3  A    between atoms: N_8  and  C_9 
REMARK    4  A    between atoms: C_12  and  N_13 
REMARK    5  A    between atoms: N_13  and  C_14 
REMARK    6  A    between atoms: C_14  and  N_15 
REMARK       I    between atoms: N_15  and  C_16 
REMARK    7  A    between atoms: C_16  and  C_17 
REMARK    8  A    between atoms: C_18  and  O_19 
ROOT
HETATM    1  N   UNL     1      40.331 -12.616   3.515  1.00  0.00    -0.333 N 
HETATM    2  H   UNL     1      39.473 -12.459   2.997  1.00  0.00     0.168 HD
ENDROOT
BRANCH   1   3
HETATM    3  C   UNL     1      40.358 -11.980   4.771  1.00  0.00     0.034 A 
HETATM    4  C   UNL     1      39.440 -12.189   5.793  1.00  0.00     0.032 A 
HETATM    5  C   UNL     1      39.591 -11.543   7.034  1.00  0.00     0.031 A 
HETATM    6  C   UNL     1      40.670 -10.687   7.309  1.00  0.00     0.030 A 
HETATM    7  C   UNL     1      41.608 -10.534   6.277  1.00  0.00     0.031 A 
HETATM    8  C   UNL     1      41.453 -11.155   5.031  1.00  0.00     0.032 A 
BRANCH   6   9
HETATM    9  N   UNL     1      40.875 -10.066   8.552  1.00  0.00    -0.378 N 
HETATM   10  C   UNL     1      41.812 -10.690   9.508  1.00  0.00     0.143 C 
HETATM   11  C   UNL     1      42.168  -9.724  10.656  1.00  0.00     0.145 C 
HETATM   12  N   UNL     1      41.000  -9.095  11.283  1.00  0.00    -0.349 N 
HETATM   13  C   UNL     1      41.026  -8.526  12.555  1.00  0.00     0.219 C 
HETATM   14  C   UNL     1      40.006  -8.573  10.341  1.00  0.00     0.145 C 
HETATM   15  O   UNL     1      40.163  -7.733  12.933  1.00  0.00    -0.273 OA
HETATM   16  C   UNL     1      39.646  -9.569   9.225  1.00  0.00     0.143 C 
BRANCH  13  17
HETATM   17  C   UNL     1      42.161  -8.956  13.473  1.00  0.00     0.103 C 
BRANCH  17  18
HETATM   18  C   UNL     1      41.672  -9.815  14.639  1.00  0.00     0.005 C 
HETATM   19  C   UNL     1      41.770  -9.070  15.960  1.00  0.00     0.005 C 
ENDBRANCH  17  18
ENDBRANCH  13  17
ENDBRANCH   6   9
ENDBRANCH   1   3
BRANCH   1  20
HETATM   20  C   UNL     1      41.297 -13.153   2.747  1.00  0.00     0.179 C 
HETATM   21  S   UNL     1      41.866 -12.250   1.452  1.00  0.00    -0.040 SA
BRANCH  20  22
HETATM   22  N   UNL     1      41.819 -14.395   2.903  1.00  0.00    -0.299 N 
HETATM   23  C   UNL     1      41.257 -15.526   3.499  1.00  0.00     0.260 C 
HETATM   24  O   UNL     1      40.294 -15.544   4.250  1.00  0.00    -0.267 OA
HETATM   25  H   UNL     1      42.452 -14.600   2.141  1.00  0.00     0.171 HD
BRANCH  23  26
HETATM   26  C   UNL     1      41.930 -16.804   3.113  1.00  0.00     0.066 A 
HETATM   27  C   UNL     1      41.707 -17.404   1.869  1.00  0.00     0.084 A 
HETATM   28  C   UNL     1      42.346 -18.605   1.543  1.00  0.00     0.050 A 
HETATM   29  C   UNL     1      43.255 -19.203   2.428  1.00  0.00    -0.023 A 
HETATM   30  C   UNL     1      43.495 -18.600   3.683  1.00  0.00    -0.025 A 
HETATM   31  C   UNL     1      43.931 -20.387   2.092  1.00  0.00     0.012 A 
HETATM   32  C   UNL     1      42.816 -17.416   4.019  1.00  0.00     0.032 A 
HETATM   33  C   UNL     1      44.408 -19.200   4.567  1.00  0.00     0.012 A 
HETATM   34  C   UNL     1      45.078 -20.372   4.214  1.00  0.00     0.001 A 
HETATM   35  C   UNL     1      44.839 -20.966   2.978  1.00  0.00     0.001 A 
BRANCH  27  36
HETATM   36  O   UNL     1      40.846 -16.919   0.920  1.00  0.00    -0.355 OA
HETATM   37  C   UNL     1      41.534 -16.266  -0.145  1.00  0.00     0.210 C 
ENDBRANCH  27  36
ENDBRANCH  23  26
ENDBRANCH  20  22
ENDBRANCH   1  20
TORSDOF 8
ENDMDL
MODEL 9
REMARK VINA RESULT:      -8.0      2.330      3.080
REMARK  8 active torsions:
REMARK  status: ('A' for Active; 'I' for Inactive)
REMARK    1  A    between atoms: C_2  and  C_3 
REMARK    2  A    between atoms: C_3  and  C_4 
REMARK       I    between atoms: C_4  and  N_5 
REMARK    3  A    between atoms: N_8  and  C_9 
REMARK    4  A    between atoms: C_12  and  N_13 
REMARK    5  A    between atoms: N_13  and  C_14 
REMARK    6  A    between atoms: C_14  and  N_15 
REMARK       I    between atoms: N_15  and  C_16 
REMARK    7  A    between atoms: C_16  and  C_17 
REMARK    8  A    between atoms: C_18  and  O_19 
ROOT
HETATM    1  N   UNL     1      40.387 -13.986   4.505  1.00  0.00    -0.333 N 
HETATM    2  H   UNL     1      39.744 -13.931   5.288  1.00  0.00     0.168 HD
ENDROOT
BRANCH   1   3
HETATM    3  C   UNL     1      39.782 -13.744   3.257  1.00  0.00     0.034 A 
HETATM    4  C   UNL     1      39.306 -14.725   2.396  1.00  0.00     0.032 A 
HETATM    5  C   UNL     1      38.663 -14.373   1.194  1.00  0.00     0.031 A 
HETATM    6  C   UNL     1      38.451 -13.036   0.820  1.00  0.00     0.030 A 
HETATM    7  C   UNL     1      38.897 -12.067   1.731  1.00  0.00     0.031 A 
HETATM    8  C   UNL     1      39.558 -12.409   2.918  1.00  0.00     0.032 A 
BRANCH   6   9
HETATM    9  N   UNL     1      37.773 -12.652  -0.348  1.00  0.00    -0.378 N 
HETATM   10  C   UNL     1      38.406 -12.923  -1.655  1.00  0.00     0.143 C 
HETATM   11  C   UNL     1      37.401 -12.748  -2.812  1.00  0.00     0.145 C 
HETATM   12  N   UNL     1      36.650 -11.488  -2.758  1.00  0.00    -0.349 N 
HETATM   13  C   UNL     1      36.009 -10.930  -3.862  1.00  0.00     0.219 C 
HETATM   14  C   UNL     1      36.114 -11.152  -1.436  1.00  0.00     0.145 C 
HETATM   15  O   UNL     1      35.132 -10.073  -3.743  1.00  0.00    -0.273 OA
HETATM   16  C   UNL     1      37.146 -11.304  -0.305  1.00  0.00     0.143 C 
BRANCH  13  17
HETATM   17  C   UNL     1      36.466 -11.409  -5.232  1.00  0.00     0.103 C 
BRANCH  17  18
HETATM   18  C   UNL     1      35.332 -12.048  -6.033  1.00  0.00     0.005 C 
HETATM   19  C   UNL     1      35.277 -13.552  -5.821  1.00  0.00     0.005 C 
ENDBRANCH  17  18
ENDBRANCH  13  17
ENDBRANCH   6   9
ENDBRANCH   1   3
BRANCH   1  20
HETATM   20  C   UNL     1      41.564 -14.538   4.853  1.00  0.00     0.179 C 
HETATM   21  S   UNL     1      42.624 -13.619   5.771  1.00  0.00    -0.040 SA
BRANCH  20  22
HETATM   22  N   UNL     1      41.990 -15.770   4.477  1.00  0.00    -0.299 N 
HETATM   23  C   UNL     1      42.971 -16.125   3.549  1.00  0.00     0.260 C 
HETATM   24  O   UNL     1      43.442 -15.403   2.684  1.00  0.00    -0.267 OA
HETATM   25  H   UNL     1      41.900 -16.416   5.250  1.00  0.00     0.171 HD
BRANCH  23  26
HETATM   26  C   UNL     1      43.465 -17.527   3.706  1.00  0.00     0.066 A 
HETATM   27  C   UNL     1      44.029 -17.976   4.906  1.00  0.00     0.084 A 
HETATM   28  C   UNL     1      44.491 -19.292   5.016  1.00  0.00     0.050 A 
HETATM   29  C   UNL     1      44.356 -20.197   3.953  1.00  0.00    -0.023 A 
HETATM   30  C   UNL     1      43.779 -19.756   2.741  1.00  0.00    -0.025 A 
HETATM   31  C   UNL     1      44.780 -21.530   4.070  1.00  0.00     0.012 A 
HETATM   32  C   UNL     1      43.357 -18.420   2.625  1.00  0.00     0.032 A 
HETATM   33  C   UNL     1      43.642 -20.665   1.677  1.00  0.00     0.012 A 
HETATM   34  C   UNL     1      44.061 -21.990   1.813  1.00  0.00     0.001 A 
HETATM   35  C   UNL     1      44.630 -22.422   3.007  1.00  0.00     0.001 A 
BRANCH  27  36
HETATM   36  O   UNL     1      44.215 -17.191   6.013  1.00  0.00    -0.355 OA
HETATM   37  C   UNL     1      45.213 -17.721   6.884  1.00  0.00     0.210 C 
ENDBRANCH  27  36
ENDBRANCH  23  26
ENDBRANCH  20  22
ENDBRANCH   1  20
TORSDOF 8
ENDMDL
MODEL 10
REMARK VINA RESULT:      -7.8      1.887      3.173
REMARK  8 active torsions:
REMARK  status: ('A' for Active; 'I' for Inactive)
REMARK    1  A    between atoms: C_2  and  C_3 
REMARK    2  A    between atoms: C_3  and  C_4 
REMARK       I    between atoms: C_4  and  N_5 
REMARK    3  A    between atoms: N_8  and  C_9 
REMARK    4  A    between atoms: C_12  and  N_13 
REMARK    5  A    between atoms: N_13  and  C_14 
REMARK    6  A    between atoms: C_14  and  N_15 
REMARK       I    between atoms: N_15  and  C_16 
REMARK    7  A    between atoms: C_16  and  C_17 
REMARK    8  A    between atoms: C_18  and  O_19 
ROOT
HETATM    1  N   UNL     1      42.451 -12.837   3.497  1.00  0.00    -0.333 N 
HETATM    2  H   UNL     1      42.564 -11.872   3.790  1.00  0.00     0.168 HD
ENDROOT
BRANCH   1   3
HETATM    3  C   UNL     1      41.605 -12.993   2.382  1.00  0.00     0.034 A 
HETATM    4  C   UNL     1      40.283 -13.418   2.434  1.00  0.00     0.032 A 
HETATM    5  C   UNL     1      39.505 -13.484   1.263  1.00  0.00     0.031 A 
HETATM    6  C   UNL     1      40.007 -13.110   0.006  1.00  0.00     0.030 A 
HETATM    7  C   UNL     1      41.328 -12.638  -0.010  1.00  0.00     0.031 A 
HETATM    8  C   UNL     1      42.116 -12.590   1.147  1.00  0.00     0.032 A 
BRANCH   6   9
HETATM    9  N   UNL     1      39.244 -13.120  -1.173  1.00  0.00    -0.378 N 
HETATM   10  C   UNL     1      38.456 -11.919  -1.514  1.00  0.00     0.143 C 
HETATM   11  C   UNL     1      37.957 -11.970  -2.973  1.00  0.00     0.145 C 
HETATM   12  N   UNL     1      37.308 -13.237  -3.331  1.00  0.00    -0.349 N 
HETATM   13  C   UNL     1      36.443 -13.375  -4.416  1.00  0.00     0.219 C 
HETATM   14  C   UNL     1      38.026 -14.437  -2.895  1.00  0.00     0.145 C 
HETATM   15  O   UNL     1      36.169 -14.475  -4.895  1.00  0.00    -0.273 OA
HETATM   16  C   UNL     1      38.483 -14.372  -1.428  1.00  0.00     0.143 C 
BRANCH  13  17
HETATM   17  C   UNL     1      35.826 -12.096  -4.965  1.00  0.00     0.103 C 
BRANCH  17  18
HETATM   18  C   UNL     1      34.307 -12.066  -4.798  1.00  0.00     0.005 C 
HETATM   19  C   UNL     1      33.721 -10.744  -5.263  1.00  0.00     0.005 C 
ENDBRANCH  17  18
ENDBRANCH  13  17
ENDBRANCH   6   9
ENDBRANCH   1   3
BRANCH   1  20
HETATM   20  C   UNL     1      42.914 -13.704   4.414  1.00  0.00     0.179 C 
HETATM   21  S   UNL     1      43.161 -13.142   5.976  1.00  0.00    -0.040 SA
BRANCH  20  22
HETATM   22  N   UNL     1      43.250 -14.996   4.169  1.00  0.00    -0.299 N 
HETATM   23  C   UNL     1      42.806 -16.162   4.794  1.00  0.00     0.260 C 
HETATM   24  O   UNL     1      42.240 -16.233   5.874  1.00  0.00    -0.267 OA
HETATM   25  H   UNL     1      43.478 -15.112   3.190  1.00  0.00     0.171 HD
BRANCH  23  26
HETATM   26  C   UNL     1      43.052 -17.401   3.995  1.00  0.00     0.066 A 
HETATM   27  C   UNL     1      42.705 -17.483   2.642  1.00  0.00     0.084 A 
HETATM   28  C   UNL     1      42.941 -18.661   1.925  1.00  0.00     0.050 A 
HETATM   29  C   UNL     1      43.570 -19.760   2.528  1.00  0.00    -0.023 A 
HETATM   30  C   UNL     1      43.934 -19.684   3.891  1.00  0.00    -0.025 A 
HETATM   31  C   UNL     1      43.847 -20.931   1.805  1.00  0.00     0.012 A 
HETATM   32  C   UNL     1      43.654 -18.512   4.615  1.00  0.00     0.032 A 
HETATM   33  C   UNL     1      44.567 -20.785   4.493  1.00  0.00     0.012 A 
HETATM   34  C   UNL     1      44.843 -21.939   3.758  1.00  0.00     0.001 A 
HETATM   35  C   UNL     1      44.483 -22.013   2.415  1.00  0.00     0.001 A 
BRANCH  27  36
HETATM   36  O   UNL     1      42.087 -16.481   1.941  1.00  0.00    -0.355 OA
HETATM   37  C   UNL     1      40.952 -16.953   1.217  1.00  0.00     0.210 C 
ENDBRANCH  27  36
ENDBRANCH  23  26
ENDBRANCH  20  22
ENDBRANCH   1  20
TORSDOF 8
ENDMDL
