MODEL 1
REMARK VINA RESULT:      -8.2      0.000      0.000
REMARK  6 active torsions:
REMARK  status: ('A' for Active; 'I' for Inactive)
REMARK    1  A    between atoms: C_2  and  C_3 
REMARK    2  A    between atoms: C_3  and  O_4 
REMARK    3  A    between atoms: O_4  and  C_5 
REMARK    4  A    between atoms: C_8  and  C_9 
REMARK    5  A    between atoms: C_9  and  N_10 
REMARK       I    between atoms: N_10  and  C_11 
REMARK       I    between atoms: C_11  and  N_12 
REMARK    6  A    between atoms: N_12  and  C_13 
ROOT
HETATM    1  N   UNL     1      44.074 -12.486   8.624  1.00  0.00    -0.339 N 
HETATM    2  C   UNL     1      44.124 -12.387   9.987  1.00  0.00     0.316 C 
HETATM    3  N   UNL     1      43.097 -11.630  10.491  1.00  0.00    -0.338 N 
HETATM    4  O   UNL     1      45.010 -12.880  10.672  1.00  0.00    -0.247 OA
HETATM    5  H   UNL     1      43.273 -12.115   8.136  1.00  0.00     0.164 HD
HETATM    6  H   UNL     1      42.231 -11.667   9.975  1.00  0.00     0.164 HD
ENDROOT
BRANCH   1   7
HETATM    7  C   UNL     1      45.024 -13.296   7.900  1.00  0.00     0.164 C 
BRANCH   7   8
HETATM    8  C   UNL     1      44.342 -14.293   7.010  1.00  0.00    -0.021 A 
HETATM    9  C   UNL     1      44.049 -13.980   5.686  1.00  0.00     0.128 A 
HETATM   10  N   UNL     1      43.476 -14.837   4.808  1.00  0.00    -0.235 NA
HETATM   11  C   UNL     1      43.182 -16.079   5.265  1.00  0.00     0.186 A 
HETATM   12  C   UNL     1      43.422 -16.484   6.576  1.00  0.00     0.087 A 
HETATM   13  C   UNL     1      44.010 -15.576   7.456  1.00  0.00     0.038 A 
HETATM   14 CL   UNL     1      43.037 -18.066   7.143  1.00  0.00    -0.080 Cl
BRANCH  11  15
HETATM   15  O   UNL     1      42.625 -16.997   4.396  1.00  0.00    -0.333 OA
BRANCH  15  16
HETATM   16  C   UNL     1      43.531 -17.489   3.407  1.00  0.00     0.181 C 
BRANCH  16  17
HETATM   17  C   UNL     1      43.445 -19.024   3.376  1.00  0.00     0.002 C 
HETATM   18  C   UNL     1      44.515 -19.638   4.275  1.00  0.00     0.011 C 
HETATM   19  C   UNL     1      43.573 -19.565   1.950  1.00  0.00     0.011 C 
ENDBRANCH  16  17
ENDBRANCH  15  16
ENDBRANCH  11  15
ENDBRANCH   7   8
ENDBRANCH   1   7
BRANCH   3  20
HETATM   20  C   UNL     1      42.985 -11.422  11.938  1.00  0.00     0.090 C 
HETATM   21  C   UNL     1      41.508 -11.491  12.425  1.00  0.00     0.067 C 
HETATM   22  C   UNL     1      40.831 -10.174  12.276  1.00  0.00    -0.013 A 
HETATM   23  C   UNL     1      41.504  -8.996  12.050  1.00  0.00     0.035 A 
HETATM   24  C   UNL     1      39.481  -9.796  12.364  1.00  0.00     0.148 A 
HETATM   25  N   UNL     1      40.564  -8.011  12.021  1.00  0.00    -0.282 N 
HETATM   26  C   UNL     1      42.964  -8.830  11.868  1.00  0.00     0.061 C 
HETATM   27  H   UNL     1      40.691  -7.012  11.889  1.00  0.00     0.189 HD
HETATM   28  N   UNL     1      39.315  -8.479  12.199  1.00  0.00    -0.187 NA
HETATM   29  C   UNL     1      43.686 -10.103  12.353  1.00  0.00     0.031 C 
ENDBRANCH   3  20
TORSDOF 6
ENDMDL
MODEL 2
REMARK VINA RESULT:      -8.2      1.266      1.524
REMARK  6 active torsions:
REMARK  status: ('A' for Active; 'I' for Inactive)
REMARK    1  A    between atoms: C_2  and  C_3 
REMARK    2  A    between atoms: C_3  and  O_4 
REMARK    3  A    between atoms: O_4  and  C_5 
REMARK    4  A    between atoms: C_8  and  C_9 
REMARK    5  A    between atoms: C_9  and  N_10 
REMARK       I    between atoms: N_10  and  C_11 
REMARK       I    between atoms: C_11  and  N_12 
REMARK    6  A    between atoms: N_12  and  C_13 
ROOT
HETATM    1  N   UNL     1      44.153 -13.188   7.965  1.00  0.00    -0.339 N 
HETATM    2  C   UNL     1      44.600 -12.648   9.138  1.00  0.00     0.316 C 
HETATM    3  N   UNL     1      43.604 -11.998   9.824  1.00  0.00    -0.338 N 
HETATM    4  O   UNL     1      45.763 -12.699   9.511  1.00  0.00    -0.247 OA
HETATM    5  H   UNL     1      43.166 -13.168   7.761  1.00  0.00     0.164 HD
HETATM    6  H   UNL     1      42.676 -12.377   9.712  1.00  0.00     0.164 HD
ENDROOT
BRANCH   1   7
HETATM    7  C   UNL     1      45.027 -13.974   7.126  1.00  0.00     0.164 C 
BRANCH   7   8
HETATM    8  C   UNL     1      44.294 -15.102   6.460  1.00  0.00    -0.021 A 
HETATM    9  C   UNL     1      43.246 -14.846   5.580  1.00  0.00     0.128 A 
HETATM   10  N   UNL     1      42.565 -15.803   4.907  1.00  0.00    -0.235 NA
HETATM   11  C   UNL     1      42.947 -17.087   5.111  1.00  0.00     0.186 A 
HETATM   12  C   UNL     1      43.973 -17.447   5.982  1.00  0.00     0.087 A 
HETATM   13  C   UNL     1      44.652 -16.437   6.663  1.00  0.00     0.038 A 
HETATM   14 CL   UNL     1      44.443 -19.086   6.234  1.00  0.00    -0.080 Cl
BRANCH  11  15
HETATM   15  O   UNL     1      42.301 -18.095   4.421  1.00  0.00    -0.333 OA
BRANCH  15  16
HETATM   16  C   UNL     1      42.274 -17.908   3.004  1.00  0.00     0.181 C 
BRANCH  16  17
HETATM   17  C   UNL     1      43.669 -18.222   2.437  1.00  0.00     0.002 C 
HETATM   18  C   UNL     1      43.809 -17.663   1.024  1.00  0.00     0.011 C 
HETATM   19  C   UNL     1      43.953 -19.727   2.445  1.00  0.00     0.011 C 
ENDBRANCH  16  17
ENDBRANCH  15  16
ENDBRANCH  11  15
ENDBRANCH   7   8
ENDBRANCH   1   7
BRANCH   3  20
HETATM   20  C   UNL     1      43.897 -11.362  11.112  1.00  0.00     0.090 C 
HETATM   21  C   UNL     1      42.991 -11.909  12.252  1.00  0.00     0.067 C 
HETATM   22  C   UNL     1      41.690 -11.187  12.298  1.00  0.00    -0.013 A 
HETATM   23  C   UNL     1      41.457 -10.000  11.642  1.00  0.00     0.035 A 
HETATM   24  C   UNL     1      40.491 -11.453  12.980  1.00  0.00     0.148 A 
HETATM   25  N   UNL     1      40.186  -9.626  11.956  1.00  0.00    -0.282 N 
HETATM   26  C   UNL     1      42.402  -9.273  10.764  1.00  0.00     0.061 C 
HETATM   27  H   UNL     1      39.676  -8.798  11.666  1.00  0.00     0.189 HD
HETATM   28  N   UNL     1      39.570 -10.507  12.765  1.00  0.00    -0.187 NA
HETATM   29  C   UNL     1      43.827  -9.818  10.984  1.00  0.00     0.031 C 
ENDBRANCH   3  20
TORSDOF 6
ENDMDL
MODEL 3
REMARK VINA RESULT:      -7.9      7.626     10.706
REMARK  6 active torsions:
REMARK  status: ('A' for Active; 'I' for Inactive)
REMARK    1  A    between atoms: C_2  and  C_3 
REMARK    2  A    between atoms: C_3  and  O_4 
REMARK    3  A    between atoms: O_4  and  C_5 
REMARK    4  A    between atoms: C_8  and  C_9 
REMARK    5  A    between atoms: C_9  and  N_10 
REMARK       I    between atoms: N_10  and  C_11 
REMARK       I    between atoms: C_11  and  N_12 
REMARK    6  A    between atoms: N_12  and  C_13 
ROOT
HETATM    1  N   UNL     1      40.080 -15.733   2.116  1.00  0.00    -0.339 N 
HETATM    2  C   UNL     1      40.478 -14.746   1.257  1.00  0.00     0.316 C 
HETATM    3  N   UNL     1      39.839 -14.824   0.046  1.00  0.00    -0.338 N 
HETATM    4  O   UNL     1      41.337 -13.919   1.524  1.00  0.00    -0.247 OA
HETATM    5  H   UNL     1      39.314 -16.333   1.851  1.00  0.00     0.164 HD
HETATM    6  H   UNL     1      38.896 -15.185   0.069  1.00  0.00     0.164 HD
ENDROOT
BRANCH   1   7
HETATM    7  C   UNL     1      40.580 -15.789   3.469  1.00  0.00     0.164 C 
BRANCH   7   8
HETATM    8  C   UNL     1      41.521 -16.941   3.668  1.00  0.00    -0.021 A 
HETATM    9  C   UNL     1      42.042 -17.630   2.576  1.00  0.00     0.128 A 
HETATM   10  N   UNL     1      42.927 -18.650   2.669  1.00  0.00    -0.235 NA
HETATM   11  C   UNL     1      43.326 -19.005   3.915  1.00  0.00     0.186 A 
HETATM   12  C   UNL     1      42.853 -18.388   5.071  1.00  0.00     0.087 A 
HETATM   13  C   UNL     1      41.938 -17.343   4.940  1.00  0.00     0.038 A 
HETATM   14 CL   UNL     1      43.366 -18.855   6.649  1.00  0.00    -0.080 Cl
BRANCH  11  15
HETATM   15  O   UNL     1      44.253 -20.020   4.057  1.00  0.00    -0.333 OA
BRANCH  15  16
HETATM   16  C   UNL     1      44.983 -20.315   2.865  1.00  0.00     0.181 C 
BRANCH  16  17
HETATM   17  C   UNL     1      44.771 -21.796   2.509  1.00  0.00     0.002 C 
HETATM   18  C   UNL     1      43.596 -21.952   1.547  1.00  0.00     0.011 C 
HETATM   19  C   UNL     1      44.550 -22.649   3.762  1.00  0.00     0.011 C 
ENDBRANCH  16  17
ENDBRANCH  15  16
ENDBRANCH  11  15
ENDBRANCH   7   8
ENDBRANCH   1   7
BRANCH   3  20
HETATM   20  C   UNL     1      40.133 -13.840  -1.001  1.00  0.00     0.090 C 
HETATM   21  C   UNL     1      38.858 -13.431  -1.793  1.00  0.00     0.067 C 
HETATM   22  C   UNL     1      38.582 -14.387  -2.899  1.00  0.00    -0.013 A 
HETATM   23  C   UNL     1      39.499 -15.306  -3.355  1.00  0.00     0.035 A 
HETATM   24  C   UNL     1      37.462 -14.568  -3.728  1.00  0.00     0.148 A 
HETATM   25  N   UNL     1      38.911 -15.960  -4.393  1.00  0.00    -0.282 N 
HETATM   26  C   UNL     1      40.859 -15.540  -2.818  1.00  0.00     0.061 C 
HETATM   27  H   UNL     1      39.292 -16.695  -4.981  1.00  0.00     0.189 HD
HETATM   28  N   UNL     1      37.657 -15.534  -4.633  1.00  0.00    -0.187 NA
HETATM   29  C   UNL     1      41.268 -14.352  -1.925  1.00  0.00     0.031 C 
ENDBRANCH   3  20
TORSDOF 6
ENDMDL
MODEL 4
REMARK VINA RESULT:      -7.9      7.055     10.847
REMARK  6 active torsions:
REMARK  status: ('A' for Active; 'I' for Inactive)
REMARK    1  A    between atoms: C_2  and  C_3 
REMARK    2  A    between atoms: C_3  and  O_4 
REMARK    3  A    between atoms: O_4  and  C_5 
REMARK    4  A    between atoms: C_8  and  C_9 
REMARK    5  A    between atoms: C_9  and  N_10 
REMARK       I    between atoms: N_10  and  C_11 
REMARK       I    between atoms: C_11  and  N_12 
REMARK    6  A    between atoms: N_12  and  C_13 
ROOT
HETATM    1  N   UNL     1      40.023 -15.566   1.920  1.00  0.00    -0.339 N 
HETATM    2  C   UNL     1      40.439 -14.606   1.040  1.00  0.00     0.316 C 
HETATM    3  N   UNL     1      39.887 -14.768  -0.206  1.00  0.00    -0.338 N 
HETATM    4  O   UNL     1      41.245 -13.730   1.321  1.00  0.00    -0.247 OA
HETATM    5  H   UNL     1      39.301 -16.210   1.636  1.00  0.00     0.164 HD
HETATM    6  H   UNL     1      38.960 -15.167  -0.226  1.00  0.00     0.164 HD
ENDROOT
BRANCH   1   7
HETATM    7  C   UNL     1      40.432 -15.536   3.304  1.00  0.00     0.164 C 
BRANCH   7   8
HETATM    8  C   UNL     1      41.593 -16.451   3.561  1.00  0.00    -0.021 A 
HETATM    9  C   UNL     1      42.450 -16.227   4.635  1.00  0.00     0.128 A 
HETATM   10  N   UNL     1      43.492 -17.028   4.960  1.00  0.00    -0.235 NA
HETATM   11  C   UNL     1      43.694 -18.119   4.181  1.00  0.00     0.186 A 
HETATM   12  C   UNL     1      42.902 -18.422   3.075  1.00  0.00     0.087 A 
HETATM   13  C   UNL     1      41.839 -17.574   2.765  1.00  0.00     0.038 A 
HETATM   14 CL   UNL     1      43.176 -19.811   2.091  1.00  0.00    -0.080 Cl
BRANCH  11  15
HETATM   15  O   UNL     1      44.726 -18.982   4.493  1.00  0.00    -0.333 OA
BRANCH  15  16
HETATM   16  C   UNL     1      44.722 -19.431   5.850  1.00  0.00     0.181 C 
BRANCH  16  17
HETATM   17  C   UNL     1      43.980 -20.776   5.924  1.00  0.00     0.002 C 
HETATM   18  C   UNL     1      43.611 -21.103   7.369  1.00  0.00     0.011 C 
HETATM   19  C   UNL     1      44.810 -21.909   5.317  1.00  0.00     0.011 C 
ENDBRANCH  16  17
ENDBRANCH  15  16
ENDBRANCH  11  15
ENDBRANCH   7   8
ENDBRANCH   1   7
BRANCH   3  20
HETATM   20  C   UNL     1      40.213 -13.823  -1.279  1.00  0.00     0.090 C 
HETATM   21  C   UNL     1      38.938 -13.277  -1.983  1.00  0.00     0.067 C 
HETATM   22  C   UNL     1      38.481 -14.198  -3.059  1.00  0.00    -0.013 A 
HETATM   23  C   UNL     1      39.257 -15.212  -3.569  1.00  0.00     0.035 A 
HETATM   24  C   UNL     1      37.292 -14.255  -3.805  1.00  0.00     0.148 A 
HETATM   25  N   UNL     1      38.528 -15.799  -4.558  1.00  0.00    -0.282 N 
HETATM   26  C   UNL     1      40.617 -15.595  -3.128  1.00  0.00     0.061 C 
HETATM   27  H   UNL     1      38.783 -16.572  -5.165  1.00  0.00     0.189 HD
HETATM   28  N   UNL     1      37.315 -15.238  -4.713  1.00  0.00    -0.187 NA
HETATM   29  C   UNL     1      41.216 -14.459  -2.276  1.00  0.00     0.031 C 
ENDBRANCH   3  20
TORSDOF 6
ENDMDL
MODEL 5
REMARK VINA RESULT:      -7.7      2.923      3.871
REMARK  6 active torsions:
REMARK  status: ('A' for Active; 'I' for Inactive)
REMARK    1  A    between atoms: C_2  and  C_3 
REMARK    2  A    between atoms: C_3  and  O_4 
REMARK    3  A    between atoms: O_4  and  C_5 
REMARK    4  A    between atoms: C_8  and  C_9 
REMARK    5  A    between atoms: C_9  and  N_10 
REMARK       I    between atoms: N_10  and  C_11 
REMARK       I    between atoms: C_11  and  N_12 
REMARK    6  A    between atoms: N_12  and  C_13 
ROOT
HETATM    1  N   UNL     1      39.579 -13.030   6.576  1.00  0.00    -0.339 N 
HETATM    2  C   UNL     1      40.003 -11.780   6.935  1.00  0.00     0.316 C 
HETATM    3  N   UNL     1      40.103 -11.636   8.295  1.00  0.00    -0.338 N 
HETATM    4  O   UNL     1      40.224 -10.882   6.135  1.00  0.00    -0.247 OA
HETATM    5  H   UNL     1      39.489 -13.739   7.287  1.00  0.00     0.164 HD
HETATM    6  H   UNL     1      40.354 -12.470   8.807  1.00  0.00     0.164 HD
ENDROOT
BRANCH   1   7
HETATM    7  C   UNL     1      39.474 -13.411   5.187  1.00  0.00     0.164 C 
BRANCH   7   8
HETATM    8  C   UNL     1      40.209 -14.687   4.902  1.00  0.00    -0.021 A 
HETATM    9  C   UNL     1      40.359 -15.144   3.596  1.00  0.00     0.128 A 
HETATM   10  N   UNL     1      41.043 -16.261   3.253  1.00  0.00    -0.235 NA
HETATM   11  C   UNL     1      41.619 -16.963   4.260  1.00  0.00     0.186 A 
HETATM   12  C   UNL     1      41.514 -16.596   5.600  1.00  0.00     0.087 A 
HETATM   13  C   UNL     1      40.798 -15.443   5.920  1.00  0.00     0.038 A 
HETATM   14 CL   UNL     1      42.247 -17.503   6.869  1.00  0.00    -0.080 Cl
BRANCH  11  15
HETATM   15  O   UNL     1      42.354 -18.092   3.954  1.00  0.00    -0.333 OA
BRANCH  15  16
HETATM   16  C   UNL     1      43.721 -17.829   3.633  1.00  0.00     0.181 C 
BRANCH  16  17
HETATM   17  C   UNL     1      44.046 -18.481   2.279  1.00  0.00     0.002 C 
HETATM   18  C   UNL     1      43.758 -17.511   1.135  1.00  0.00     0.011 C 
HETATM   19  C   UNL     1      43.266 -19.784   2.081  1.00  0.00     0.011 C 
ENDBRANCH  16  17
ENDBRANCH  15  16
ENDBRANCH  11  15
ENDBRANCH   7   8
ENDBRANCH   1   7
BRANCH   3  20
HETATM   20  C   UNL     1      40.553 -10.362   8.865  1.00  0.00     0.090 C 
HETATM   21  C   UNL     1      42.100 -10.306   9.021  1.00  0.00     0.067 C 
HETATM   22  C   UNL     1      42.534 -10.926  10.303  1.00  0.00    -0.013 A 
HETATM   23  C   UNL     1      41.674 -11.209  11.338  1.00  0.00     0.035 A 
HETATM   24  C   UNL     1      43.799 -11.305  10.783  1.00  0.00     0.148 A 
HETATM   25  N   UNL     1      42.434 -11.716  12.347  1.00  0.00    -0.282 N 
HETATM   26  C   UNL     1      40.207 -11.005  11.353  1.00  0.00     0.061 C 
HETATM   27  H   UNL     1      42.145 -12.024  13.271  1.00  0.00     0.189 HD
HETATM   28  N   UNL     1      43.738 -11.797  12.026  1.00  0.00    -0.187 NA
HETATM   29  C   UNL     1      39.810 -10.069  10.194  1.00  0.00     0.031 C 
ENDBRANCH   3  20
TORSDOF 6
ENDMDL
MODEL 6
REMARK VINA RESULT:      -7.6      3.155      9.881
REMARK  6 active torsions:
REMARK  status: ('A' for Active; 'I' for Inactive)
REMARK    1  A    between atoms: C_2  and  C_3 
REMARK    2  A    between atoms: C_3  and  O_4 
REMARK    3  A    between atoms: O_4  and  C_5 
REMARK    4  A    between atoms: C_8  and  C_9 
REMARK    5  A    between atoms: C_9  and  N_10 
REMARK       I    between atoms: N_10  and  C_11 
REMARK       I    between atoms: C_11  and  N_12 
REMARK    6  A    between atoms: N_12  and  C_13 
ROOT
HETATM    1  N   UNL     1      44.075 -13.959   6.963  1.00  0.00    -0.339 N 
HETATM    2  C   UNL     1      43.648 -15.217   7.286  1.00  0.00     0.316 C 
HETATM    3  N   UNL     1      42.612 -15.634   6.489  1.00  0.00    -0.338 N 
HETATM    4  O   UNL     1      44.107 -15.875   8.209  1.00  0.00    -0.247 OA
HETATM    5  H   UNL     1      43.698 -13.509   6.144  1.00  0.00     0.164 HD
HETATM    6  H   UNL     1      42.617 -15.281   5.543  1.00  0.00     0.164 HD
ENDROOT
BRANCH   1   7
HETATM    7  C   UNL     1      45.203 -13.360   7.637  1.00  0.00     0.164 C 
BRANCH   7   8
HETATM    8  C   UNL     1      44.769 -12.410   8.715  1.00  0.00    -0.021 A 
HETATM    9  C   UNL     1      45.554 -12.214   9.847  1.00  0.00     0.128 A 
HETATM   10  N   UNL     1      45.255 -11.346  10.842  1.00  0.00    -0.235 NA
HETATM   11  C   UNL     1      44.116 -10.624  10.705  1.00  0.00     0.186 A 
HETATM   12  C   UNL     1      43.255 -10.758   9.617  1.00  0.00     0.087 A 
HETATM   13  C   UNL     1      43.591 -11.665   8.612  1.00  0.00     0.038 A 
HETATM   14 CL   UNL     1      41.807  -9.837   9.461  1.00  0.00    -0.080 Cl
BRANCH  11  15
HETATM   15  O   UNL     1      43.786  -9.703  11.680  1.00  0.00    -0.333 OA
BRANCH  15  16
HETATM   16  C   UNL     1      43.154 -10.270  12.830  1.00  0.00     0.181 C 
BRANCH  16  17
HETATM   17  C   UNL     1      43.130  -9.218  13.951  1.00  0.00     0.002 C 
HETATM   18  C   UNL     1      42.287  -9.707  15.125  1.00  0.00     0.011 C 
HETATM   19  C   UNL     1      42.608  -7.870  13.445  1.00  0.00     0.011 C 
ENDBRANCH  16  17
ENDBRANCH  15  16
ENDBRANCH  11  15
ENDBRANCH   7   8
ENDBRANCH   1   7
BRANCH   3  20
HETATM   20  C   UNL     1      42.029 -16.965   6.684  1.00  0.00     0.090 C 
HETATM   21  C   UNL     1      43.090 -18.094   6.541  1.00  0.00     0.067 C 
HETATM   22  C   UNL     1      43.270 -18.484   5.116  1.00  0.00    -0.013 A 
HETATM   23  C   UNL     1      42.395 -18.129   4.115  1.00  0.00     0.035 A 
HETATM   24  C   UNL     1      44.239 -19.272   4.472  1.00  0.00     0.148 A 
HETATM   25  N   UNL     1      42.859 -18.704   2.971  1.00  0.00    -0.282 N 
HETATM   26  C   UNL     1      41.187 -17.285   4.253  1.00  0.00     0.061 C 
HETATM   27  H   UNL     1      42.465 -18.671   2.036  1.00  0.00     0.189 HD
HETATM   28  N   UNL     1      43.995 -19.399   3.163  1.00  0.00    -0.187 NA
HETATM   29  C   UNL     1      40.813 -17.169   5.744  1.00  0.00     0.031 C 
ENDBRANCH   3  20
TORSDOF 6
ENDMDL
MODEL 7
REMARK VINA RESULT:      -7.5      2.705      3.571
REMARK  6 active torsions:
REMARK  status: ('A' for Active; 'I' for Inactive)
REMARK    1  A    between atoms: C_2  and  C_3 
REMARK    2  A    between atoms: C_3  and  O_4 
REMARK    3  A    between atoms: O_4  and  C_5 
REMARK    4  A    between atoms: C_8  and  C_9 
REMARK    5  A    between atoms: C_9  and  N_10 
REMARK       I    between atoms: N_10  and  C_11 
REMARK       I    between atoms: C_11  and  N_12 
REMARK    6  A    between atoms: N_12  and  C_13 
ROOT
HETATM    1  N   UNL     1      41.238 -13.279   5.814  1.00  0.00    -0.339 N 
HETATM    2  C   UNL     1      41.378 -11.965   6.167  1.00  0.00     0.316 C 
HETATM    3  N   UNL     1      41.257 -11.776   7.520  1.00  0.00    -0.338 N 
HETATM    4  O   UNL     1      41.546 -11.059   5.363  1.00  0.00    -0.247 OA
HETATM    5  H   UNL     1      41.176 -13.977   6.538  1.00  0.00     0.164 HD
HETATM    6  H   UNL     1      41.576 -12.538   8.100  1.00  0.00     0.164 HD
ENDROOT
BRANCH   1   7
HETATM    7  C   UNL     1      41.401 -13.703   4.443  1.00  0.00     0.164 C 
BRANCH   7   8
HETATM    8  C   UNL     1      41.846 -15.133   4.351  1.00  0.00    -0.021 A 
HETATM    9  C   UNL     1      41.304 -15.985   3.393  1.00  0.00     0.128 A 
HETATM   10  N   UNL     1      41.681 -17.273   3.218  1.00  0.00    -0.235 NA
HETATM   11  C   UNL     1      42.657 -17.744   4.032  1.00  0.00     0.186 A 
HETATM   12  C   UNL     1      43.253 -16.975   5.030  1.00  0.00     0.087 A 
HETATM   13  C   UNL     1      42.837 -15.653   5.188  1.00  0.00     0.038 A 
HETATM   14 CL   UNL     1      44.489 -17.591   6.061  1.00  0.00    -0.080 Cl
BRANCH  11  15
HETATM   15  O   UNL     1      43.097 -19.043   3.868  1.00  0.00    -0.333 OA
BRANCH  15  16
HETATM   16  C   UNL     1      43.308 -19.421   2.506  1.00  0.00     0.181 C 
BRANCH  16  17
HETATM   17  C   UNL     1      44.393 -20.510   2.457  1.00  0.00     0.002 C 
HETATM   18  C   UNL     1      43.866 -21.758   1.754  1.00  0.00     0.011 C 
HETATM   19  C   UNL     1      44.899 -20.862   3.859  1.00  0.00     0.011 C 
ENDBRANCH  16  17
ENDBRANCH  15  16
ENDBRANCH  11  15
ENDBRANCH   7   8
ENDBRANCH   1   7
BRANCH   3  20
HETATM   20  C   UNL     1      41.386 -10.429   8.085  1.00  0.00     0.090 C 
HETATM   21  C   UNL     1      42.262 -10.418   9.371  1.00  0.00     0.067 C 
HETATM   22  C   UNL     1      41.452 -10.744  10.576  1.00  0.00    -0.013 A 
HETATM   23  C   UNL     1      40.076 -10.734  10.591  1.00  0.00     0.035 A 
HETATM   24  C   UNL     1      41.815 -11.065  11.895  1.00  0.00     0.148 A 
HETATM   25  N   UNL     1      39.699 -11.032  11.865  1.00  0.00    -0.282 N 
HETATM   26  C   UNL     1      39.180 -10.459   9.446  1.00  0.00     0.061 C 
HETATM   27  H   UNL     1      38.764 -11.102  12.253  1.00  0.00     0.189 HD
HETATM   28  N   UNL     1      40.747 -11.251  12.680  1.00  0.00    -0.187 NA
HETATM   29  C   UNL     1      39.988  -9.798   8.312  1.00  0.00     0.031 C 
ENDBRANCH   3  20
TORSDOF 6
ENDMDL
MODEL 8
REMARK VINA RESULT:      -7.5      6.685      9.701
REMARK  6 active torsions:
REMARK  status: ('A' for Active; 'I' for Inactive)
REMARK    1  A    between atoms: C_2  and  C_3 
REMARK    2  A    between atoms: C_3  and  O_4 
REMARK    3  A    between atoms: O_4  and  C_5 
REMARK    4  A    between atoms: C_8  and  C_9 
REMARK    5  A    between atoms: C_9  and  N_10 
REMARK       I    between atoms: N_10  and  C_11 
REMARK       I    between atoms: C_11  and  N_12 
REMARK    6  A    between atoms: N_12  and  C_13 
ROOT
HETATM    1  N   UNL     1      41.611 -14.221   3.185  1.00  0.00    -0.339 N 
HETATM    2  C   UNL     1      40.595 -13.952   2.310  1.00  0.00     0.316 C 
HETATM    3  N   UNL     1      41.028 -13.262   1.206  1.00  0.00    -0.338 N 
HETATM    4  O   UNL     1      39.427 -14.253   2.511  1.00  0.00    -0.247 OA
HETATM    5  H   UNL     1      42.558 -14.006   2.915  1.00  0.00     0.164 HD
HETATM    6  H   UNL     1      41.972 -13.461   0.908  1.00  0.00     0.164 HD
ENDROOT
BRANCH   1   7
HETATM    7  C   UNL     1      41.379 -14.999   4.379  1.00  0.00     0.164 C 
BRANCH   7   8
HETATM    8  C   UNL     1      42.130 -16.297   4.352  1.00  0.00    -0.021 A 
HETATM    9  C   UNL     1      41.821 -17.278   3.414  1.00  0.00     0.128 A 
HETATM   10  N   UNL     1      42.477 -18.456   3.296  1.00  0.00    -0.235 NA
HETATM   11  C   UNL     1      43.506 -18.674   4.153  1.00  0.00     0.186 A 
HETATM   12  C   UNL     1      43.884 -17.762   5.136  1.00  0.00     0.087 A 
HETATM   13  C   UNL     1      43.183 -16.560   5.233  1.00  0.00     0.038 A 
HETATM   14 CL   UNL     1      45.191 -18.057   6.221  1.00  0.00    -0.080 Cl
BRANCH  11  15
HETATM   15  O   UNL     1      44.225 -19.848   4.049  1.00  0.00    -0.333 OA
BRANCH  15  16
HETATM   16  C   UNL     1      44.680 -20.140   2.726  1.00  0.00     0.181 C 
BRANCH  16  17
HETATM   17  C   UNL     1      44.597 -21.658   2.497  1.00  0.00     0.002 C 
HETATM   18  C   UNL     1      43.383 -22.004   1.638  1.00  0.00     0.011 C 
HETATM   19  C   UNL     1      44.547 -22.424   3.822  1.00  0.00     0.011 C 
ENDBRANCH  16  17
ENDBRANCH  15  16
ENDBRANCH  11  15
ENDBRANCH   7   8
ENDBRANCH   1   7
BRANCH   3  20
HETATM   20  C   UNL     1      40.077 -12.894   0.153  1.00  0.00     0.090 C 
HETATM   21  C   UNL     1      39.623 -14.126  -0.681  1.00  0.00     0.067 C 
HETATM   22  C   UNL     1      40.583 -14.416  -1.780  1.00  0.00    -0.013 A 
HETATM   23  C   UNL     1      41.551 -13.530  -2.195  1.00  0.00     0.035 A 
HETATM   24  C   UNL     1      40.727 -15.519  -2.637  1.00  0.00     0.148 A 
HETATM   25  N   UNL     1      42.195 -14.119  -3.239  1.00  0.00    -0.282 N 
HETATM   26  C   UNL     1      41.839 -12.198  -1.616  1.00  0.00     0.061 C 
HETATM   27  H   UNL     1      42.957 -13.757  -3.805  1.00  0.00     0.189 HD
HETATM   28  N   UNL     1      41.716 -15.344  -3.521  1.00  0.00    -0.187 NA
HETATM   29  C   UNL     1      40.656 -11.759  -0.730  1.00  0.00     0.031 C 
ENDBRANCH   3  20
TORSDOF 6
ENDMDL
MODEL 9
REMARK VINA RESULT:      -7.4      2.916      9.667
REMARK  6 active torsions:
REMARK  status: ('A' for Active; 'I' for Inactive)
REMARK    1  A    between atoms: C_2  and  C_3 
REMARK    2  A    between atoms: C_3  and  O_4 
REMARK    3  A    between atoms: O_4  and  C_5 
REMARK    4  A    between atoms: C_8  and  C_9 
REMARK    5  A    between atoms: C_9  and  N_10 
REMARK       I    between atoms: N_10  and  C_11 
REMARK       I    between atoms: C_11  and  N_12 
REMARK    6  A    between atoms: N_12  and  C_13 
ROOT
HETATM    1  N   UNL     1      44.460 -14.229   6.720  1.00  0.00    -0.339 N 
HETATM    2  C   UNL     1      43.906 -15.448   6.998  1.00  0.00     0.316 C 
HETATM    3  N   UNL     1      43.318 -16.015   5.895  1.00  0.00    -0.338 N 
HETATM    4  O   UNL     1      43.897 -15.953   8.112  1.00  0.00    -0.247 OA
HETATM    5  H   UNL     1      44.492 -13.912   5.764  1.00  0.00     0.164 HD
HETATM    6  H   UNL     1      43.747 -15.795   5.009  1.00  0.00     0.164 HD
ENDROOT
BRANCH   1   7
HETATM    7  C   UNL     1      45.189 -13.495   7.728  1.00  0.00     0.164 C 
BRANCH   7   8
HETATM    8  C   UNL     1      44.337 -12.447   8.380  1.00  0.00    -0.021 A 
HETATM    9  C   UNL     1      43.322 -11.813   7.669  1.00  0.00     0.128 A 
HETATM   10  N   UNL     1      42.483 -10.889   8.195  1.00  0.00    -0.235 NA
HETATM   11  C   UNL     1      42.654 -10.580   9.504  1.00  0.00     0.186 A 
HETATM   12  C   UNL     1      43.649 -11.148  10.297  1.00  0.00     0.087 A 
HETATM   13  C   UNL     1      44.499 -12.093   9.722  1.00  0.00     0.038 A 
HETATM   14 CL   UNL     1      43.857 -10.740  11.959  1.00  0.00    -0.080 Cl
BRANCH  11  15
HETATM   15  O   UNL     1      41.801  -9.667  10.093  1.00  0.00    -0.333 OA
BRANCH  15  16
HETATM   16  C   UNL     1      40.504 -10.187  10.390  1.00  0.00     0.181 C 
BRANCH  16  17
HETATM   17  C   UNL     1      40.274 -10.104  11.909  1.00  0.00     0.002 C 
HETATM   18  C   UNL     1      40.314 -11.497  12.532  1.00  0.00     0.011 C 
HETATM   19  C   UNL     1      38.950  -9.410  12.240  1.00  0.00     0.011 C 
ENDBRANCH  16  17
ENDBRANCH  15  16
ENDBRANCH  11  15
ENDBRANCH   7   8
ENDBRANCH   1   7
BRANCH   3  20
HETATM   20  C   UNL     1      42.679 -17.330   6.002  1.00  0.00     0.090 C 
HETATM   21  C   UNL     1      43.572 -18.462   5.416  1.00  0.00     0.067 C 
HETATM   22  C   UNL     1      43.381 -18.591   3.946  1.00  0.00    -0.013 A 
HETATM   23  C   UNL     1      42.333 -18.018   3.264  1.00  0.00     0.035 A 
HETATM   24  C   UNL     1      44.099 -19.292   2.963  1.00  0.00     0.148 A 
HETATM   25  N   UNL     1      42.465 -18.393   1.962  1.00  0.00    -0.282 N 
HETATM   26  C   UNL     1      41.271 -17.157   3.832  1.00  0.00     0.061 C 
HETATM   27  H   UNL     1      41.869 -18.170   1.170  1.00  0.00     0.189 HD
HETATM   28  N   UNL     1      43.547 -19.164   1.750  1.00  0.00    -0.187 NA
HETATM   29  C   UNL     1      41.265 -17.300   5.367  1.00  0.00     0.031 C 
ENDBRANCH   3  20
TORSDOF 6
ENDMDL
MODEL 10
REMARK VINA RESULT:      -7.1      3.825     10.026
REMARK  6 active torsions:
REMARK  status: ('A' for Active; 'I' for Inactive)
REMARK    1  A    between atoms: C_2  and  C_3 
REMARK    2  A    between atoms: C_3  and  O_4 
REMARK    3  A    between atoms: O_4  and  C_5 
REMARK    4  A    between atoms: C_8  and  C_9 
REMARK    5  A    between atoms: C_9  and  N_10 
REMARK       I    between atoms: N_10  and  C_11 
REMARK       I    between atoms: C_11  and  N_12 
REMARK    6  A    between atoms: N_12  and  C_13 
ROOT
HETATM    1  N   UNL     1      40.705 -11.750   6.992  1.00  0.00    -0.339 N 
HETATM    2  C   UNL     1      39.990 -12.750   6.393  1.00  0.00     0.316 C 
HETATM    3  N   UNL     1      40.766 -13.845   6.108  1.00  0.00    -0.338 N 
HETATM    4  O   UNL     1      38.805 -12.659   6.104  1.00  0.00    -0.247 OA
HETATM    5  H   UNL     1      41.659 -11.927   7.265  1.00  0.00     0.164 HD
HETATM    6  H   UNL     1      41.527 -14.021   6.747  1.00  0.00     0.164 HD
ENDROOT
BRANCH   1   7
HETATM    7  C   UNL     1      40.061 -10.537   7.437  1.00  0.00     0.164 C 
BRANCH   7   8
HETATM    8  C   UNL     1      40.157 -10.369   8.925  1.00  0.00    -0.021 A 
HETATM    9  C   UNL     1      41.354 -10.614   9.592  1.00  0.00     0.128 A 
HETATM   10  N   UNL     1      41.534 -10.445  10.923  1.00  0.00    -0.235 NA
HETATM   11  C   UNL     1      40.470  -9.999  11.635  1.00  0.00     0.186 A 
HETATM   12  C   UNL     1      39.226  -9.739  11.063  1.00  0.00     0.087 A 
HETATM   13  C   UNL     1      39.073  -9.928   9.690  1.00  0.00     0.038 A 
HETATM   14 CL   UNL     1      37.881  -9.178  11.983  1.00  0.00    -0.080 Cl
BRANCH  11  15
HETATM   15  O   UNL     1      40.616  -9.781  12.991  1.00  0.00    -0.333 OA
BRANCH  15  16
HETATM   16  C   UNL     1      41.344 -10.805  13.672  1.00  0.00     0.181 C 
BRANCH  16  17
HETATM   17  C   UNL     1      42.377 -10.144  14.600  1.00  0.00     0.002 C 
HETATM   18  C   UNL     1      41.688  -9.537  15.820  1.00  0.00     0.011 C 
HETATM   19  C   UNL     1      43.192  -9.077  13.864  1.00  0.00     0.011 C 
ENDBRANCH  16  17
ENDBRANCH  15  16
ENDBRANCH  11  15
ENDBRANCH   7   8
ENDBRANCH   1   7
BRANCH   3  20
HETATM   20  C   UNL     1      40.166 -15.021   5.470  1.00  0.00     0.090 C 
HETATM   21  C   UNL     1      40.612 -16.346   6.153  1.00  0.00     0.067 C 
HETATM   22  C   UNL     1      41.909 -16.825   5.603  1.00  0.00    -0.013 A 
HETATM   23  C   UNL     1      42.464 -16.344   4.440  1.00  0.00     0.035 A 
HETATM   24  C   UNL     1      42.803 -17.820   6.033  1.00  0.00     0.148 A 
HETATM   25  N   UNL     1      43.611 -17.048   4.236  1.00  0.00    -0.282 N 
HETATM   26  C   UNL     1      41.922 -15.267   3.579  1.00  0.00     0.061 C 
HETATM   27  H   UNL     1      44.276 -16.976   3.472  1.00  0.00     0.189 HD
HETATM   28  N   UNL     1      43.846 -17.950   5.206  1.00  0.00    -0.187 NA
HETATM   29  C   UNL     1      40.446 -15.015   3.945  1.00  0.00     0.031 C 
ENDBRANCH   3  20
TORSDOF 6
ENDMDL
