MODEL 1
REMARK VINA RESULT:      -8.2      0.000      0.000
REMARK  6 active torsions:
REMARK  status: ('A' for Active; 'I' for Inactive)
REMARK    1  A    between atoms: C_2  and  O_3 
REMARK    2  A    between atoms: C_2  and  C_4 
REMARK    3  A    between atoms: C_7  and  N_8 
REMARK       I    between atoms: N_8  and  C_9 
REMARK    4  A    between atoms: C_9  and  C_10 
REMARK    5  A    between atoms: C_15  and  C_16 
REMARK    6  A    between atoms: C_22  and  C_23 
ROOT
HETATM    1  C   UNL     1      41.293 -15.468   0.668  1.00  0.00     0.148 A 
HETATM    2  N   UNL     1      40.960 -15.306  -0.634  1.00  0.00    -0.165 NA
HETATM    3  N   UNL     1      40.860 -13.968  -0.766  1.00  0.00    -0.240 N 
HETATM    4  C   UNL     1      40.999 -13.284   0.410  1.00  0.00     0.123 A 
HETATM    5  N   UNL     1      40.814 -11.950   0.485  1.00  0.00    -0.364 N 
HETATM    6  C   UNL     1      40.630 -11.120  -0.705  1.00  0.00     0.143 C 
HETATM    7  C   UNL     1      39.982 -11.939  -1.836  1.00  0.00     0.068 C 
HETATM    8  C   UNL     1      40.592 -13.337  -2.044  1.00  0.00     0.221 C 
HETATM    9  C   UNL     1      41.322 -14.221   1.352  1.00  0.00     0.089 A 
HETATM   10  H   UNL     1      41.052 -11.439   1.334  1.00  0.00     0.162 HD
ENDROOT
BRANCH   1  11
HETATM   11  C   UNL     1      41.559 -16.791   1.262  1.00  0.00     0.276 C 
HETATM   12  N   UNL     1      42.690 -16.792   2.054  1.00  0.00    -0.322 N 
HETATM   13  H   UNL     1      43.169 -15.896   2.081  1.00  0.00     0.169 HD
HETATM   14  O   UNL     1      40.834 -17.750   1.019  1.00  0.00    -0.266 OA
BRANCH  12  15
HETATM   15  C   UNL     1      43.259 -17.874   2.749  1.00  0.00     0.035 A 
HETATM   16  C   UNL     1      43.297 -17.966   4.141  1.00  0.00     0.030 A 
HETATM   17  C   UNL     1      43.863 -19.085   4.766  1.00  0.00     0.012 A 
HETATM   18  C   UNL     1      44.400 -20.135   4.012  1.00  0.00    -0.030 A 
HETATM   19  C   UNL     1      44.359 -20.038   2.615  1.00  0.00     0.012 A 
HETATM   20  C   UNL     1      43.805 -18.913   1.991  1.00  0.00     0.030 A 
BRANCH  18  21
HETATM   21  C   UNL     1      44.957 -21.358   4.709  1.00  0.00     0.147 C 
HETATM   22  C   UNL     1      44.705 -22.664   3.970  1.00  0.00     0.044 C 
BRANCH  21  23
HETATM   23  O   UNL     1      44.391 -21.456   6.015  1.00  0.00    -0.391 OA
HETATM   24  H   UNL     1      45.091 -21.231   6.652  1.00  0.00     0.210 HD
ENDBRANCH  21  23
ENDBRANCH  18  21
ENDBRANCH  12  15
ENDBRANCH   1  11
BRANCH   8  25
HETATM   25  C   UNL     1      41.847 -13.341  -2.889  1.00  0.00     0.409 C 
HETATM   26  F   UNL     1      41.899 -12.342  -3.791  1.00  0.00    -0.169 F 
HETATM   27  F   UNL     1      42.963 -13.253  -2.127  1.00  0.00    -0.169 F 
HETATM   28  F   UNL     1      41.950 -14.508  -3.574  1.00  0.00    -0.169 F 
ENDBRANCH   8  25
BRANCH   6  29
HETATM   29  C   UNL     1      41.850 -10.370  -1.135  1.00  0.00     0.075 A 
HETATM   30  O   UNL     1      41.701  -9.528  -2.199  1.00  0.00    -0.325 OA
HETATM   31  C   UNL     1      42.899  -8.921  -2.398  1.00  0.00     0.142 A 
HETATM   32  C   UNL     1      43.820  -9.359  -1.476  1.00  0.00     0.027 A 
HETATM   33  C   UNL     1      43.142 -10.290  -0.655  1.00  0.00     0.037 A 
ENDBRANCH   6  29
TORSDOF 6
ENDMDL
MODEL 2
REMARK VINA RESULT:      -7.9      2.108      3.186
REMARK  6 active torsions:
REMARK  status: ('A' for Active; 'I' for Inactive)
REMARK    1  A    between atoms: C_2  and  O_3 
REMARK    2  A    between atoms: C_2  and  C_4 
REMARK    3  A    between atoms: C_7  and  N_8 
REMARK       I    between atoms: N_8  and  C_9 
REMARK    4  A    between atoms: C_9  and  C_10 
REMARK    5  A    between atoms: C_15  and  C_16 
REMARK    6  A    between atoms: C_22  and  C_23 
ROOT
HETATM    1  C   UNL     1      41.522 -15.800  -0.085  1.00  0.00     0.148 A 
HETATM    2  N   UNL     1      41.918 -14.526   0.144  1.00  0.00    -0.165 NA
HETATM    3  N   UNL     1      41.638 -13.899  -1.016  1.00  0.00    -0.240 N 
HETATM    4  C   UNL     1      41.194 -14.735  -2.004  1.00  0.00     0.123 A 
HETATM    5  N   UNL     1      40.976 -14.299  -3.262  1.00  0.00    -0.364 N 
HETATM    6  C   UNL     1      41.025 -12.881  -3.616  1.00  0.00     0.143 C 
HETATM    7  C   UNL     1      41.988 -12.128  -2.682  1.00  0.00     0.068 C 
HETATM    8  C   UNL     1      41.833 -12.472  -1.189  1.00  0.00     0.221 C 
HETATM    9  C   UNL     1      41.067 -15.967  -1.423  1.00  0.00     0.089 A 
HETATM   10  H   UNL     1      40.520 -14.899  -3.947  1.00  0.00     0.162 HD
ENDROOT
BRANCH   1  11
HETATM   11  C   UNL     1      41.596 -16.853   0.944  1.00  0.00     0.276 C 
HETATM   12  N   UNL     1      42.899 -17.195   1.250  1.00  0.00    -0.322 N 
HETATM   13  H   UNL     1      43.591 -16.690   0.705  1.00  0.00     0.169 HD
HETATM   14  O   UNL     1      40.578 -17.348   1.417  1.00  0.00    -0.266 OA
BRANCH  12  15
HETATM   15  C   UNL     1      43.346 -18.172   2.157  1.00  0.00     0.035 A 
HETATM   16  C   UNL     1      43.665 -19.481   1.790  1.00  0.00     0.030 A 
HETATM   17  C   UNL     1      44.124 -20.396   2.745  1.00  0.00     0.012 A 
HETATM   18  C   UNL     1      44.275 -20.023   4.086  1.00  0.00    -0.030 A 
HETATM   19  C   UNL     1      43.953 -18.709   4.449  1.00  0.00     0.012 A 
HETATM   20  C   UNL     1      43.483 -17.797   3.496  1.00  0.00     0.030 A 
BRANCH  18  21
HETATM   21  C   UNL     1      44.824 -21.015   5.089  1.00  0.00     0.147 C 
HETATM   22  C   UNL     1      44.787 -22.462   4.619  1.00  0.00     0.044 C 
BRANCH  21  23
HETATM   23  O   UNL     1      44.089 -20.911   6.307  1.00  0.00    -0.391 OA
HETATM   24  H   UNL     1      43.145 -20.889   6.074  1.00  0.00     0.210 HD
ENDBRANCH  21  23
ENDBRANCH  18  21
ENDBRANCH  12  15
ENDBRANCH   1  11
BRANCH   8  25
HETATM   25  C   UNL     1      40.720 -11.717  -0.497  1.00  0.00     0.409 C 
HETATM   26  F   UNL     1      40.445 -10.522  -1.053  1.00  0.00    -0.169 F 
HETATM   27  F   UNL     1      39.567 -12.428  -0.480  1.00  0.00    -0.169 F 
HETATM   28  F   UNL     1      41.041 -11.492   0.803  1.00  0.00    -0.169 F 
ENDBRANCH   8  25
BRANCH   6  29
HETATM   29  C   UNL     1      39.688 -12.227  -3.749  1.00  0.00     0.075 A 
HETATM   30  O   UNL     1      38.606 -12.978  -3.389  1.00  0.00    -0.325 OA
HETATM   31  C   UNL     1      37.508 -12.194  -3.542  1.00  0.00     0.142 A 
HETATM   32  C   UNL     1      37.866 -10.946  -3.993  1.00  0.00     0.027 A 
HETATM   33  C   UNL     1      39.275 -10.963  -4.121  1.00  0.00     0.037 A 
ENDBRANCH   6  29
TORSDOF 6
ENDMDL
MODEL 3
REMARK VINA RESULT:      -7.9      2.830      3.990
REMARK  6 active torsions:
REMARK  status: ('A' for Active; 'I' for Inactive)
REMARK    1  A    between atoms: C_2  and  O_3 
REMARK    2  A    between atoms: C_2  and  C_4 
REMARK    3  A    between atoms: C_7  and  N_8 
REMARK       I    between atoms: N_8  and  C_9 
REMARK    4  A    between atoms: C_9  and  C_10 
REMARK    5  A    between atoms: C_15  and  C_16 
REMARK    6  A    between atoms: C_22  and  C_23 
ROOT
HETATM    1  C   UNL     1      40.936 -15.785   0.928  1.00  0.00     0.148 A 
HETATM    2  N   UNL     1      40.320 -14.616   1.224  1.00  0.00    -0.165 NA
HETATM    3  N   UNL     1      40.092 -14.068   0.014  1.00  0.00    -0.240 N 
HETATM    4  C   UNL     1      40.634 -14.774  -1.024  1.00  0.00     0.123 A 
HETATM    5  N   UNL     1      40.603 -14.314  -2.292  1.00  0.00    -0.364 N 
HETATM    6  C   UNL     1      39.840 -13.127  -2.673  1.00  0.00     0.143 C 
HETATM    7  C   UNL     1      39.729 -12.156  -1.484  1.00  0.00     0.068 C 
HETATM    8  C   UNL     1      39.366 -12.822  -0.144  1.00  0.00     0.221 C 
HETATM    9  C   UNL     1      41.152 -15.914  -0.473  1.00  0.00     0.089 A 
HETATM   10  H   UNL     1      40.889 -14.910  -3.068  1.00  0.00     0.162 HD
ENDROOT
BRANCH   1  11
HETATM   11  C   UNL     1      41.335 -16.757   1.961  1.00  0.00     0.276 C 
HETATM   12  N   UNL     1      42.414 -17.526   1.568  1.00  0.00    -0.322 N 
HETATM   13  H   UNL     1      42.740 -17.318   0.628  1.00  0.00     0.169 HD
HETATM   14  O   UNL     1      40.721 -16.844   3.020  1.00  0.00    -0.266 OA
BRANCH  12  15
HETATM   15  C   UNL     1      43.041 -18.564   2.279  1.00  0.00     0.035 A 
HETATM   16  C   UNL     1      43.303 -19.824   1.739  1.00  0.00     0.030 A 
HETATM   17  C   UNL     1      43.950 -20.805   2.501  1.00  0.00     0.012 A 
HETATM   18  C   UNL     1      44.350 -20.547   3.817  1.00  0.00    -0.030 A 
HETATM   19  C   UNL     1      44.085 -19.280   4.354  1.00  0.00     0.012 A 
HETATM   20  C   UNL     1      43.426 -18.304   3.597  1.00  0.00     0.030 A 
BRANCH  18  21
HETATM   21  C   UNL     1      45.096 -21.604   4.602  1.00  0.00     0.147 C 
HETATM   22  C   UNL     1      44.862 -23.026   4.110  1.00  0.00     0.044 C 
BRANCH  21  23
HETATM   23  O   UNL     1      44.718 -21.528   5.975  1.00  0.00    -0.391 OA
HETATM   24  H   UNL     1      45.448 -21.903   6.497  1.00  0.00     0.210 HD
ENDBRANCH  21  23
ENDBRANCH  18  21
ENDBRANCH  12  15
ENDBRANCH   1  11
BRANCH   8  25
HETATM   25  C   UNL     1      37.885 -13.067   0.039  1.00  0.00     0.409 C 
HETATM   26  F   UNL     1      37.466 -14.254  -0.439  1.00  0.00    -0.169 F 
HETATM   27  F   UNL     1      37.525 -13.008   1.343  1.00  0.00    -0.169 F 
HETATM   28  F   UNL     1      37.167 -12.102  -0.592  1.00  0.00    -0.169 F 
ENDBRANCH   8  25
BRANCH   6  29
HETATM   29  C   UNL     1      38.529 -13.415  -3.332  1.00  0.00     0.075 A 
HETATM   30  O   UNL     1      38.227 -14.732  -3.532  1.00  0.00    -0.325 OA
HETATM   31  C   UNL     1      36.993 -14.776  -4.096  1.00  0.00     0.142 A 
HETATM   32  C   UNL     1      36.492 -13.506  -4.261  1.00  0.00     0.027 A 
HETATM   33  C   UNL     1      37.481 -12.626  -3.762  1.00  0.00     0.037 A 
ENDBRANCH   6  29
TORSDOF 6
ENDMDL
MODEL 4
REMARK VINA RESULT:      -7.8      1.602      2.116
REMARK  6 active torsions:
REMARK  status: ('A' for Active; 'I' for Inactive)
REMARK    1  A    between atoms: C_2  and  O_3 
REMARK    2  A    between atoms: C_2  and  C_4 
REMARK    3  A    between atoms: C_7  and  N_8 
REMARK       I    between atoms: N_8  and  C_9 
REMARK    4  A    between atoms: C_9  and  C_10 
REMARK    5  A    between atoms: C_15  and  C_16 
REMARK    6  A    between atoms: C_22  and  C_23 
ROOT
HETATM    1  C   UNL     1      40.930 -15.071   0.955  1.00  0.00     0.148 A 
HETATM    2  N   UNL     1      39.763 -14.768   0.339  1.00  0.00    -0.165 NA
HETATM    3  N   UNL     1      40.015 -13.575  -0.236  1.00  0.00    -0.240 N 
HETATM    4  C   UNL     1      41.240 -13.055   0.080  1.00  0.00     0.123 A 
HETATM    5  N   UNL     1      41.613 -11.820  -0.313  1.00  0.00    -0.364 N 
HETATM    6  C   UNL     1      40.817 -11.024  -1.246  1.00  0.00     0.143 C 
HETATM    7  C   UNL     1      39.327 -11.393  -1.131  1.00  0.00     0.068 C 
HETATM    8  C   UNL     1      39.044 -12.906  -1.081  1.00  0.00     0.221 C 
HETATM    9  C   UNL     1      41.876 -14.017   0.816  1.00  0.00     0.089 A 
HETATM   10  H   UNL     1      42.573 -11.502  -0.186  1.00  0.00     0.162 HD
ENDROOT
BRANCH   1  11
HETATM   11  C   UNL     1      41.139 -16.334   1.686  1.00  0.00     0.276 C 
HETATM   12  N   UNL     1      42.477 -16.659   1.798  1.00  0.00    -0.322 N 
HETATM   13  H   UNL     1      43.097 -15.996   1.341  1.00  0.00     0.169 HD
HETATM   14  O   UNL     1      40.188 -16.990   2.100  1.00  0.00    -0.266 OA
BRANCH  12  15
HETATM   15  C   UNL     1      43.043 -17.797   2.400  1.00  0.00     0.035 A 
HETATM   16  C   UNL     1      43.206 -19.019   1.746  1.00  0.00     0.030 A 
HETATM   17  C   UNL     1      43.796 -20.106   2.403  1.00  0.00     0.012 A 
HETATM   18  C   UNL     1      44.238 -19.993   3.727  1.00  0.00    -0.030 A 
HETATM   19  C   UNL     1      44.072 -18.763   4.379  1.00  0.00     0.012 A 
HETATM   20  C   UNL     1      43.470 -17.681   3.725  1.00  0.00     0.030 A 
BRANCH  18  21
HETATM   21  C   UNL     1      44.923 -21.164   4.398  1.00  0.00     0.147 C 
HETATM   22  C   UNL     1      44.663 -22.505   3.725  1.00  0.00     0.044 C 
BRANCH  21  23
HETATM   23  O   UNL     1      44.498 -21.244   5.756  1.00  0.00    -0.391 OA
HETATM   24  H   UNL     1      44.432 -20.334   6.094  1.00  0.00     0.210 HD
ENDBRANCH  21  23
ENDBRANCH  18  21
ENDBRANCH  12  15
ENDBRANCH   1  11
BRANCH   8  25
HETATM   25  C   UNL     1      39.006 -13.569  -2.440  1.00  0.00     0.409 C 
HETATM   26  F   UNL     1      40.186 -14.089  -2.826  1.00  0.00    -0.169 F 
HETATM   27  F   UNL     1      38.092 -14.568  -2.484  1.00  0.00    -0.169 F 
HETATM   28  F   UNL     1      38.630 -12.674  -3.389  1.00  0.00    -0.169 F 
ENDBRANCH   8  25
BRANCH   6  29
HETATM   29  C   UNL     1      41.324 -11.023  -2.653  1.00  0.00     0.075 A 
HETATM   30  O   UNL     1      40.628 -10.262  -3.548  1.00  0.00    -0.325 OA
HETATM   31  C   UNL     1      41.269 -10.365  -4.740  1.00  0.00     0.142 A 
HETATM   32  C   UNL     1      42.371 -11.180  -4.627  1.00  0.00     0.027 A 
HETATM   33  C   UNL     1      42.412 -11.601  -3.277  1.00  0.00     0.037 A 
ENDBRANCH   6  29
TORSDOF 6
ENDMDL
MODEL 5
REMARK VINA RESULT:      -7.8      8.751     10.789
REMARK  6 active torsions:
REMARK  status: ('A' for Active; 'I' for Inactive)
REMARK    1  A    between atoms: C_2  and  O_3 
REMARK    2  A    between atoms: C_2  and  C_4 
REMARK    3  A    between atoms: C_7  and  N_8 
REMARK       I    between atoms: N_8  and  C_9 
REMARK    4  A    between atoms: C_9  and  C_10 
REMARK    5  A    between atoms: C_15  and  C_16 
REMARK    6  A    between atoms: C_22  and  C_23 
ROOT
HETATM    1  C   UNL     1      42.607 -11.653   7.750  1.00  0.00     0.148 A 
HETATM    2  N   UNL     1      41.658 -11.694   6.786  1.00  0.00    -0.165 NA
HETATM    3  N   UNL     1      42.083 -12.679   5.970  1.00  0.00    -0.240 N 
HETATM    4  C   UNL     1      43.310 -13.183   6.305  1.00  0.00     0.123 A 
HETATM    5  N   UNL     1      43.941 -14.092   5.534  1.00  0.00    -0.364 N 
HETATM    6  C   UNL     1      43.291 -14.733   4.391  1.00  0.00     0.143 C 
HETATM    7  C   UNL     1      42.224 -13.801   3.790  1.00  0.00     0.068 C 
HETATM    8  C   UNL     1      41.310 -13.121   4.826  1.00  0.00     0.221 C 
HETATM    9  C   UNL     1      43.660 -12.571   7.477  1.00  0.00     0.089 A 
HETATM   10  H   UNL     1      44.787 -14.555   5.863  1.00  0.00     0.162 HD
ENDROOT
BRANCH   1  11
HETATM   11  C   UNL     1      42.530 -10.739   8.904  1.00  0.00     0.276 C 
HETATM   12  N   UNL     1      42.757 -11.388  10.102  1.00  0.00    -0.322 N 
HETATM   13  H   UNL     1      42.914 -12.387  10.001  1.00  0.00     0.169 HD
HETATM   14  O   UNL     1      42.263  -9.551   8.753  1.00  0.00    -0.266 OA
BRANCH  12  15
HETATM   15  C   UNL     1      42.733 -10.844  11.399  1.00  0.00     0.035 A 
HETATM   16  C   UNL     1      43.736 -10.022  11.913  1.00  0.00     0.030 A 
HETATM   17  C   UNL     1      43.636  -9.499  13.208  1.00  0.00     0.012 A 
HETATM   18  C   UNL     1      42.530  -9.787  14.016  1.00  0.00    -0.030 A 
HETATM   19  C   UNL     1      41.524 -10.612  13.495  1.00  0.00     0.012 A 
HETATM   20  C   UNL     1      41.631 -11.145  12.205  1.00  0.00     0.030 A 
BRANCH  18  21
HETATM   21  C   UNL     1      42.418  -9.166  15.392  1.00  0.00     0.147 C 
HETATM   22  C   UNL     1      41.220  -9.650  16.197  1.00  0.00     0.044 C 
BRANCH  21  23
HETATM   23  O   UNL     1      42.340  -7.748  15.266  1.00  0.00    -0.391 OA
HETATM   24  H   UNL     1      41.598  -7.448  15.820  1.00  0.00     0.210 HD
ENDBRANCH  21  23
ENDBRANCH  18  21
ENDBRANCH  12  15
ENDBRANCH   1  11
BRANCH   8  25
HETATM   25  C   UNL     1      40.158 -13.986   5.291  1.00  0.00     0.409 C 
HETATM   26  F   UNL     1      40.473 -14.810   6.308  1.00  0.00    -0.169 F 
HETATM   27  F   UNL     1      39.101 -13.240   5.689  1.00  0.00    -0.169 F 
HETATM   28  F   UNL     1      39.709 -14.759   4.270  1.00  0.00    -0.169 F 
ENDBRANCH   8  25
BRANCH   6  29
HETATM   29  C   UNL     1      42.795 -16.118   4.655  1.00  0.00     0.075 A 
HETATM   30  O   UNL     1      43.089 -16.645   5.879  1.00  0.00    -0.325 OA
HETATM   31  C   UNL     1      42.518 -17.877   5.929  1.00  0.00     0.142 A 
HETATM   32  C   UNL     1      41.858 -18.151   4.755  1.00  0.00     0.027 A 
HETATM   33  C   UNL     1      42.030 -17.013   3.932  1.00  0.00     0.037 A 
ENDBRANCH   6  29
TORSDOF 6
ENDMDL
MODEL 6
REMARK VINA RESULT:      -7.7      9.488     10.924
REMARK  6 active torsions:
REMARK  status: ('A' for Active; 'I' for Inactive)
REMARK    1  A    between atoms: C_2  and  O_3 
REMARK    2  A    between atoms: C_2  and  C_4 
REMARK    3  A    between atoms: C_7  and  N_8 
REMARK       I    between atoms: N_8  and  C_9 
REMARK    4  A    between atoms: C_9  and  C_10 
REMARK    5  A    between atoms: C_15  and  C_16 
REMARK    6  A    between atoms: C_22  and  C_23 
ROOT
HETATM    1  C   UNL     1      43.530 -11.913   8.655  1.00  0.00     0.148 A 
HETATM    2  N   UNL     1      43.937 -11.683   9.926  1.00  0.00    -0.165 NA
HETATM    3  N   UNL     1      43.178 -10.637  10.310  1.00  0.00    -0.240 N 
HETATM    4  C   UNL     1      42.398 -10.122   9.312  1.00  0.00     0.123 A 
HETATM    5  N   UNL     1      41.663  -9.005   9.486  1.00  0.00    -0.364 N 
HETATM    6  C   UNL     1      41.507  -8.369  10.794  1.00  0.00     0.143 C 
HETATM    7  C   UNL     1      42.741  -8.640  11.673  1.00  0.00     0.068 C 
HETATM    8  C   UNL     1      43.230 -10.100  11.657  1.00  0.00     0.221 C 
HETATM    9  C   UNL     1      42.570 -10.951   8.238  1.00  0.00     0.089 A 
HETATM   10  H   UNL     1      40.987  -8.713   8.782  1.00  0.00     0.162 HD
ENDROOT
BRANCH   1  11
HETATM   11  C   UNL     1      44.064 -13.019   7.839  1.00  0.00     0.276 C 
HETATM   12  N   UNL     1      43.143 -13.482   6.919  1.00  0.00    -0.322 N 
HETATM   13  H   UNL     1      42.245 -13.009   6.968  1.00  0.00     0.169 HD
HETATM   14  O   UNL     1      45.197 -13.452   8.023  1.00  0.00    -0.266 OA
BRANCH  12  15
HETATM   15  C   UNL     1      43.292 -14.537   6.002  1.00  0.00     0.035 A 
HETATM   16  C   UNL     1      43.442 -15.874   6.376  1.00  0.00     0.030 A 
HETATM   17  C   UNL     1      43.566 -16.876   5.405  1.00  0.00     0.012 A 
HETATM   18  C   UNL     1      43.541 -16.563   4.041  1.00  0.00    -0.030 A 
HETATM   19  C   UNL     1      43.390 -15.221   3.671  1.00  0.00     0.012 A 
HETATM   20  C   UNL     1      43.279 -14.217   4.642  1.00  0.00     0.030 A 
BRANCH  18  21
HETATM   21  C   UNL     1      43.622 -17.670   3.011  1.00  0.00     0.147 C 
HETATM   22  C   UNL     1      44.112 -17.212   1.644  1.00  0.00     0.044 C 
BRANCH  21  23
HETATM   23  O   UNL     1      42.337 -18.268   2.859  1.00  0.00    -0.391 OA
HETATM   24  H   UNL     1      41.840 -18.100   3.679  1.00  0.00     0.210 HD
ENDBRANCH  21  23
ENDBRANCH  18  21
ENDBRANCH  12  15
ENDBRANCH   1  11
BRANCH   8  25
HETATM   25  C   UNL     1      42.475 -11.012  12.600  1.00  0.00     0.409 C 
HETATM   26  F   UNL     1      41.367 -11.555  12.061  1.00  0.00    -0.169 F 
HETATM   27  F   UNL     1      43.251 -12.031  13.038  1.00  0.00    -0.169 F 
HETATM   28  F   UNL     1      42.092 -10.328  13.708  1.00  0.00    -0.169 F 
ENDBRANCH   8  25
BRANCH   6  29
HETATM   29  C   UNL     1      40.210  -8.664  11.478  1.00  0.00     0.075 A 
HETATM   30  O   UNL     1      40.015  -8.068  12.691  1.00  0.00    -0.325 OA
HETATM   31  C   UNL     1      38.777  -8.427  13.116  1.00  0.00     0.142 A 
HETATM   32  C   UNL     1      38.169  -9.245  12.194  1.00  0.00     0.027 A 
HETATM   33  C   UNL     1      39.091  -9.394  11.131  1.00  0.00     0.037 A 
ENDBRANCH   6  29
TORSDOF 6
ENDMDL
MODEL 7
REMARK VINA RESULT:      -7.7      4.198      9.263
REMARK  6 active torsions:
REMARK  status: ('A' for Active; 'I' for Inactive)
REMARK    1  A    between atoms: C_2  and  O_3 
REMARK    2  A    between atoms: C_2  and  C_4 
REMARK    3  A    between atoms: C_7  and  N_8 
REMARK       I    between atoms: N_8  and  C_9 
REMARK    4  A    between atoms: C_9  and  C_10 
REMARK    5  A    between atoms: C_15  and  C_16 
REMARK    6  A    between atoms: C_22  and  C_23 
ROOT
HETATM    1  C   UNL     1      41.206 -14.893  -0.349  1.00  0.00     0.148 A 
HETATM    2  N   UNL     1      41.915 -16.020  -0.105  1.00  0.00    -0.165 NA
HETATM    3  N   UNL     1      42.306 -15.871   1.176  1.00  0.00    -0.240 N 
HETATM    4  C   UNL     1      41.979 -14.659   1.718  1.00  0.00     0.123 A 
HETATM    5  N   UNL     1      42.391 -14.293   2.949  1.00  0.00    -0.364 N 
HETATM    6  C   UNL     1      43.058 -15.225   3.857  1.00  0.00     0.143 C 
HETATM    7  C   UNL     1      43.825 -16.296   3.060  1.00  0.00     0.068 C 
HETATM    8  C   UNL     1      43.037 -16.904   1.884  1.00  0.00     0.221 C 
HETATM    9  C   UNL     1      41.230 -14.016   0.771  1.00  0.00     0.089 A 
HETATM   10  H   UNL     1      42.029 -13.448   3.388  1.00  0.00     0.162 HD
ENDROOT
BRANCH   1  11
HETATM   11  C   UNL     1      40.533 -14.639  -1.636  1.00  0.00     0.276 C 
HETATM   12  N   UNL     1      39.181 -14.403  -1.483  1.00  0.00    -0.322 N 
HETATM   13  H   UNL     1      38.863 -14.467  -0.520  1.00  0.00     0.169 HD
HETATM   14  O   UNL     1      41.156 -14.675  -2.693  1.00  0.00    -0.266 OA
BRANCH  12  15
HETATM   15  C   UNL     1      38.227 -14.156  -2.486  1.00  0.00     0.035 A 
HETATM   16  C   UNL     1      37.719 -15.143  -3.332  1.00  0.00     0.030 A 
HETATM   17  C   UNL     1      36.754 -14.827  -4.297  1.00  0.00     0.012 A 
HETATM   18  C   UNL     1      36.277 -13.519  -4.435  1.00  0.00    -0.030 A 
HETATM   19  C   UNL     1      36.790 -12.531  -3.583  1.00  0.00     0.012 A 
HETATM   20  C   UNL     1      37.763 -12.845  -2.627  1.00  0.00     0.030 A 
BRANCH  18  21
HETATM   21  C   UNL     1      35.195 -13.212  -5.448  1.00  0.00     0.147 C 
HETATM   22  C   UNL     1      33.940 -12.591  -4.850  1.00  0.00     0.044 C 
BRANCH  21  23
HETATM   23  O   UNL     1      34.831 -14.412  -6.128  1.00  0.00    -0.391 OA
HETATM   24  H   UNL     1      35.169 -14.343  -7.038  1.00  0.00     0.210 HD
ENDBRANCH  21  23
ENDBRANCH  18  21
ENDBRANCH  12  15
ENDBRANCH   1  11
BRANCH   8  25
HETATM   25  C   UNL     1      42.093 -18.015   2.287  1.00  0.00     0.409 C 
HETATM   26  F   UNL     1      42.425 -18.620   3.443  1.00  0.00    -0.169 F 
HETATM   27  F   UNL     1      40.821 -17.569   2.416  1.00  0.00    -0.169 F 
HETATM   28  F   UNL     1      42.058 -18.974   1.326  1.00  0.00    -0.169 F 
ENDBRANCH   8  25
BRANCH   6  29
HETATM   29  C   UNL     1      42.177 -15.793   4.924  1.00  0.00     0.075 A 
HETATM   30  O   UNL     1      42.788 -16.568   5.866  1.00  0.00    -0.325 OA
HETATM   31  C   UNL     1      41.832 -16.944   6.754  1.00  0.00     0.142 A 
HETATM   32  C   UNL     1      40.611 -16.420   6.398  1.00  0.00     0.027 A 
HETATM   33  C   UNL     1      40.834 -15.670   5.219  1.00  0.00     0.037 A 
ENDBRANCH   6  29
TORSDOF 6
ENDMDL
MODEL 8
REMARK VINA RESULT:      -7.7      7.799      9.549
REMARK  6 active torsions:
REMARK  status: ('A' for Active; 'I' for Inactive)
REMARK    1  A    between atoms: C_2  and  O_3 
REMARK    2  A    between atoms: C_2  and  C_4 
REMARK    3  A    between atoms: C_7  and  N_8 
REMARK       I    between atoms: N_8  and  C_9 
REMARK    4  A    between atoms: C_9  and  C_10 
REMARK    5  A    between atoms: C_15  and  C_16 
REMARK    6  A    between atoms: C_22  and  C_23 
ROOT
HETATM    1  C   UNL     1      41.489 -11.639   6.150  1.00  0.00     0.148 A 
HETATM    2  N   UNL     1      40.694 -12.725   6.300  1.00  0.00    -0.165 NA
HETATM    3  N   UNL     1      40.741 -13.315   5.088  1.00  0.00    -0.240 N 
HETATM    4  C   UNL     1      41.429 -12.597   4.149  1.00  0.00     0.123 A 
HETATM    5  N   UNL     1      41.480 -12.979   2.857  1.00  0.00    -0.364 N 
HETATM    6  C   UNL     1      40.960 -14.268   2.403  1.00  0.00     0.143 C 
HETATM    7  C   UNL     1      39.809 -14.733   3.312  1.00  0.00     0.068 C 
HETATM    8  C   UNL     1      40.082 -14.579   4.820  1.00  0.00     0.221 C 
HETATM    9  C   UNL     1      41.962 -11.526   4.813  1.00  0.00     0.089 A 
HETATM   10  H   UNL     1      42.104 -12.510   2.201  1.00  0.00     0.162 HD
ENDROOT
BRANCH   1  11
HETATM   11  C   UNL     1      41.777 -10.706   7.255  1.00  0.00     0.276 C 
HETATM   12  N   UNL     1      41.972 -11.361   8.455  1.00  0.00    -0.322 N 
HETATM   13  H   UNL     1      41.862 -12.369   8.391  1.00  0.00     0.169 HD
HETATM   14  O   UNL     1      41.799  -9.494   7.069  1.00  0.00    -0.266 OA
BRANCH  12  15
HETATM   15  C   UNL     1      42.235 -10.796   9.716  1.00  0.00     0.035 A 
HETATM   16  C   UNL     1      41.290 -10.089  10.460  1.00  0.00     0.030 A 
HETATM   17  C   UNL     1      41.617  -9.570  11.719  1.00  0.00     0.012 A 
HETATM   18  C   UNL     1      42.895  -9.750  12.261  1.00  0.00    -0.030 A 
HETATM   19  C   UNL     1      43.841 -10.461  11.510  1.00  0.00     0.012 A 
HETATM   20  C   UNL     1      43.517 -10.968  10.246  1.00  0.00     0.030 A 
BRANCH  18  21
HETATM   21  C   UNL     1      43.209  -9.227  13.647  1.00  0.00     0.147 C 
HETATM   22  C   UNL     1      42.434  -9.916  14.762  1.00  0.00     0.044 C 
BRANCH  21  23
HETATM   23  O   UNL     1      42.936  -7.828  13.697  1.00  0.00    -0.391 OA
HETATM   24  H   UNL     1      43.738  -7.366  13.399  1.00  0.00     0.210 HD
ENDBRANCH  21  23
ENDBRANCH  18  21
ENDBRANCH  12  15
ENDBRANCH   1  11
BRANCH   8  25
HETATM   25  C   UNL     1      40.887 -15.712   5.418  1.00  0.00     0.409 C 
HETATM   26  F   UNL     1      42.182 -15.408   5.628  1.00  0.00    -0.169 F 
HETATM   27  F   UNL     1      40.372 -16.122   6.601  1.00  0.00    -0.169 F 
HETATM   28  F   UNL     1      40.855 -16.794   4.599  1.00  0.00    -0.169 F 
ENDBRANCH   8  25
BRANCH   6  29
HETATM   29  C   UNL     1      42.004 -15.315   2.178  1.00  0.00     0.075 A 
HETATM   30  O   UNL     1      41.676 -16.323   1.318  1.00  0.00    -0.325 OA
HETATM   31  C   UNL     1      42.762 -17.133   1.223  1.00  0.00     0.142 A 
HETATM   32  C   UNL     1      43.787 -16.661   2.008  1.00  0.00     0.027 A 
HETATM   33  C   UNL     1      43.301 -15.482   2.621  1.00  0.00     0.037 A 
ENDBRANCH   6  29
TORSDOF 6
ENDMDL
MODEL 9
REMARK VINA RESULT:      -7.6      2.055      2.538
REMARK  6 active torsions:
REMARK  status: ('A' for Active; 'I' for Inactive)
REMARK    1  A    between atoms: C_2  and  O_3 
REMARK    2  A    between atoms: C_2  and  C_4 
REMARK    3  A    between atoms: C_7  and  N_8 
REMARK       I    between atoms: N_8  and  C_9 
REMARK    4  A    between atoms: C_9  and  C_10 
REMARK    5  A    between atoms: C_15  and  C_16 
REMARK    6  A    between atoms: C_22  and  C_23 
ROOT
HETATM    1  C   UNL     1      42.091 -13.955   1.341  1.00  0.00     0.148 A 
HETATM    2  N   UNL     1      41.412 -14.644   0.394  1.00  0.00    -0.165 NA
HETATM    3  N   UNL     1      40.946 -13.677  -0.421  1.00  0.00    -0.240 N 
HETATM    4  C   UNL     1      41.197 -12.408   0.025  1.00  0.00     0.123 A 
HETATM    5  N   UNL     1      40.705 -11.321  -0.604  1.00  0.00    -0.364 N 
HETATM    6  C   UNL     1      40.024 -11.408  -1.895  1.00  0.00     0.143 C 
HETATM    7  C   UNL     1      39.343 -12.779  -2.052  1.00  0.00     0.068 C 
HETATM    8  C   UNL     1      40.216 -13.978  -1.637  1.00  0.00     0.221 C 
HETATM    9  C   UNL     1      41.973 -12.551   1.142  1.00  0.00     0.089 A 
HETATM   10  H   UNL     1      41.010 -10.386  -0.339  1.00  0.00     0.162 HD
ENDROOT
BRANCH   1  11
HETATM   11  C   UNL     1      42.823 -14.619   2.436  1.00  0.00     0.276 C 
HETATM   12  N   UNL     1      42.344 -15.889   2.691  1.00  0.00    -0.322 N 
HETATM   13  H   UNL     1      41.555 -16.152   2.106  1.00  0.00     0.169 HD
HETATM   14  O   UNL     1      43.727 -14.043   3.032  1.00  0.00    -0.266 OA
BRANCH  12  15
HETATM   15  C   UNL     1      42.777 -16.795   3.675  1.00  0.00     0.035 A 
HETATM   16  C   UNL     1      43.677 -17.833   3.430  1.00  0.00     0.030 A 
HETATM   17  C   UNL     1      44.080 -18.687   4.464  1.00  0.00     0.012 A 
HETATM   18  C   UNL     1      43.592 -18.520   5.766  1.00  0.00    -0.030 A 
HETATM   19  C   UNL     1      42.689 -17.476   6.007  1.00  0.00     0.012 A 
HETATM   20  C   UNL     1      42.277 -16.630   4.969  1.00  0.00     0.030 A 
BRANCH  18  21
HETATM   21  C   UNL     1      44.083 -19.420   6.878  1.00  0.00     0.147 C 
HETATM   22  C   UNL     1      43.767 -20.895   6.671  1.00  0.00     0.044 C 
BRANCH  21  23
HETATM   23  O   UNL     1      43.510 -19.000   8.115  1.00  0.00    -0.391 OA
HETATM   24  H   UNL     1      42.614 -19.376   8.161  1.00  0.00     0.210 HD
ENDBRANCH  21  23
ENDBRANCH  18  21
ENDBRANCH  12  15
ENDBRANCH   1  11
BRANCH   8  25
HETATM   25  C   UNL     1      41.178 -14.439  -2.710  1.00  0.00     0.409 C 
HETATM   26  F   UNL     1      42.391 -13.859  -2.639  1.00  0.00    -0.169 F 
HETATM   27  F   UNL     1      41.369 -15.779  -2.670  1.00  0.00    -0.169 F 
HETATM   28  F   UNL     1      40.673 -14.168  -3.942  1.00  0.00    -0.169 F 
ENDBRANCH   8  25
BRANCH   6  29
HETATM   29  C   UNL     1      40.866 -11.022  -3.069  1.00  0.00     0.075 A 
HETATM   30  O   UNL     1      40.252 -11.038  -4.288  1.00  0.00    -0.325 OA
HETATM   31  C   UNL     1      41.166 -10.621  -5.200  1.00  0.00     0.142 A 
HETATM   32  C   UNL     1      42.362 -10.333  -4.587  1.00  0.00     0.027 A 
HETATM   33  C   UNL     1      42.169 -10.585  -3.209  1.00  0.00     0.037 A 
ENDBRANCH   6  29
TORSDOF 6
ENDMDL
MODEL 10
REMARK VINA RESULT:      -7.6      3.177      9.405
REMARK  6 active torsions:
REMARK  status: ('A' for Active; 'I' for Inactive)
REMARK    1  A    between atoms: C_2  and  O_3 
REMARK    2  A    between atoms: C_2  and  C_4 
REMARK    3  A    between atoms: C_7  and  N_8 
REMARK       I    between atoms: N_8  and  C_9 
REMARK    4  A    between atoms: C_9  and  C_10 
REMARK    5  A    between atoms: C_15  and  C_16 
REMARK    6  A    between atoms: C_22  and  C_23 
ROOT
HETATM    1  C   UNL     1      40.855 -14.672   1.426  1.00  0.00     0.148 A 
HETATM    2  N   UNL     1      41.278 -14.110   2.583  1.00  0.00    -0.165 NA
HETATM    3  N   UNL     1      41.346 -15.156   3.431  1.00  0.00    -0.240 N 
HETATM    4  C   UNL     1      40.878 -16.328   2.903  1.00  0.00     0.123 A 
HETATM    5  N   UNL     1      40.764 -17.448   3.645  1.00  0.00    -0.364 N 
HETATM    6  C   UNL     1      41.293 -17.541   5.004  1.00  0.00     0.143 C 
HETATM    7  C   UNL     1      41.299 -16.155   5.674  1.00  0.00     0.068 C 
HETATM    8  C   UNL     1      41.840 -15.018   4.787  1.00  0.00     0.221 C 
HETATM    9  C   UNL     1      40.591 -16.060   1.593  1.00  0.00     0.089 A 
HETATM   10  H   UNL     1      40.542 -18.341   3.206  1.00  0.00     0.162 HD
ENDROOT
BRANCH   1  11
HETATM   11  C   UNL     1      40.681 -13.898   0.183  1.00  0.00     0.276 C 
HETATM   12  N   UNL     1      41.873 -13.375  -0.279  1.00  0.00    -0.322 N 
HETATM   13  H   UNL     1      42.668 -13.583   0.319  1.00  0.00     0.169 HD
HETATM   14  O   UNL     1      39.572 -13.749  -0.319  1.00  0.00    -0.266 OA
BRANCH  12  15
HETATM   15  C   UNL     1      42.082 -12.566  -1.410  1.00  0.00     0.035 A 
HETATM   16  C   UNL     1      41.919 -13.012  -2.722  1.00  0.00     0.030 A 
HETATM   17  C   UNL     1      42.126 -12.144  -3.801  1.00  0.00     0.012 A 
HETATM   18  C   UNL     1      42.499 -10.811  -3.591  1.00  0.00    -0.030 A 
HETATM   19  C   UNL     1      42.661 -10.367  -2.271  1.00  0.00     0.012 A 
HETATM   20  C   UNL     1      42.466 -11.240  -1.193  1.00  0.00     0.030 A 
BRANCH  18  21
HETATM   21  C   UNL     1      42.663  -9.877  -4.771  1.00  0.00     0.147 C 
HETATM   22  C   UNL     1      41.673  -8.720  -4.792  1.00  0.00     0.044 C 
BRANCH  21  23
HETATM   23  O   UNL     1      42.527 -10.617  -5.982  1.00  0.00    -0.391 OA
HETATM   24  H   UNL     1      41.584 -10.606  -6.223  1.00  0.00     0.210 HD
ENDBRANCH  21  23
ENDBRANCH  18  21
ENDBRANCH  12  15
ENDBRANCH   1  11
BRANCH   8  25
HETATM   25  C   UNL     1      43.349 -14.914   4.773  1.00  0.00     0.409 C 
HETATM   26  F   UNL     1      43.930 -15.557   3.743  1.00  0.00    -0.169 F 
HETATM   27  F   UNL     1      43.761 -13.625   4.727  1.00  0.00    -0.169 F 
HETATM   28  F   UNL     1      43.867 -15.433   5.916  1.00  0.00    -0.169 F 
ENDBRANCH   8  25
BRANCH   6  29
HETATM   29  C   UNL     1      42.598 -18.264   5.116  1.00  0.00     0.075 A 
HETATM   30  O   UNL     1      43.064 -18.482   6.380  1.00  0.00    -0.325 OA
HETATM   31  C   UNL     1      44.223 -19.179   6.262  1.00  0.00     0.142 A 
HETATM   32  C   UNL     1      44.510 -19.416   4.938  1.00  0.00     0.027 A 
HETATM   33  C   UNL     1      43.458 -18.831   4.196  1.00  0.00     0.037 A 
ENDBRANCH   6  29
TORSDOF 6
ENDMDL
