MODEL 1
REMARK VINA RESULT:      -8.3      0.000      0.000
REMARK  5 active torsions:
REMARK  status: ('A' for Active; 'I' for Inactive)
REMARK    1  A    between atoms: C_2  and  N_3 
REMARK       I    between atoms: N_3  and  C_4 
REMARK       I    between atoms: C_4  and  N_5 
REMARK    2  A    between atoms: C_7  and  C_8 
REMARK    3  A    between atoms: C_13  and  N_14 
REMARK       I    between atoms: N_14  and  C_15 
REMARK    4  A    between atoms: C_15  and  C_16 
REMARK    5  A    between atoms: C_19  and  O_20 
ROOT
HETATM    1  C   UNL     1      41.901 -15.411   5.801  1.00  0.00     0.088 A 
HETATM    2  N   UNL     1      40.570 -15.321   5.679  1.00  0.00    -0.177 NA
HETATM    3  N   UNL     1      40.114 -16.449   6.236  1.00  0.00    -0.287 N 
HETATM    4  H   UNL     1      39.114 -16.622   6.223  1.00  0.00     0.188 HD
HETATM    5  C   UNL     1      41.099 -17.239   6.755  1.00  0.00     0.141 A 
HETATM    6  C   UNL     1      42.283 -16.583   6.535  1.00  0.00     0.079 A 
ENDROOT
BRANCH   1   7
HETATM    7  C   UNL     1      42.821 -14.384   5.174  1.00  0.00     0.060 C 
HETATM    8  C   UNL     1      42.914 -13.055   5.942  1.00  0.00     0.138 C 
HETATM    9  N   UNL     1      41.779 -12.143   5.721  1.00  0.00    -0.334 N 
HETATM   10  C   UNL     1      41.423 -11.149   6.629  1.00  0.00     0.318 C 
HETATM   11  C   UNL     1      41.392 -11.931   4.332  1.00  0.00     0.127 C 
HETATM   12  N   UNL     1      41.814 -11.406   7.919  1.00  0.00    -0.339 N 
HETATM   13  O   UNL     1      40.820 -10.132   6.303  1.00  0.00    -0.247 OA
HETATM   14  H   UNL     1      41.731 -12.388   8.144  1.00  0.00     0.164 HD
HETATM   15  C   UNL     1      41.219 -13.240   3.572  1.00  0.00     0.021 C 
HETATM   16  C   UNL     1      42.458 -14.124   3.702  1.00  0.00     0.014 C 
BRANCH  12  17
HETATM   17  C   UNL     1      41.570 -10.500   9.035  1.00  0.00     0.078 C 
HETATM   18  C   UNL     1      42.772 -10.410   9.970  1.00  0.00     0.032 C 
HETATM   19  C   UNL     1      40.284 -10.818   9.798  1.00  0.00     0.032 C 
ENDBRANCH  12  17
ENDBRANCH   1   7
BRANCH   6  20
HETATM   20  N   UNL     1      43.577 -16.926   6.876  1.00  0.00    -0.320 N 
HETATM   21  C   UNL     1      44.512 -17.739   6.288  1.00  0.00     0.256 C 
HETATM   22  O   UNL     1      45.640 -17.813   6.775  1.00  0.00    -0.267 OA
HETATM   23  H   UNL     1      43.958 -16.470   7.696  1.00  0.00     0.169 HD
BRANCH  21  24
HETATM   24  C   UNL     1      44.242 -18.505   5.065  1.00  0.00     0.032 A 
HETATM   25  C   UNL     1      44.515 -19.872   4.994  1.00  0.00     0.020 A 
HETATM   26  C   UNL     1      44.310 -20.547   3.787  1.00  0.00     0.038 A 
HETATM   27  C   UNL     1      43.872 -19.859   2.647  1.00  0.00     0.068 A 
HETATM   28  C   UNL     1      43.632 -18.485   2.723  1.00  0.00     0.038 A 
HETATM   29  C   UNL     1      43.823 -17.807   3.929  1.00  0.00     0.020 A 
BRANCH  27  30
HETATM   30  O   UNL     1      43.722 -20.637   1.531  1.00  0.00    -0.356 OA
HETATM   31  C   UNL     1      44.194 -21.976   1.619  1.00  0.00     0.210 C 
ENDBRANCH  27  30
ENDBRANCH  21  24
ENDBRANCH   6  20
TORSDOF 5
ENDMDL
MODEL 2
REMARK VINA RESULT:      -8.2      4.462      7.375
REMARK  5 active torsions:
REMARK  status: ('A' for Active; 'I' for Inactive)
REMARK    1  A    between atoms: C_2  and  N_3 
REMARK       I    between atoms: N_3  and  C_4 
REMARK       I    between atoms: C_4  and  N_5 
REMARK    2  A    between atoms: C_7  and  C_8 
REMARK    3  A    between atoms: C_13  and  N_14 
REMARK       I    between atoms: N_14  and  C_15 
REMARK    4  A    between atoms: C_15  and  C_16 
REMARK    5  A    between atoms: C_19  and  O_20 
ROOT
HETATM    1  C   UNL     1      40.650 -16.048   2.209  1.00  0.00     0.088 A 
HETATM    2  N   UNL     1      41.367 -16.137   1.081  1.00  0.00    -0.177 NA
HETATM    3  N   UNL     1      42.352 -16.989   1.387  1.00  0.00    -0.287 N 
HETATM    4  H   UNL     1      43.057 -17.183   0.682  1.00  0.00     0.188 HD
HETATM    5  C   UNL     1      42.269 -17.489   2.655  1.00  0.00     0.141 A 
HETATM    6  C   UNL     1      41.147 -16.937   3.219  1.00  0.00     0.079 A 
ENDROOT
BRANCH   1   7
HETATM    7  C   UNL     1      39.500 -15.071   2.336  1.00  0.00     0.060 C 
HETATM    8  C   UNL     1      38.834 -14.690   1.002  1.00  0.00     0.138 C 
HETATM    9  N   UNL     1      39.573 -13.687   0.218  1.00  0.00    -0.334 N 
HETATM   10  C   UNL     1      39.428 -13.553  -1.160  1.00  0.00     0.318 C 
HETATM   11  C   UNL     1      40.018 -12.507   0.948  1.00  0.00     0.127 C 
HETATM   12  N   UNL     1      39.008 -14.696  -1.792  1.00  0.00    -0.339 N 
HETATM   13  O   UNL     1      39.650 -12.503  -1.756  1.00  0.00    -0.247 OA
HETATM   14  H   UNL     1      39.418 -15.522  -1.377  1.00  0.00     0.164 HD
HETATM   15  C   UNL     1      40.749 -12.864   2.237  1.00  0.00     0.021 C 
HETATM   16  C   UNL     1      39.915 -13.804   3.104  1.00  0.00     0.014 C 
BRANCH  12  17
HETATM   17  C   UNL     1      38.767 -14.788  -3.226  1.00  0.00     0.078 C 
HETATM   18  C   UNL     1      37.277 -14.794  -3.556  1.00  0.00     0.032 C 
HETATM   19  C   UNL     1      39.495 -15.959  -3.886  1.00  0.00     0.032 C 
ENDBRANCH  12  17
ENDBRANCH   1   7
BRANCH   6  20
HETATM   20  N   UNL     1      40.588 -17.119   4.470  1.00  0.00    -0.320 N 
HETATM   21  C   UNL     1      40.951 -16.695   5.722  1.00  0.00     0.256 C 
HETATM   22  O   UNL     1      40.218 -16.944   6.679  1.00  0.00    -0.267 OA
HETATM   23  H   UNL     1      39.712 -17.625   4.497  1.00  0.00     0.169 HD
BRANCH  21  24
HETATM   24  C   UNL     1      42.166 -15.912   5.976  1.00  0.00     0.032 A 
HETATM   25  C   UNL     1      43.279 -16.486   6.593  1.00  0.00     0.020 A 
HETATM   26  C   UNL     1      44.388 -15.685   6.880  1.00  0.00     0.038 A 
HETATM   27  C   UNL     1      44.376 -14.314   6.590  1.00  0.00     0.068 A 
HETATM   28  C   UNL     1      43.245 -13.745   6.000  1.00  0.00     0.038 A 
HETATM   29  C   UNL     1      42.138 -14.542   5.699  1.00  0.00     0.020 A 
BRANCH  27  30
HETATM   30  O   UNL     1      45.522 -13.647   6.931  1.00  0.00    -0.356 OA
HETATM   31  C   UNL     1      45.482 -12.883   8.131  1.00  0.00     0.210 C 
ENDBRANCH  27  30
ENDBRANCH  21  24
ENDBRANCH   6  20
TORSDOF 5
ENDMDL
MODEL 3
REMARK VINA RESULT:      -8.0      3.069      5.710
REMARK  5 active torsions:
REMARK  status: ('A' for Active; 'I' for Inactive)
REMARK    1  A    between atoms: C_2  and  N_3 
REMARK       I    between atoms: N_3  and  C_4 
REMARK       I    between atoms: C_4  and  N_5 
REMARK    2  A    between atoms: C_7  and  C_8 
REMARK    3  A    between atoms: C_13  and  N_14 
REMARK       I    between atoms: N_14  and  C_15 
REMARK    4  A    between atoms: C_15  and  C_16 
REMARK    5  A    between atoms: C_19  and  O_20 
ROOT
HETATM    1  C   UNL     1      41.795 -15.056   4.276  1.00  0.00     0.088 A 
HETATM    2  N   UNL     1      40.536 -15.250   3.862  1.00  0.00    -0.177 NA
HETATM    3  N   UNL     1      39.787 -14.846   4.894  1.00  0.00    -0.287 N 
HETATM    4  H   UNL     1      38.778 -14.938   4.822  1.00  0.00     0.188 HD
HETATM    5  C   UNL     1      40.515 -14.353   5.939  1.00  0.00     0.141 A 
HETATM    6  C   UNL     1      41.833 -14.429   5.565  1.00  0.00     0.079 A 
ENDROOT
BRANCH   1   7
HETATM    7  C   UNL     1      42.976 -15.513   3.446  1.00  0.00     0.060 C 
HETATM    8  C   UNL     1      42.969 -15.008   1.993  1.00  0.00     0.138 C 
HETATM    9  N   UNL     1      42.075 -15.755   1.093  1.00  0.00    -0.334 N 
HETATM   10  C   UNL     1      41.563 -15.211  -0.082  1.00  0.00     0.318 C 
HETATM   11  C   UNL     1      42.176 -17.208   1.153  1.00  0.00     0.127 C 
HETATM   12  N   UNL     1      41.491 -13.841  -0.079  1.00  0.00    -0.339 N 
HETATM   13  O   UNL     1      41.214 -15.897  -1.038  1.00  0.00    -0.247 OA
HETATM   14  H   UNL     1      41.230 -13.486   0.831  1.00  0.00     0.164 HD
HETATM   15  C   UNL     1      42.108 -17.735   2.581  1.00  0.00     0.021 C 
HETATM   16  C   UNL     1      43.132 -17.043   3.477  1.00  0.00     0.014 C 
BRANCH  12  17
HETATM   17  C   UNL     1      41.008 -13.053  -1.205  1.00  0.00     0.078 C 
HETATM   18  C   UNL     1      42.146 -12.611  -2.122  1.00  0.00     0.032 C 
HETATM   19  C   UNL     1      40.134 -11.872  -0.783  1.00  0.00     0.032 C 
ENDBRANCH  12  17
ENDBRANCH   1   7
BRANCH   6  20
HETATM   20  N   UNL     1      42.979 -14.046   6.235  1.00  0.00    -0.320 N 
HETATM   21  C   UNL     1      43.991 -14.755   6.831  1.00  0.00     0.256 C 
HETATM   22  O   UNL     1      44.953 -14.151   7.304  1.00  0.00    -0.267 OA
HETATM   23  H   UNL     1      43.162 -13.051   6.275  1.00  0.00     0.169 HD
BRANCH  21  24
HETATM   24  C   UNL     1      44.003 -16.222   6.896  1.00  0.00     0.032 A 
HETATM   25  C   UNL     1      45.071 -16.958   6.383  1.00  0.00     0.020 A 
HETATM   26  C   UNL     1      45.008 -18.355   6.401  1.00  0.00     0.038 A 
HETATM   27  C   UNL     1      43.872 -19.014   6.891  1.00  0.00     0.068 A 
HETATM   28  C   UNL     1      42.797 -18.265   7.373  1.00  0.00     0.038 A 
HETATM   29  C   UNL     1      42.858 -16.870   7.370  1.00  0.00     0.020 A 
BRANCH  27  30
HETATM   30  O   UNL     1      43.938 -20.380   6.841  1.00  0.00    -0.356 OA
HETATM   31  C   UNL     1      44.446 -20.952   5.641  1.00  0.00     0.210 C 
ENDBRANCH  27  30
ENDBRANCH  21  24
ENDBRANCH   6  20
TORSDOF 5
ENDMDL
MODEL 4
REMARK VINA RESULT:      -7.9      3.267      5.435
REMARK  5 active torsions:
REMARK  status: ('A' for Active; 'I' for Inactive)
REMARK    1  A    between atoms: C_2  and  N_3 
REMARK       I    between atoms: N_3  and  C_4 
REMARK       I    between atoms: C_4  and  N_5 
REMARK    2  A    between atoms: C_7  and  C_8 
REMARK    3  A    between atoms: C_13  and  N_14 
REMARK       I    between atoms: N_14  and  C_15 
REMARK    4  A    between atoms: C_15  and  C_16 
REMARK    5  A    between atoms: C_19  and  O_20 
ROOT
HETATM    1  C   UNL     1      41.961 -14.578   4.001  1.00  0.00     0.088 A 
HETATM    2  N   UNL     1      42.656 -13.871   3.101  1.00  0.00    -0.177 NA
HETATM    3  N   UNL     1      43.840 -13.667   3.690  1.00  0.00    -0.287 N 
HETATM    4  H   UNL     1      44.532 -13.107   3.200  1.00  0.00     0.188 HD
HETATM    5  C   UNL     1      43.950 -14.258   4.916  1.00  0.00     0.141 A 
HETATM    6  C   UNL     1      42.762 -14.904   5.145  1.00  0.00     0.079 A 
ENDROOT
BRANCH   1   7
HETATM    7  C   UNL     1      40.500 -14.913   3.781  1.00  0.00     0.060 C 
HETATM    8  C   UNL     1      40.064 -14.934   2.306  1.00  0.00     0.138 C 
HETATM    9  N   UNL     1      39.826 -13.605   1.722  1.00  0.00    -0.334 N 
HETATM   10  C   UNL     1      39.892 -13.361   0.353  1.00  0.00     0.318 C 
HETATM   11  C   UNL     1      38.999 -12.700   2.510  1.00  0.00     0.127 C 
HETATM   12  N   UNL     1      40.686 -14.243  -0.335  1.00  0.00    -0.339 N 
HETATM   13  O   UNL     1      39.288 -12.442  -0.191  1.00  0.00    -0.247 OA
HETATM   14  H   UNL     1      41.504 -14.501   0.201  1.00  0.00     0.164 HD
HETATM   15  C   UNL     1      39.461 -12.605   3.958  1.00  0.00     0.021 C 
HETATM   16  C   UNL     1      39.579 -13.987   4.595  1.00  0.00     0.014 C 
BRANCH  12  17
HETATM   17  C   UNL     1      40.889 -14.197  -1.777  1.00  0.00     0.078 C 
HETATM   18  C   UNL     1      40.913 -15.592  -2.395  1.00  0.00     0.032 C 
HETATM   19  C   UNL     1      42.113 -13.378  -2.187  1.00  0.00     0.032 C 
ENDBRANCH  12  17
ENDBRANCH   1   7
BRANCH   6  20
HETATM   20  N   UNL     1      42.350 -15.672   6.217  1.00  0.00    -0.320 N 
HETATM   21  C   UNL     1      42.462 -17.009   6.504  1.00  0.00     0.256 C 
HETATM   22  O   UNL     1      42.061 -17.429   7.589  1.00  0.00    -0.267 OA
HETATM   23  H   UNL     1      41.913 -15.173   6.982  1.00  0.00     0.169 HD
BRANCH  21  24
HETATM   24  C   UNL     1      43.083 -17.969   5.584  1.00  0.00     0.032 A 
HETATM   25  C   UNL     1      44.309 -18.566   5.883  1.00  0.00     0.020 A 
HETATM   26  C   UNL     1      44.898 -19.420   4.946  1.00  0.00     0.038 A 
HETATM   27  C   UNL     1      44.290 -19.649   3.704  1.00  0.00     0.068 A 
HETATM   28  C   UNL     1      43.078 -19.023   3.404  1.00  0.00     0.038 A 
HETATM   29  C   UNL     1      42.478 -18.178   4.341  1.00  0.00     0.020 A 
BRANCH  27  30
HETATM   30  O   UNL     1      44.977 -20.497   2.878  1.00  0.00    -0.356 OA
HETATM   31  C   UNL     1      44.314 -21.698   2.500  1.00  0.00     0.210 C 
ENDBRANCH  27  30
ENDBRANCH  21  24
ENDBRANCH   6  20
TORSDOF 5
ENDMDL
MODEL 5
REMARK VINA RESULT:      -7.8      2.242      8.572
REMARK  5 active torsions:
REMARK  status: ('A' for Active; 'I' for Inactive)
REMARK    1  A    between atoms: C_2  and  N_3 
REMARK       I    between atoms: N_3  and  C_4 
REMARK       I    between atoms: C_4  and  N_5 
REMARK    2  A    between atoms: C_7  and  C_8 
REMARK    3  A    between atoms: C_13  and  N_14 
REMARK       I    between atoms: N_14  and  C_15 
REMARK    4  A    between atoms: C_15  and  C_16 
REMARK    5  A    between atoms: C_19  and  O_20 
ROOT
HETATM    1  C   UNL     1      41.554 -13.351   5.859  1.00  0.00     0.088 A 
HETATM    2  N   UNL     1      40.835 -14.479   5.945  1.00  0.00    -0.177 NA
HETATM    3  N   UNL     1      39.632 -14.069   6.361  1.00  0.00    -0.287 N 
HETATM    4  H   UNL     1      38.919 -14.769   6.537  1.00  0.00     0.188 HD
HETATM    5  C   UNL     1      39.534 -12.714   6.499  1.00  0.00     0.141 A 
HETATM    6  C   UNL     1      40.753 -12.196   6.141  1.00  0.00     0.079 A 
ENDROOT
BRANCH   1   7
HETATM    7  C   UNL     1      43.034 -13.384   5.543  1.00  0.00     0.060 C 
HETATM    8  C   UNL     1      43.439 -14.419   4.480  1.00  0.00     0.138 C 
HETATM    9  N   UNL     1      43.537 -15.800   4.981  1.00  0.00    -0.334 N 
HETATM   10  C   UNL     1      43.420 -16.913   4.153  1.00  0.00     0.318 C 
HETATM   11  C   UNL     1      44.292 -15.979   6.215  1.00  0.00     0.127 C 
HETATM   12  N   UNL     1      42.698 -16.683   3.008  1.00  0.00    -0.339 N 
HETATM   13  O   UNL     1      43.922 -18.000   4.419  1.00  0.00    -0.247 OA
HETATM   14  H   UNL     1      41.920 -16.060   3.179  1.00  0.00     0.164 HD
HETATM   15  C   UNL     1      43.854 -15.012   7.308  1.00  0.00     0.021 C 
HETATM   16  C   UNL     1      43.881 -13.568   6.814  1.00  0.00     0.014 C 
BRANCH  12  17
HETATM   17  C   UNL     1      42.461 -17.692   1.984  1.00  0.00     0.078 C 
HETATM   18  C   UNL     1      43.596 -17.749   0.965  1.00  0.00     0.032 C 
HETATM   19  C   UNL     1      41.099 -17.551   1.304  1.00  0.00     0.032 C 
ENDBRANCH  12  17
ENDBRANCH   1   7
BRANCH   6  20
HETATM   20  N   UNL     1      41.189 -10.886   6.078  1.00  0.00    -0.320 N 
HETATM   21  C   UNL     1      41.627 -10.003   7.032  1.00  0.00     0.256 C 
HETATM   22  O   UNL     1      42.034  -8.895   6.686  1.00  0.00    -0.267 OA
HETATM   23  H   UNL     1      41.251 -10.480   5.153  1.00  0.00     0.169 HD
BRANCH  21  24
HETATM   24  C   UNL     1      41.674 -10.336   8.461  1.00  0.00     0.032 A 
HETATM   25  C   UNL     1      42.857 -10.767   9.063  1.00  0.00     0.020 A 
HETATM   26  C   UNL     1      42.839 -11.141  10.410  1.00  0.00     0.038 A 
HETATM   27  C   UNL     1      41.645 -11.123  11.143  1.00  0.00     0.068 A 
HETATM   28  C   UNL     1      40.461 -10.719  10.521  1.00  0.00     0.038 A 
HETATM   29  C   UNL     1      40.474 -10.331   9.178  1.00  0.00     0.020 A 
BRANCH  27  30
HETATM   30  O   UNL     1      41.766 -11.523  12.446  1.00  0.00    -0.356 OA
HETATM   31  C   UNL     1      41.208 -10.663  13.433  1.00  0.00     0.210 C 
ENDBRANCH  27  30
ENDBRANCH  21  24
ENDBRANCH   6  20
TORSDOF 5
ENDMDL
MODEL 6
REMARK VINA RESULT:      -7.8      3.985      7.692
REMARK  5 active torsions:
REMARK  status: ('A' for Active; 'I' for Inactive)
REMARK    1  A    between atoms: C_2  and  N_3 
REMARK       I    between atoms: N_3  and  C_4 
REMARK       I    between atoms: C_4  and  N_5 
REMARK    2  A    between atoms: C_7  and  C_8 
REMARK    3  A    between atoms: C_13  and  N_14 
REMARK       I    between atoms: N_14  and  C_15 
REMARK    4  A    between atoms: C_15  and  C_16 
REMARK    5  A    between atoms: C_19  and  O_20 
ROOT
HETATM    1  C   UNL     1      41.880 -15.637   3.036  1.00  0.00     0.088 A 
HETATM    2  N   UNL     1      43.072 -15.346   3.574  1.00  0.00    -0.177 NA
HETATM    3  N   UNL     1      43.047 -14.017   3.725  1.00  0.00    -0.287 N 
HETATM    4  H   UNL     1      43.876 -13.557   4.087  1.00  0.00     0.188 HD
HETATM    5  C   UNL     1      41.864 -13.447   3.350  1.00  0.00     0.141 A 
HETATM    6  C   UNL     1      41.052 -14.471   2.933  1.00  0.00     0.079 A 
ENDROOT
BRANCH   1   7
HETATM    7  C   UNL     1      41.545 -17.041   2.580  1.00  0.00     0.060 C 
HETATM    8  C   UNL     1      41.998 -18.152   3.542  1.00  0.00     0.138 C 
HETATM    9  N   UNL     1      43.429 -18.488   3.454  1.00  0.00    -0.334 N 
HETATM   10  C   UNL     1      44.129 -19.084   4.500  1.00  0.00     0.318 C 
HETATM   11  C   UNL     1      43.954 -18.698   2.110  1.00  0.00     0.127 C 
HETATM   12  N   UNL     1      43.588 -18.849   5.739  1.00  0.00    -0.339 N 
HETATM   13  O   UNL     1      45.136 -19.762   4.327  1.00  0.00    -0.247 OA
HETATM   14  H   UNL     1      43.218 -17.911   5.810  1.00  0.00     0.164 HD
HETATM   15  C   UNL     1      43.580 -17.569   1.159  1.00  0.00     0.021 C 
HETATM   16  C   UNL     1      42.074 -17.317   1.161  1.00  0.00     0.014 C 
BRANCH  12  17
HETATM   17  C   UNL     1      44.137 -19.387   6.977  1.00  0.00     0.078 C 
HETATM   18  C   UNL     1      43.594 -20.780   7.284  1.00  0.00     0.032 C 
HETATM   19  C   UNL     1      43.973 -18.443   8.168  1.00  0.00     0.032 C 
ENDBRANCH  12  17
ENDBRANCH   1   7
BRANCH   6  20
HETATM   20  N   UNL     1      39.749 -14.454   2.474  1.00  0.00    -0.320 N 
HETATM   21  C   UNL     1      39.199 -14.217   1.240  1.00  0.00     0.256 C 
HETATM   22  O   UNL     1      37.983 -14.340   1.088  1.00  0.00    -0.267 OA
HETATM   23  H   UNL     1      39.036 -14.705   3.147  1.00  0.00     0.169 HD
BRANCH  21  24
HETATM   24  C   UNL     1      40.004 -13.859   0.066  1.00  0.00     0.032 A 
HETATM   25  C   UNL     1      40.484 -14.838  -0.805  1.00  0.00     0.020 A 
HETATM   26  C   UNL     1      41.306 -14.459  -1.870  1.00  0.00     0.038 A 
HETATM   27  C   UNL     1      41.680 -13.120  -2.045  1.00  0.00     0.068 A 
HETATM   28  C   UNL     1      41.218 -12.154  -1.148  1.00  0.00     0.038 A 
HETATM   29  C   UNL     1      40.386 -12.523  -0.089  1.00  0.00     0.020 A 
BRANCH  27  30
HETATM   30  O   UNL     1      42.496 -12.888  -3.120  1.00  0.00    -0.356 OA
HETATM   31  C   UNL     1      42.201 -11.743  -3.910  1.00  0.00     0.210 C 
ENDBRANCH  27  30
ENDBRANCH  21  24
ENDBRANCH   6  20
TORSDOF 5
ENDMDL
MODEL 7
REMARK VINA RESULT:      -7.7      3.828      5.797
REMARK  5 active torsions:
REMARK  status: ('A' for Active; 'I' for Inactive)
REMARK    1  A    between atoms: C_2  and  N_3 
REMARK       I    between atoms: N_3  and  C_4 
REMARK       I    between atoms: C_4  and  N_5 
REMARK    2  A    between atoms: C_7  and  C_8 
REMARK    3  A    between atoms: C_13  and  N_14 
REMARK       I    between atoms: N_14  and  C_15 
REMARK    4  A    between atoms: C_15  and  C_16 
REMARK    5  A    between atoms: C_19  and  O_20 
ROOT
HETATM    1  C   UNL     1      41.995 -14.722   2.538  1.00  0.00     0.088 A 
HETATM    2  N   UNL     1      42.967 -13.874   2.177  1.00  0.00    -0.177 NA
HETATM    3  N   UNL     1      43.597 -13.593   3.323  1.00  0.00    -0.287 N 
HETATM    4  H   UNL     1      44.361 -12.925   3.302  1.00  0.00     0.188 HD
HETATM    5  C   UNL     1      43.098 -14.267   4.401  1.00  0.00     0.141 A 
HETATM    6  C   UNL     1      42.076 -15.052   3.931  1.00  0.00     0.079 A 
ENDROOT
BRANCH   1   7
HETATM    7  C   UNL     1      40.952 -15.192   1.545  1.00  0.00     0.060 C 
HETATM    8  C   UNL     1      40.930 -14.408   0.221  1.00  0.00     0.138 C 
HETATM    9  N   UNL     1      40.244 -13.108   0.295  1.00  0.00    -0.334 N 
HETATM   10  C   UNL     1      40.504 -12.068  -0.594  1.00  0.00     0.318 C 
HETATM   11  C   UNL     1      38.935 -13.111   0.934  1.00  0.00     0.127 C 
HETATM   12  N   UNL     1      41.752 -12.117  -1.162  1.00  0.00    -0.339 N 
HETATM   13  O   UNL     1      39.687 -11.189  -0.850  1.00  0.00    -0.247 OA
HETATM   14  H   UNL     1      42.447 -12.442  -0.504  1.00  0.00     0.164 HD
HETATM   15  C   UNL     1      38.951 -13.817   2.285  1.00  0.00     0.021 C 
HETATM   16  C   UNL     1      39.546 -15.218   2.170  1.00  0.00     0.014 C 
BRANCH  12  17
HETATM   17  C   UNL     1      42.237 -11.148  -2.136  1.00  0.00     0.078 C 
HETATM   18  C   UNL     1      42.433 -11.773  -3.515  1.00  0.00     0.032 C 
HETATM   19  C   UNL     1      43.489 -10.403  -1.672  1.00  0.00     0.032 C 
ENDBRANCH  12  17
ENDBRANCH   1   7
BRANCH   6  20
HETATM   20  N   UNL     1      41.252 -15.945   4.590  1.00  0.00    -0.320 N 
HETATM   21  C   UNL     1      41.291 -17.306   4.749  1.00  0.00     0.256 C 
HETATM   22  O   UNL     1      40.452 -17.854   5.463  1.00  0.00    -0.267 OA
HETATM   23  H   UNL     1      40.481 -15.541   5.107  1.00  0.00     0.169 HD
BRANCH  21  24
HETATM   24  C   UNL     1      42.323 -18.149   4.133  1.00  0.00     0.032 A 
HETATM   25  C   UNL     1      42.300 -18.436   2.767  1.00  0.00     0.020 A 
HETATM   26  C   UNL     1      43.261 -19.302   2.236  1.00  0.00     0.038 A 
HETATM   27  C   UNL     1      44.215 -19.908   3.065  1.00  0.00     0.068 A 
HETATM   28  C   UNL     1      44.208 -19.637   4.435  1.00  0.00     0.038 A 
HETATM   29  C   UNL     1      43.259 -18.763   4.970  1.00  0.00     0.020 A 
BRANCH  27  30
HETATM   30  O   UNL     1      45.089 -20.740   2.418  1.00  0.00    -0.356 OA
HETATM   31  C   UNL     1      44.545 -21.932   1.864  1.00  0.00     0.210 C 
ENDBRANCH  27  30
ENDBRANCH  21  24
ENDBRANCH   6  20
TORSDOF 5
ENDMDL
MODEL 8
REMARK VINA RESULT:      -7.6      1.212      1.828
REMARK  5 active torsions:
REMARK  status: ('A' for Active; 'I' for Inactive)
REMARK    1  A    between atoms: C_2  and  N_3 
REMARK       I    between atoms: N_3  and  C_4 
REMARK       I    between atoms: C_4  and  N_5 
REMARK    2  A    between atoms: C_7  and  C_8 
REMARK    3  A    between atoms: C_13  and  N_14 
REMARK       I    between atoms: N_14  and  C_15 
REMARK    4  A    between atoms: C_15  and  C_16 
REMARK    5  A    between atoms: C_19  and  O_20 
ROOT
HETATM    1  C   UNL     1      41.737 -15.411   5.751  1.00  0.00     0.088 A 
HETATM    2  N   UNL     1      40.400 -15.427   5.671  1.00  0.00    -0.177 NA
HETATM    3  N   UNL     1      40.049 -16.556   6.297  1.00  0.00    -0.287 N 
HETATM    4  H   UNL     1      39.065 -16.804   6.327  1.00  0.00     0.188 HD
HETATM    5  C   UNL     1      41.107 -17.243   6.820  1.00  0.00     0.141 A 
HETATM    6  C   UNL     1      42.230 -16.511   6.527  1.00  0.00     0.079 A 
ENDROOT
BRANCH   1   7
HETATM    7  C   UNL     1      42.555 -14.351   5.043  1.00  0.00     0.060 C 
HETATM    8  C   UNL     1      43.396 -13.463   5.976  1.00  0.00     0.138 C 
HETATM    9  N   UNL     1      42.637 -12.397   6.649  1.00  0.00    -0.334 N 
HETATM   10  C   UNL     1      43.057 -11.809   7.840  1.00  0.00     0.318 C 
HETATM   11  C   UNL     1      41.763 -11.599   5.798  1.00  0.00     0.127 C 
HETATM   12  N   UNL     1      43.875 -12.607   8.599  1.00  0.00    -0.339 N 
HETATM   13  O   UNL     1      42.730 -10.676   8.177  1.00  0.00    -0.247 OA
HETATM   14  H   UNL     1      43.594 -13.577   8.553  1.00  0.00     0.164 HD
HETATM   15  C   UNL     1      40.866 -12.462   4.919  1.00  0.00     0.021 C 
HETATM   16  C   UNL     1      41.681 -13.480   4.125  1.00  0.00     0.014 C 
BRANCH  12  17
HETATM   17  C   UNL     1      44.453 -12.198   9.872  1.00  0.00     0.078 C 
HETATM   18  C   UNL     1      43.389 -11.714  10.853  1.00  0.00     0.032 C 
HETATM   19  C   UNL     1      45.584 -11.180   9.720  1.00  0.00     0.032 C 
ENDBRANCH  12  17
ENDBRANCH   1   7
BRANCH   6  20
HETATM   20  N   UNL     1      43.557 -16.738   6.840  1.00  0.00    -0.320 N 
HETATM   21  C   UNL     1      44.542 -17.481   6.241  1.00  0.00     0.256 C 
HETATM   22  O   UNL     1      45.683 -17.451   6.699  1.00  0.00    -0.267 OA
HETATM   23  H   UNL     1      43.918 -16.236   7.642  1.00  0.00     0.169 HD
BRANCH  21  24
HETATM   24  C   UNL     1      44.307 -18.290   5.039  1.00  0.00     0.032 A 
HETATM   25  C   UNL     1      43.668 -17.752   3.920  1.00  0.00     0.020 A 
HETATM   26  C   UNL     1      43.401 -18.578   2.824  1.00  0.00     0.038 A 
HETATM   27  C   UNL     1      43.733 -19.939   2.856  1.00  0.00     0.068 A 
HETATM   28  C   UNL     1      44.344 -20.472   3.993  1.00  0.00     0.038 A 
HETATM   29  C   UNL     1      44.625 -19.650   5.087  1.00  0.00     0.020 A 
BRANCH  27  30
HETATM   30  O   UNL     1      43.407 -20.634   1.722  1.00  0.00    -0.356 OA
HETATM   31  C   UNL     1      44.095 -21.860   1.506  1.00  0.00     0.210 C 
ENDBRANCH  27  30
ENDBRANCH  21  24
ENDBRANCH   6  20
TORSDOF 5
ENDMDL
MODEL 9
REMARK VINA RESULT:      -7.5      2.772      4.442
REMARK  5 active torsions:
REMARK  status: ('A' for Active; 'I' for Inactive)
REMARK    1  A    between atoms: C_2  and  N_3 
REMARK       I    between atoms: N_3  and  C_4 
REMARK       I    between atoms: C_4  and  N_5 
REMARK    2  A    between atoms: C_7  and  C_8 
REMARK    3  A    between atoms: C_13  and  N_14 
REMARK       I    between atoms: N_14  and  C_15 
REMARK    4  A    between atoms: C_15  and  C_16 
REMARK    5  A    between atoms: C_19  and  O_20 
ROOT
HETATM    1  C   UNL     1      40.399 -11.806   6.194  1.00  0.00     0.088 A 
HETATM    2  N   UNL     1      39.398 -12.209   6.987  1.00  0.00    -0.177 NA
HETATM    3  N   UNL     1      39.240 -13.502   6.682  1.00  0.00    -0.287 N 
HETATM    4  H   UNL     1      38.495 -14.018   7.140  1.00  0.00     0.188 HD
HETATM    5  C   UNL     1      40.135 -13.959   5.757  1.00  0.00     0.141 A 
HETATM    6  C   UNL     1      40.943 -12.897   5.439  1.00  0.00     0.079 A 
ENDROOT
BRANCH   1   7
HETATM    7  C   UNL     1      40.814 -10.351   6.128  1.00  0.00     0.060 C 
HETATM    8  C   UNL     1      41.876  -9.941   7.163  1.00  0.00     0.138 C 
HETATM    9  N   UNL     1      41.349  -9.708   8.517  1.00  0.00    -0.334 N 
HETATM   10  C   UNL     1      42.141  -9.797   9.660  1.00  0.00     0.318 C 
HETATM   11  C   UNL     1      40.165  -8.863   8.605  1.00  0.00     0.127 C 
HETATM   12  N   UNL     1      43.239 -10.608   9.517  1.00  0.00    -0.339 N 
HETATM   13  O   UNL     1      41.882  -9.200  10.699  1.00  0.00    -0.247 OA
HETATM   14  H   UNL     1      43.031 -11.417   8.947  1.00  0.00     0.164 HD
HETATM   15  C   UNL     1      39.069  -9.299   7.641  1.00  0.00     0.021 C 
HETATM   16  C   UNL     1      39.599  -9.411   6.213  1.00  0.00     0.014 C 
BRANCH  12  17
HETATM   17  C   UNL     1      44.220 -10.837  10.570  1.00  0.00     0.078 C 
HETATM   18  C   UNL     1      45.642 -10.904  10.020  1.00  0.00     0.032 C 
HETATM   19  C   UNL     1      43.895 -12.049  11.443  1.00  0.00     0.032 C 
ENDBRANCH  12  17
ENDBRANCH   1   7
BRANCH   6  20
HETATM   20  N   UNL     1      42.021 -12.815   4.578  1.00  0.00    -0.320 N 
HETATM   21  C   UNL     1      43.110 -13.621   4.368  1.00  0.00     0.256 C 
HETATM   22  O   UNL     1      43.900 -13.345   3.465  1.00  0.00    -0.267 OA
HETATM   23  H   UNL     1      42.013 -12.039   3.927  1.00  0.00     0.169 HD
BRANCH  21  24
HETATM   24  C   UNL     1      43.362 -14.836   5.151  1.00  0.00     0.032 A 
HETATM   25  C   UNL     1      43.918 -14.769   6.429  1.00  0.00     0.020 A 
HETATM   26  C   UNL     1      44.208 -15.956   7.110  1.00  0.00     0.038 A 
HETATM   27  C   UNL     1      43.980 -17.201   6.509  1.00  0.00     0.068 A 
HETATM   28  C   UNL     1      43.452 -17.254   5.217  1.00  0.00     0.038 A 
HETATM   29  C   UNL     1      43.148 -16.073   4.535  1.00  0.00     0.020 A 
BRANCH  27  30
HETATM   30  O   UNL     1      44.317 -18.280   7.281  1.00  0.00    -0.356 OA
HETATM   31  C   UNL     1      43.815 -19.544   6.864  1.00  0.00     0.210 C 
ENDBRANCH  27  30
ENDBRANCH  21  24
ENDBRANCH   6  20
TORSDOF 5
ENDMDL
MODEL 10
REMARK VINA RESULT:      -7.4      2.237      3.266
REMARK  5 active torsions:
REMARK  status: ('A' for Active; 'I' for Inactive)
REMARK    1  A    between atoms: C_2  and  N_3 
REMARK       I    between atoms: N_3  and  C_4 
REMARK       I    between atoms: C_4  and  N_5 
REMARK    2  A    between atoms: C_7  and  C_8 
REMARK    3  A    between atoms: C_13  and  N_14 
REMARK       I    between atoms: N_14  and  C_15 
REMARK    4  A    between atoms: C_15  and  C_16 
REMARK    5  A    between atoms: C_19  and  O_20 
ROOT
HETATM    1  C   UNL     1      41.718 -15.071   5.950  1.00  0.00     0.088 A 
HETATM    2  N   UNL     1      40.406 -15.081   5.681  1.00  0.00    -0.177 NA
HETATM    3  N   UNL     1      40.042 -16.353   5.877  1.00  0.00    -0.287 N 
HETATM    4  H   UNL     1      39.078 -16.612   5.692  1.00  0.00     0.188 HD
HETATM    5  C   UNL     1      41.061 -17.152   6.310  1.00  0.00     0.141 A 
HETATM    6  C   UNL     1      42.168 -16.350   6.415  1.00  0.00     0.079 A 
ENDROOT
BRANCH   1   7
HETATM    7  C   UNL     1      42.560 -13.832   5.721  1.00  0.00     0.060 C 
HETATM    8  C   UNL     1      41.808 -12.661   5.067  1.00  0.00     0.138 C 
HETATM    9  N   UNL     1      41.634 -12.786   3.610  1.00  0.00    -0.334 N 
HETATM   10  C   UNL     1      40.624 -12.129   2.913  1.00  0.00     0.318 C 
HETATM   11  C   UNL     1      42.827 -13.144   2.853  1.00  0.00     0.127 C 
HETATM   12  N   UNL     1      39.528 -11.820   3.677  1.00  0.00    -0.339 N 
HETATM   13  O   UNL     1      40.710 -11.847   1.722  1.00  0.00    -0.247 OA
HETATM   14  H   UNL     1      39.326 -12.548   4.348  1.00  0.00     0.164 HD
HETATM   15  C   UNL     1      43.546 -14.352   3.442  1.00  0.00     0.021 C 
HETATM   16  C   UNL     1      43.837 -14.155   4.927  1.00  0.00     0.014 C 
BRANCH  12  17
HETATM   17  C   UNL     1      38.358 -11.115   3.168  1.00  0.00     0.078 C 
HETATM   18  C   UNL     1      37.803 -11.767   1.905  1.00  0.00     0.032 C 
HETATM   19  C   UNL     1      38.596  -9.618   2.971  1.00  0.00     0.032 C 
ENDBRANCH  12  17
ENDBRANCH   1   7
BRANCH   6  20
HETATM   20  N   UNL     1      43.454 -16.645   6.827  1.00  0.00    -0.320 N 
HETATM   21  C   UNL     1      44.444 -17.433   6.301  1.00  0.00     0.256 C 
HETATM   22  O   UNL     1      45.548 -17.461   6.845  1.00  0.00    -0.267 OA
HETATM   23  H   UNL     1      43.777 -16.164   7.658  1.00  0.00     0.169 HD
BRANCH  21  24
HETATM   24  C   UNL     1      44.264 -18.225   5.078  1.00  0.00     0.032 A 
HETATM   25  C   UNL     1      43.644 -17.682   3.951  1.00  0.00     0.020 A 
HETATM   26  C   UNL     1      43.428 -18.494   2.834  1.00  0.00     0.038 A 
HETATM   27  C   UNL     1      43.791 -19.848   2.851  1.00  0.00     0.068 A 
HETATM   28  C   UNL     1      44.383 -20.387   3.995  1.00  0.00     0.038 A 
HETATM   29  C   UNL     1      44.613 -19.578   5.111  1.00  0.00     0.020 A 
BRANCH  27  30
HETATM   30  O   UNL     1      43.515 -20.529   1.696  1.00  0.00    -0.356 OA
HETATM   31  C   UNL     1      44.004 -21.863   1.610  1.00  0.00     0.210 C 
ENDBRANCH  27  30
ENDBRANCH  21  24
ENDBRANCH   6  20
TORSDOF 5
ENDMDL
