MODEL 1
REMARK VINA RESULT:      -7.7      0.000      0.000
REMARK  9 active torsions:
REMARK  status: ('A' for Active; 'I' for Inactive)
REMARK    1  A    between atoms: C_2  and  C_3 
REMARK    2  A    between atoms: C_7  and  C_8 
REMARK    3  A    between atoms: C_8  and  C_9 
REMARK       I    between atoms: C_9  and  N_10 
REMARK    4  A    between atoms: N_10  and  C_11 
REMARK    5  A    between atoms: C_11  and  C_12 
REMARK    6  A    between atoms: C_12  and  C_13 
REMARK    7  A    between atoms: C_21  and  C_22 
REMARK    8  A    between atoms: C_32  and  C_33 
REMARK    9  A    between atoms: C_33  and  O_34 
ROOT
HETATM    1  C   UNL     1      42.531 -16.656   3.452  1.00  0.00     0.051 C 
HETATM    2  N   UNL     1      42.348 -17.520   4.544  1.00  0.00    -0.228 NA
HETATM    3  C   UNL     1      42.441 -16.971   5.712  1.00  0.00     0.170 C 
HETATM    4  N   UNL     1      42.455 -15.417   5.908  1.00  0.00    -0.318 N 
HETATM    5  C   UNL     1      43.442 -15.126   6.697  1.00  0.00     0.011 C 
HETATM    6  C   UNL     1      41.610 -14.861   4.826  1.00  0.00     0.166 C 
HETATM    7  S   UNL     1      42.915 -17.771   7.159  1.00  0.00    -0.086 SA
HETATM    8  C   UNL     1      43.885 -16.277   7.599  1.00  0.00     0.135 C 
HETATM    9  C   UNL     1      42.274 -15.327   3.566  1.00  0.00     0.069 C 
ENDROOT
BRANCH   5  10
HETATM   10  C   UNL     1      44.246 -13.873   6.482  1.00  0.00     0.156 C 
BRANCH  10  11
HETATM   11  C   UNL     1      44.968 -13.286   7.675  1.00  0.00     0.222 C 
HETATM   12  N   UNL     1      44.143 -13.060   8.757  1.00  0.00    -0.361 N 
HETATM   13  H   UNL     1      43.147 -13.260   8.661  1.00  0.00     0.162 HD
HETATM   14  O   UNL     1      46.165 -13.009   7.682  1.00  0.00    -0.273 OA
BRANCH  12  15
HETATM   15  C   UNL     1      44.505 -12.166   9.844  1.00  0.00     0.124 C 
BRANCH  15  16
HETATM   16  C   UNL     1      43.795 -10.810   9.840  1.00  0.00     0.053 C 
BRANCH  16  17
HETATM   17  C   UNL     1      42.289 -10.846   9.610  1.00  0.00     0.189 C 
HETATM   18  N   UNL     1      41.462 -11.400  10.752  1.00  0.00    -0.071 N 
HETATM   19  H   UNL     1      41.513 -12.433  10.679  1.00  0.00     0.279 HD
HETATM   20  C   UNL     1      41.853 -11.007  12.153  1.00  0.00     0.270 C 
HETATM   21  C   UNL     1      40.033 -10.956  10.453  1.00  0.00     0.235 C 
HETATM   22  C   UNL     1      40.159  -9.826   9.437  1.00  0.00     0.030 C 
HETATM   23  C   UNL     1      41.640  -9.495   9.361  1.00  0.00     0.035 C 
ENDBRANCH  16  17
ENDBRANCH  15  16
ENDBRANCH  12  15
ENDBRANCH  10  11
ENDBRANCH   5  10
BRANCH   6  24
HETATM   24  C   UNL     1      40.995 -13.467   4.964  1.00  0.00    -0.024 C 
HETATM   25  C   UNL     1      39.890 -13.059   4.167  1.00  0.00    -0.053 C 
HETATM   26  C   UNL     1      39.182 -13.932   3.158  1.00  0.00     0.049 C 
HETATM   27  C   UNL     1      39.341 -11.769   4.325  1.00  0.00     0.014 C 
HETATM   28  C   UNL     1      39.790 -10.895   5.312  1.00  0.00    -0.061 C 
HETATM   29  C   UNL     1      39.131  -9.561   5.503  1.00  0.00     0.048 C 
HETATM   30  C   UNL     1      40.777 -11.339   6.185  1.00  0.00     0.007 C 
HETATM   31  C   UNL     1      41.353 -12.605   6.024  1.00  0.00     0.011 C 
ENDBRANCH   6  24
BRANCH   9  32
HETATM   32  C   UNL     1      42.977 -14.314   2.770  1.00  0.00     0.293 C 
HETATM   33  O   UNL     1      44.018 -13.831   3.194  1.00  0.00    -0.259 OA
BRANCH  32  34
HETATM   34  O   UNL     1      42.334 -14.021   1.629  1.00  0.00    -0.323 OA
HETATM   35  C   UNL     1      42.174 -12.618   1.391  1.00  0.00     0.213 C 
ENDBRANCH  32  34
ENDBRANCH   9  32
BRANCH   1  36
HETATM   36  C   UNL     1      43.227 -17.318   2.275  1.00  0.00     0.056 C 
HETATM   37  C   UNL     1      43.218 -18.837   2.376  1.00  0.00     0.011 C 
ENDBRANCH   1  36
TORSDOF 9
ENDMDL
MODEL 2
REMARK VINA RESULT:      -7.3      3.925      8.705
REMARK  9 active torsions:
REMARK  status: ('A' for Active; 'I' for Inactive)
REMARK    1  A    between atoms: C_2  and  C_3 
REMARK    2  A    between atoms: C_7  and  C_8 
REMARK    3  A    between atoms: C_8  and  C_9 
REMARK       I    between atoms: C_9  and  N_10 
REMARK    4  A    between atoms: N_10  and  C_11 
REMARK    5  A    between atoms: C_11  and  C_12 
REMARK    6  A    between atoms: C_12  and  C_13 
REMARK    7  A    between atoms: C_21  and  C_22 
REMARK    8  A    between atoms: C_32  and  C_33 
REMARK    9  A    between atoms: C_33  and  O_34 
ROOT
HETATM    1  C   UNL     1      40.389 -13.502   3.940  1.00  0.00     0.051 C 
HETATM    2  N   UNL     1      39.110 -13.643   3.379  1.00  0.00    -0.228 NA
HETATM    3  C   UNL     1      39.060 -14.287   2.258  1.00  0.00     0.170 C 
HETATM    4  N   UNL     1      40.275 -15.111   1.711  1.00  0.00    -0.318 N 
HETATM    5  C   UNL     1      40.448 -14.784   0.468  1.00  0.00     0.011 C 
HETATM    6  C   UNL     1      40.988 -15.628   2.903  1.00  0.00     0.166 C 
HETATM    7  S   UNL     1      37.865 -14.083   1.037  1.00  0.00    -0.086 SA
HETATM    8  C   UNL     1      39.201 -14.222  -0.213  1.00  0.00     0.135 C 
HETATM    9  C   UNL     1      41.373 -14.395   3.663  1.00  0.00     0.069 C 
ENDROOT
BRANCH   5  10
HETATM   10  C   UNL     1      41.834 -14.683  -0.107  1.00  0.00     0.156 C 
BRANCH  10  11
HETATM   11  C   UNL     1      42.205 -13.406  -0.830  1.00  0.00     0.222 C 
HETATM   12  N   UNL     1      42.190 -13.531  -2.203  1.00  0.00    -0.361 N 
HETATM   13  H   UNL     1      41.978 -14.442  -2.608  1.00  0.00     0.162 HD
HETATM   14  O   UNL     1      42.517 -12.363  -0.260  1.00  0.00    -0.273 OA
BRANCH  12  15
HETATM   15  C   UNL     1      42.870 -12.594  -3.081  1.00  0.00     0.124 C 
BRANCH  15  16
HETATM   16  C   UNL     1      41.958 -11.621  -3.832  1.00  0.00     0.053 C 
BRANCH  16  17
HETATM   17  C   UNL     1      42.075 -10.154  -3.434  1.00  0.00     0.189 C 
HETATM   18  N   UNL     1      40.830  -9.534  -2.833  1.00  0.00    -0.071 N 
HETATM   19  H   UNL     1      40.212  -9.284  -3.628  1.00  0.00     0.279 HD
HETATM   20  C   UNL     1      40.034 -10.365  -1.861  1.00  0.00     0.270 C 
HETATM   21  C   UNL     1      41.314  -8.250  -2.165  1.00  0.00     0.235 C 
HETATM   22  C   UNL     1      42.824  -8.407  -2.022  1.00  0.00     0.030 C 
HETATM   23  C   UNL     1      43.131  -9.851  -2.385  1.00  0.00     0.035 C 
ENDBRANCH  16  17
ENDBRANCH  15  16
ENDBRANCH  12  15
ENDBRANCH  10  11
ENDBRANCH   5  10
BRANCH   6  24
HETATM   24  C   UNL     1      41.909 -16.843   2.785  1.00  0.00    -0.024 C 
HETATM   25  C   UNL     1      42.085 -17.751   3.866  1.00  0.00    -0.053 C 
HETATM   26  C   UNL     1      41.376 -17.660   5.197  1.00  0.00     0.049 C 
HETATM   27  C   UNL     1      42.936 -18.867   3.722  1.00  0.00     0.014 C 
HETATM   28  C   UNL     1      43.552 -19.170   2.510  1.00  0.00    -0.061 C 
HETATM   29  C   UNL     1      44.388 -20.408   2.371  1.00  0.00     0.048 C 
HETATM   30  C   UNL     1      43.276 -18.365   1.412  1.00  0.00     0.007 C 
HETATM   31  C   UNL     1      42.456 -17.237   1.544  1.00  0.00     0.011 C 
ENDBRANCH   6  24
BRANCH   9  32
HETATM   32  C   UNL     1      42.796 -14.033   3.666  1.00  0.00     0.293 C 
HETATM   33  O   UNL     1      43.230 -13.292   2.795  1.00  0.00    -0.259 OA
BRANCH  32  34
HETATM   34  O   UNL     1      43.471 -14.616   4.669  1.00  0.00    -0.323 OA
HETATM   35  C   UNL     1      43.573 -13.812   5.849  1.00  0.00     0.213 C 
ENDBRANCH  32  34
ENDBRANCH   9  32
BRANCH   1  36
HETATM   36  C   UNL     1      40.582 -12.180   4.665  1.00  0.00     0.056 C 
HETATM   37  C   UNL     1      40.092 -12.232   6.105  1.00  0.00     0.011 C 
ENDBRANCH   1  36
TORSDOF 9
ENDMDL
MODEL 3
REMARK VINA RESULT:      -7.1      3.764      7.452
REMARK  9 active torsions:
REMARK  status: ('A' for Active; 'I' for Inactive)
REMARK    1  A    between atoms: C_2  and  C_3 
REMARK    2  A    between atoms: C_7  and  C_8 
REMARK    3  A    between atoms: C_8  and  C_9 
REMARK       I    between atoms: C_9  and  N_10 
REMARK    4  A    between atoms: N_10  and  C_11 
REMARK    5  A    between atoms: C_11  and  C_12 
REMARK    6  A    between atoms: C_12  and  C_13 
REMARK    7  A    between atoms: C_21  and  C_22 
REMARK    8  A    between atoms: C_32  and  C_33 
REMARK    9  A    between atoms: C_33  and  O_34 
ROOT
HETATM    1  C   UNL     1      40.354 -13.387   3.771  1.00  0.00     0.051 C 
HETATM    2  N   UNL     1      39.071 -13.528   3.218  1.00  0.00    -0.228 NA
HETATM    3  C   UNL     1      39.013 -14.183   2.104  1.00  0.00     0.170 C 
HETATM    4  N   UNL     1      40.221 -15.018   1.559  1.00  0.00    -0.318 N 
HETATM    5  C   UNL     1      40.391 -14.704   0.312  1.00  0.00     0.011 C 
HETATM    6  C   UNL     1      40.937 -15.527   2.752  1.00  0.00     0.166 C 
HETATM    7  S   UNL     1      37.814 -13.985   0.886  1.00  0.00    -0.086 SA
HETATM    8  C   UNL     1      39.143 -14.143  -0.368  1.00  0.00     0.135 C 
HETATM    9  C   UNL     1      41.333 -14.289   3.498  1.00  0.00     0.069 C 
ENDROOT
BRANCH   5  10
HETATM   10  C   UNL     1      41.774 -14.616  -0.271  1.00  0.00     0.156 C 
BRANCH  10  11
HETATM   11  C   UNL     1      42.201 -13.295  -0.874  1.00  0.00     0.222 C 
HETATM   12  N   UNL     1      42.323 -12.284   0.055  1.00  0.00    -0.361 N 
HETATM   13  H   UNL     1      42.089 -12.483   1.027  1.00  0.00     0.162 HD
HETATM   14  O   UNL     1      42.396 -13.123  -2.075  1.00  0.00    -0.273 OA
BRANCH  12  15
HETATM   15  C   UNL     1      42.333 -10.879  -0.315  1.00  0.00     0.124 C 
BRANCH  15  16
HETATM   16  C   UNL     1      41.022 -10.128  -0.072  1.00  0.00     0.053 C 
BRANCH  16  17
HETATM   17  C   UNL     1      40.657  -9.878   1.386  1.00  0.00     0.189 C 
HETATM   18  N   UNL     1      41.496  -8.841   2.106  1.00  0.00    -0.071 N 
HETATM   19  H   UNL     1      42.372  -9.318   2.391  1.00  0.00     0.279 HD
HETATM   20  C   UNL     1      41.864  -7.592   1.349  1.00  0.00     0.270 C 
HETATM   21  C   UNL     1      40.698  -8.491   3.358  1.00  0.00     0.235 C 
HETATM   22  C   UNL     1      39.279  -8.980   3.090  1.00  0.00     0.030 C 
HETATM   23  C   UNL     1      39.243  -9.376   1.623  1.00  0.00     0.035 C 
ENDBRANCH  16  17
ENDBRANCH  15  16
ENDBRANCH  12  15
ENDBRANCH  10  11
ENDBRANCH   5  10
BRANCH   6  24
HETATM   24  C   UNL     1      41.852 -16.748   2.643  1.00  0.00    -0.024 C 
HETATM   25  C   UNL     1      41.986 -17.675   3.712  1.00  0.00    -0.053 C 
HETATM   26  C   UNL     1      41.235 -17.602   5.021  1.00  0.00     0.049 C 
HETATM   27  C   UNL     1      42.832 -18.796   3.576  1.00  0.00     0.014 C 
HETATM   28  C   UNL     1      43.484 -19.083   2.379  1.00  0.00    -0.061 C 
HETATM   29  C   UNL     1      44.314 -20.326   2.245  1.00  0.00     0.048 C 
HETATM   30  C   UNL     1      43.249 -18.257   1.287  1.00  0.00     0.007 C 
HETATM   31  C   UNL     1      42.435 -17.124   1.413  1.00  0.00     0.011 C 
ENDBRANCH   6  24
BRANCH   9  32
HETATM   32  C   UNL     1      42.756 -13.933   3.491  1.00  0.00     0.293 C 
HETATM   33  O   UNL     1      43.183 -13.172   2.633  1.00  0.00    -0.259 OA
BRANCH  32  34
HETATM   34  O   UNL     1      43.442 -14.545   4.470  1.00  0.00    -0.323 OA
HETATM   35  C   UNL     1      43.500 -13.805   5.694  1.00  0.00     0.213 C 
ENDBRANCH  32  34
ENDBRANCH   9  32
BRANCH   1  36
HETATM   36  C   UNL     1      40.557 -12.059   4.482  1.00  0.00     0.056 C 
HETATM   37  C   UNL     1      39.915 -12.038   5.862  1.00  0.00     0.011 C 
ENDBRANCH   1  36
TORSDOF 9
ENDMDL
MODEL 4
REMARK VINA RESULT:      -6.9      2.822      5.802
REMARK  9 active torsions:
REMARK  status: ('A' for Active; 'I' for Inactive)
REMARK    1  A    between atoms: C_2  and  C_3 
REMARK    2  A    between atoms: C_7  and  C_8 
REMARK    3  A    between atoms: C_8  and  C_9 
REMARK       I    between atoms: C_9  and  N_10 
REMARK    4  A    between atoms: N_10  and  C_11 
REMARK    5  A    between atoms: C_11  and  C_12 
REMARK    6  A    between atoms: C_12  and  C_13 
REMARK    7  A    between atoms: C_21  and  C_22 
REMARK    8  A    between atoms: C_32  and  C_33 
REMARK    9  A    between atoms: C_33  and  O_34 
ROOT
HETATM    1  C   UNL     1      42.823 -14.153   3.341  1.00  0.00     0.051 C 
HETATM    2  N   UNL     1      43.844 -13.633   4.152  1.00  0.00    -0.228 NA
HETATM    3  C   UNL     1      44.250 -14.407   5.106  1.00  0.00     0.170 C 
HETATM    4  N   UNL     1      43.857 -15.922   5.177  1.00  0.00    -0.318 N 
HETATM    5  C   UNL     1      43.446 -16.170   6.382  1.00  0.00     0.011 C 
HETATM    6  C   UNL     1      43.729 -16.378   3.773  1.00  0.00     0.166 C 
HETATM    7  S   UNL     1      44.943 -13.889   6.592  1.00  0.00    -0.086 SA
HETATM    8  C   UNL     1      43.971 -15.196   7.436  1.00  0.00     0.135 C 
HETATM    9  C   UNL     1      42.664 -15.494   3.197  1.00  0.00     0.069 C 
ENDROOT
BRANCH   5  10
HETATM   10  C   UNL     1      42.312 -17.130   6.618  1.00  0.00     0.156 C 
BRANCH  10  11
HETATM   11  C   UNL     1      40.903 -16.578   6.579  1.00  0.00     0.222 C 
HETATM   12  N   UNL     1      40.838 -15.277   6.130  1.00  0.00    -0.361 N 
HETATM   13  H   UNL     1      41.707 -14.794   5.905  1.00  0.00     0.162 HD
HETATM   14  O   UNL     1      39.912 -17.210   6.937  1.00  0.00    -0.273 OA
BRANCH  12  15
HETATM   15  C   UNL     1      39.686 -14.423   6.369  1.00  0.00     0.124 C 
BRANCH  15  16
HETATM   16  C   UNL     1      39.458 -13.324   5.328  1.00  0.00     0.053 C 
BRANCH  16  17
HETATM   17  C   UNL     1      39.223 -11.923   5.879  1.00  0.00     0.189 C 
HETATM   18  N   UNL     1      40.293 -11.395   6.814  1.00  0.00    -0.071 N 
HETATM   19  H   UNL     1      40.101 -11.809   7.745  1.00  0.00     0.279 HD
HETATM   20  C   UNL     1      41.730 -11.675   6.461  1.00  0.00     0.270 C 
HETATM   21  C   UNL     1      40.044  -9.891   6.885  1.00  0.00     0.235 C 
HETATM   22  C   UNL     1      39.165  -9.564   5.682  1.00  0.00     0.030 C 
HETATM   23  C   UNL     1      39.130 -10.824   4.834  1.00  0.00     0.035 C 
ENDBRANCH  16  17
ENDBRANCH  15  16
ENDBRANCH  12  15
ENDBRANCH  10  11
ENDBRANCH   5  10
BRANCH   6  24
HETATM   24  C   UNL     1      43.838 -17.864   3.429  1.00  0.00    -0.024 C 
HETATM   25  C   UNL     1      43.826 -18.319   2.082  1.00  0.00    -0.053 C 
HETATM   26  C   UNL     1      43.756 -17.424   0.866  1.00  0.00     0.049 C 
HETATM   27  C   UNL     1      43.937 -19.696   1.798  1.00  0.00     0.014 C 
HETATM   28  C   UNL     1      44.152 -20.638   2.802  1.00  0.00    -0.061 C 
HETATM   29  C   UNL     1      44.343 -22.086   2.457  1.00  0.00     0.048 C 
HETATM   30  C   UNL     1      44.302 -20.186   4.107  1.00  0.00     0.007 C 
HETATM   31  C   UNL     1      44.166 -18.826   4.410  1.00  0.00     0.011 C 
ENDBRANCH   6  24
BRANCH   9  32
HETATM   32  C   UNL     1      41.361 -16.112   2.925  1.00  0.00     0.293 C 
HETATM   33  O   UNL     1      40.878 -16.882   3.743  1.00  0.00    -0.259 OA
BRANCH  32  34
HETATM   34  O   UNL     1      40.857 -15.744   1.736  1.00  0.00    -0.323 OA
HETATM   35  C   UNL     1      39.454 -15.461   1.758  1.00  0.00     0.213 C 
ENDBRANCH  32  34
ENDBRANCH   9  32
BRANCH   1  36
HETATM   36  C   UNL     1      41.842 -13.096   2.862  1.00  0.00     0.056 C 
HETATM   37  C   UNL     1      42.133 -12.639   1.438  1.00  0.00     0.011 C 
ENDBRANCH   1  36
TORSDOF 9
ENDMDL
MODEL 5
REMARK VINA RESULT:      -6.8      4.702      8.360
REMARK  9 active torsions:
REMARK  status: ('A' for Active; 'I' for Inactive)
REMARK    1  A    between atoms: C_2  and  C_3 
REMARK    2  A    between atoms: C_7  and  C_8 
REMARK    3  A    between atoms: C_8  and  C_9 
REMARK       I    between atoms: C_9  and  N_10 
REMARK    4  A    between atoms: N_10  and  C_11 
REMARK    5  A    between atoms: C_11  and  C_12 
REMARK    6  A    between atoms: C_12  and  C_13 
REMARK    7  A    between atoms: C_21  and  C_22 
REMARK    8  A    between atoms: C_32  and  C_33 
REMARK    9  A    between atoms: C_33  and  O_34 
ROOT
HETATM    1  C   UNL     1      40.745 -10.792  -2.551  1.00  0.00     0.051 C 
HETATM    2  N   UNL     1      39.436 -11.145  -2.917  1.00  0.00    -0.228 NA
HETATM    3  C   UNL     1      39.016 -12.281  -2.464  1.00  0.00     0.170 C 
HETATM    4  N   UNL     1      39.780 -13.070  -1.347  1.00  0.00    -0.318 N 
HETATM    5  C   UNL     1      39.894 -14.302  -1.738  1.00  0.00     0.011 C 
HETATM    6  C   UNL     1      40.414 -12.046  -0.484  1.00  0.00     0.166 C 
HETATM    7  S   UNL     1      37.821 -13.276  -3.201  1.00  0.00    -0.086 SA
HETATM    8  C   UNL     1      38.847 -14.733  -2.765  1.00  0.00     0.135 C 
HETATM    9  C   UNL     1      41.305 -11.283  -1.416  1.00  0.00     0.069 C 
ENDROOT
BRANCH   5  10
HETATM   10  C   UNL     1      41.138 -15.088  -1.430  1.00  0.00     0.156 C 
BRANCH  10  11
HETATM   11  C   UNL     1      41.221 -15.776  -0.085  1.00  0.00     0.222 C 
HETATM   12  N   UNL     1      42.421 -16.421   0.127  1.00  0.00    -0.361 N 
HETATM   13  H   UNL     1      43.115 -16.418  -0.620  1.00  0.00     0.162 HD
HETATM   14  O   UNL     1      40.305 -15.789   0.734  1.00  0.00    -0.273 OA
BRANCH  12  15
HETATM   15  C   UNL     1      42.588 -17.451   1.138  1.00  0.00     0.124 C 
BRANCH  15  16
HETATM   16  C   UNL     1      43.203 -16.978   2.458  1.00  0.00     0.053 C 
BRANCH  16  17
HETATM   17  C   UNL     1      44.001 -18.020   3.233  1.00  0.00     0.189 C 
HETATM   18  N   UNL     1      43.632 -18.180   4.693  1.00  0.00    -0.071 N 
HETATM   19  H   UNL     1      44.109 -17.414   5.204  1.00  0.00     0.279 HD
HETATM   20  C   UNL     1      42.170 -18.147   5.053  1.00  0.00     0.270 C 
HETATM   21  C   UNL     1      44.253 -19.510   5.112  1.00  0.00     0.235 C 
HETATM   22  C   UNL     1      44.554 -20.249   3.812  1.00  0.00     0.030 C 
HETATM   23  C   UNL     1      43.890 -19.441   2.709  1.00  0.00     0.035 C 
ENDBRANCH  16  17
ENDBRANCH  15  16
ENDBRANCH  12  15
ENDBRANCH  10  11
ENDBRANCH   5  10
BRANCH   6  24
HETATM   24  C   UNL     1      40.824 -12.390   0.949  1.00  0.00    -0.024 C 
HETATM   25  C   UNL     1      39.870 -12.453   2.001  1.00  0.00    -0.053 C 
HETATM   26  C   UNL     1      38.383 -12.245   1.835  1.00  0.00     0.049 C 
HETATM   27  C   UNL     1      40.280 -12.781   3.311  1.00  0.00     0.014 C 
HETATM   28  C   UNL     1      41.594 -13.140   3.601  1.00  0.00    -0.061 C 
HETATM   29  C   UNL     1      41.979 -13.558   4.990  1.00  0.00     0.048 C 
HETATM   30  C   UNL     1      42.503 -13.214   2.553  1.00  0.00     0.007 C 
HETATM   31  C   UNL     1      42.120 -12.864   1.252  1.00  0.00     0.011 C 
ENDBRANCH   6  24
BRANCH   9  32
HETATM   32  C   UNL     1      42.751 -11.489  -1.272  1.00  0.00     0.293 C 
HETATM   33  O   UNL     1      43.282 -12.443  -1.824  1.00  0.00    -0.259 OA
BRANCH  32  34
HETATM   34  O   UNL     1      43.326 -10.561  -0.490  1.00  0.00    -0.323 OA
HETATM   35  C   UNL     1      44.028  -9.543  -1.211  1.00  0.00     0.213 C 
ENDBRANCH  32  34
ENDBRANCH   9  32
BRANCH   1  36
HETATM   36  C   UNL     1      41.484 -10.026  -3.636  1.00  0.00     0.056 C 
HETATM   37  C   UNL     1      41.985 -10.937  -4.749  1.00  0.00     0.011 C 
ENDBRANCH   1  36
TORSDOF 9
ENDMDL
MODEL 6
REMARK VINA RESULT:      -6.8      3.120      5.254
REMARK  9 active torsions:
REMARK  status: ('A' for Active; 'I' for Inactive)
REMARK    1  A    between atoms: C_2  and  C_3 
REMARK    2  A    between atoms: C_7  and  C_8 
REMARK    3  A    between atoms: C_8  and  C_9 
REMARK       I    between atoms: C_9  and  N_10 
REMARK    4  A    between atoms: N_10  and  C_11 
REMARK    5  A    between atoms: C_11  and  C_12 
REMARK    6  A    between atoms: C_12  and  C_13 
REMARK    7  A    between atoms: C_21  and  C_22 
REMARK    8  A    between atoms: C_32  and  C_33 
REMARK    9  A    between atoms: C_33  and  O_34 
ROOT
HETATM    1  C   UNL     1      44.158 -18.914   2.595  1.00  0.00     0.051 C 
HETATM    2  N   UNL     1      43.468 -18.398   1.487  1.00  0.00    -0.228 NA
HETATM    3  C   UNL     1      42.507 -17.576   1.761  1.00  0.00     0.170 C 
HETATM    4  N   UNL     1      42.314 -16.960   3.189  1.00  0.00    -0.318 N 
HETATM    5  C   UNL     1      41.066 -17.099   3.515  1.00  0.00     0.011 C 
HETATM    6  C   UNL     1      43.673 -16.827   3.764  1.00  0.00     0.166 C 
HETATM    7  S   UNL     1      41.117 -17.297   0.786  1.00  0.00    -0.086 SA
HETATM    8  C   UNL     1      40.119 -17.244   2.325  1.00  0.00     0.135 C 
HETATM    9  C   UNL     1      44.209 -18.227   3.765  1.00  0.00     0.069 C 
ENDROOT
BRANCH   5  10
HETATM   10  C   UNL     1      40.679 -17.403   4.936  1.00  0.00     0.156 C 
BRANCH  10  11
HETATM   11  C   UNL     1      40.526 -16.238   5.889  1.00  0.00     0.222 C 
HETATM   12  N   UNL     1      39.865 -15.162   5.336  1.00  0.00    -0.361 N 
HETATM   13  H   UNL     1      39.576 -15.217   4.359  1.00  0.00     0.162 HD
HETATM   14  O   UNL     1      40.968 -16.229   7.036  1.00  0.00    -0.273 OA
BRANCH  12  15
HETATM   15  C   UNL     1      39.940 -13.824   5.898  1.00  0.00     0.124 C 
BRANCH  15  16
HETATM   16  C   UNL     1      40.195 -12.703   4.887  1.00  0.00     0.053 C 
BRANCH  16  17
HETATM   17  C   UNL     1      41.012 -11.521   5.394  1.00  0.00     0.189 C 
HETATM   18  N   UNL     1      40.580 -10.158   4.892  1.00  0.00    -0.071 N 
HETATM   19  H   UNL     1      40.987 -10.051   3.944  1.00  0.00     0.279 HD
HETATM   20  C   UNL     1      39.102  -9.881   4.805  1.00  0.00     0.270 C 
HETATM   21  C   UNL     1      41.255  -9.162   5.831  1.00  0.00     0.235 C 
HETATM   22  C   UNL     1      41.662  -9.968   7.060  1.00  0.00     0.030 C 
HETATM   23  C   UNL     1      41.008 -11.331   6.901  1.00  0.00     0.035 C 
ENDBRANCH  16  17
ENDBRANCH  15  16
ENDBRANCH  12  15
ENDBRANCH  10  11
ENDBRANCH   5  10
BRANCH   6  24
HETATM   24  C   UNL     1      43.936 -15.845   4.906  1.00  0.00    -0.024 C 
HETATM   25  C   UNL     1      43.783 -14.442   4.731  1.00  0.00    -0.053 C 
HETATM   26  C   UNL     1      43.313 -13.775   3.460  1.00  0.00     0.049 C 
HETATM   27  C   UNL     1      44.025 -13.563   5.808  1.00  0.00     0.014 C 
HETATM   28  C   UNL     1      44.328 -14.031   7.085  1.00  0.00    -0.061 C 
HETATM   29  C   UNL     1      44.503 -13.071   8.224  1.00  0.00     0.048 C 
HETATM   30  C   UNL     1      44.345 -15.405   7.295  1.00  0.00     0.007 C 
HETATM   31  C   UNL     1      44.135 -16.291   6.231  1.00  0.00     0.011 C 
ENDBRANCH   6  24
BRANCH   9  32
HETATM   32  C   UNL     1      44.333 -18.890   5.069  1.00  0.00     0.293 C 
HETATM   33  O   UNL     1      45.436 -18.995   5.589  1.00  0.00    -0.259 OA
BRANCH  32  34
HETATM   34  O   UNL     1      43.155 -19.339   5.530  1.00  0.00    -0.323 OA
HETATM   35  C   UNL     1      43.205 -19.842   6.869  1.00  0.00     0.213 C 
ENDBRANCH  32  34
ENDBRANCH   9  32
BRANCH   1  36
HETATM   36  C   UNL     1      44.615 -20.350   2.400  1.00  0.00     0.056 C 
HETATM   37  C   UNL     1      43.521 -21.231   1.810  1.00  0.00     0.011 C 
ENDBRANCH   1  36
TORSDOF 9
ENDMDL
MODEL 7
REMARK VINA RESULT:      -6.7      2.720      5.014
REMARK  9 active torsions:
REMARK  status: ('A' for Active; 'I' for Inactive)
REMARK    1  A    between atoms: C_2  and  C_3 
REMARK    2  A    between atoms: C_7  and  C_8 
REMARK    3  A    between atoms: C_8  and  C_9 
REMARK       I    between atoms: C_9  and  N_10 
REMARK    4  A    between atoms: N_10  and  C_11 
REMARK    5  A    between atoms: C_11  and  C_12 
REMARK    6  A    between atoms: C_12  and  C_13 
REMARK    7  A    between atoms: C_21  and  C_22 
REMARK    8  A    between atoms: C_32  and  C_33 
REMARK    9  A    between atoms: C_33  and  O_34 
ROOT
HETATM    1  C   UNL     1      43.333 -18.797   2.351  1.00  0.00     0.051 C 
HETATM    2  N   UNL     1      43.121 -18.122   1.138  1.00  0.00    -0.228 NA
HETATM    3  C   UNL     1      42.501 -16.991   1.229  1.00  0.00     0.170 C 
HETATM    4  N   UNL     1      42.268 -16.273   2.602  1.00  0.00    -0.318 N 
HETATM    5  C   UNL     1      41.020 -15.924   2.661  1.00  0.00     0.011 C 
HETATM    6  C   UNL     1      43.435 -16.619   3.447  1.00  0.00     0.166 C 
HETATM    7  S   UNL     1      41.539 -16.271  -0.003  1.00  0.00    -0.086 SA
HETATM    8  C   UNL     1      40.346 -15.773   1.299  1.00  0.00     0.135 C 
HETATM    9  C   UNL     1      43.400 -18.116   3.523  1.00  0.00     0.069 C 
ENDROOT
BRANCH   5  10
HETATM   10  C   UNL     1      40.271 -15.989   3.964  1.00  0.00     0.156 C 
BRANCH  10  11
HETATM   11  C   UNL     1      40.345 -14.786   4.879  1.00  0.00     0.222 C 
HETATM   12  N   UNL     1      40.087 -13.593   4.236  1.00  0.00    -0.361 N 
HETATM   13  H   UNL     1      39.911 -13.609   3.232  1.00  0.00     0.162 HD
HETATM   14  O   UNL     1      40.633 -14.850   6.072  1.00  0.00    -0.273 OA
BRANCH  12  15
HETATM   15  C   UNL     1      40.472 -12.306   4.790  1.00  0.00     0.124 C 
BRANCH  15  16
HETATM   16  C   UNL     1      39.485 -11.702   5.791  1.00  0.00     0.053 C 
BRANCH  16  17
HETATM   17  C   UNL     1      40.086 -10.782   6.847  1.00  0.00     0.189 C 
HETATM   18  N   UNL     1      39.414 -10.810   8.205  1.00  0.00    -0.071 N 
HETATM   19  H   UNL     1      38.576 -10.204   8.132  1.00  0.00     0.279 HD
HETATM   20  C   UNL     1      38.981 -12.149   8.743  1.00  0.00     0.270 C 
HETATM   21  C   UNL     1      40.414 -10.153   9.152  1.00  0.00     0.235 C 
HETATM   22  C   UNL     1      41.752 -10.184   8.421  1.00  0.00     0.030 C 
HETATM   23  C   UNL     1      41.539 -11.057   7.195  1.00  0.00     0.035 C 
ENDBRANCH  16  17
ENDBRANCH  15  16
ENDBRANCH  12  15
ENDBRANCH  10  11
ENDBRANCH   5  10
BRANCH   6  24
HETATM   24  C   UNL     1      43.809 -15.744   4.644  1.00  0.00    -0.024 C 
HETATM   25  C   UNL     1      43.858 -14.326   4.543  1.00  0.00    -0.053 C 
HETATM   26  C   UNL     1      43.514 -13.535   3.303  1.00  0.00     0.049 C 
HETATM   27  C   UNL     1      44.199 -13.547   5.668  1.00  0.00     0.014 C 
HETATM   28  C   UNL     1      44.406 -14.118   6.922  1.00  0.00    -0.061 C 
HETATM   29  C   UNL     1      44.690 -13.252   8.114  1.00  0.00     0.048 C 
HETATM   30  C   UNL     1      44.225 -15.489   7.059  1.00  0.00     0.007 C 
HETATM   31  C   UNL     1      43.914 -16.281   5.946  1.00  0.00     0.011 C 
ENDBRANCH   6  24
BRANCH   9  32
HETATM   32  C   UNL     1      43.006 -18.708   4.807  1.00  0.00     0.293 C 
HETATM   33  O   UNL     1      41.848 -18.604   5.188  1.00  0.00    -0.259 OA
BRANCH  32  34
HETATM   34  O   UNL     1      44.034 -19.300   5.436  1.00  0.00    -0.323 OA
HETATM   35  C   UNL     1      43.662 -20.012   6.621  1.00  0.00     0.213 C 
ENDBRANCH  32  34
ENDBRANCH   9  32
BRANCH   1  36
HETATM   36  C   UNL     1      43.253 -20.309   2.217  1.00  0.00     0.056 C 
HETATM   37  C   UNL     1      44.607 -20.979   2.408  1.00  0.00     0.011 C 
ENDBRANCH   1  36
TORSDOF 9
ENDMDL
MODEL 8
REMARK VINA RESULT:      -6.7      1.889      2.622
REMARK  9 active torsions:
REMARK  status: ('A' for Active; 'I' for Inactive)
REMARK    1  A    between atoms: C_2  and  C_3 
REMARK    2  A    between atoms: C_7  and  C_8 
REMARK    3  A    between atoms: C_8  and  C_9 
REMARK       I    between atoms: C_9  and  N_10 
REMARK    4  A    between atoms: N_10  and  C_11 
REMARK    5  A    between atoms: C_11  and  C_12 
REMARK    6  A    between atoms: C_12  and  C_13 
REMARK    7  A    between atoms: C_21  and  C_22 
REMARK    8  A    between atoms: C_32  and  C_33 
REMARK    9  A    between atoms: C_33  and  O_34 
ROOT
HETATM    1  C   UNL     1      41.654 -16.063   1.778  1.00  0.00     0.051 C 
HETATM    2  N   UNL     1      41.267 -16.981   2.767  1.00  0.00    -0.228 NA
HETATM    3  C   UNL     1      40.946 -16.469   3.910  1.00  0.00     0.170 C 
HETATM    4  N   UNL     1      40.709 -14.932   4.102  1.00  0.00    -0.318 N 
HETATM    5  C   UNL     1      41.378 -14.555   5.148  1.00  0.00     0.011 C 
HETATM    6  C   UNL     1      40.156 -14.441   2.818  1.00  0.00     0.166 C 
HETATM    7  S   UNL     1      41.070 -17.259   5.434  1.00  0.00    -0.086 SA
HETATM    8  C   UNL     1      41.676 -15.678   6.140  1.00  0.00     0.135 C 
HETATM    9  C   UNL     1      41.213 -14.779   1.810  1.00  0.00     0.069 C 
ENDROOT
BRANCH   5  10
HETATM   10  C   UNL     1      42.048 -13.209   5.179  1.00  0.00     0.156 C 
BRANCH  10  11
HETATM   11  C   UNL     1      42.651 -12.753   6.490  1.00  0.00     0.222 C 
HETATM   12  N   UNL     1      41.904 -11.785   7.127  1.00  0.00    -0.361 N 
HETATM   13  H   UNL     1      41.061 -11.438   6.669  1.00  0.00     0.162 HD
HETATM   14  O   UNL     1      43.713 -13.176   6.938  1.00  0.00    -0.273 OA
BRANCH  12  15
HETATM   15  C   UNL     1      42.453 -10.931   8.167  1.00  0.00     0.124 C 
BRANCH  15  16
HETATM   16  C   UNL     1      41.513 -10.639   9.339  1.00  0.00     0.053 C 
BRANCH  16  17
HETATM   17  C   UNL     1      42.151  -9.983  10.558  1.00  0.00     0.189 C 
HETATM   18  N   UNL     1      41.317  -9.993  11.823  1.00  0.00    -0.071 N 
HETATM   19  H   UNL     1      40.642  -9.210  11.737  1.00  0.00     0.279 HD
HETATM   20  C   UNL     1      40.546 -11.247  12.143  1.00  0.00     0.270 C 
HETATM   21  C   UNL     1      42.301  -9.671  12.944  1.00  0.00     0.235 C 
HETATM   22  C   UNL     1      43.686  -9.929  12.360  1.00  0.00     0.030 C 
HETATM   23  C   UNL     1      43.456 -10.609  11.021  1.00  0.00     0.035 C 
ENDBRANCH  16  17
ENDBRANCH  15  16
ENDBRANCH  12  15
ENDBRANCH  10  11
ENDBRANCH   5  10
BRANCH   6  24
HETATM   24  C   UNL     1      39.361 -13.135   2.768  1.00  0.00    -0.024 C 
HETATM   25  C   UNL     1      38.417 -12.878   1.736  1.00  0.00    -0.053 C 
HETATM   26  C   UNL     1      38.060 -13.843   0.629  1.00  0.00     0.049 C 
HETATM   27  C   UNL     1      37.693 -11.667   1.724  1.00  0.00     0.014 C 
HETATM   28  C   UNL     1      37.803 -10.735   2.753  1.00  0.00    -0.061 C 
HETATM   29  C   UNL     1      36.960  -9.493   2.747  1.00  0.00     0.048 C 
HETATM   30  C   UNL     1      38.620 -11.041   3.834  1.00  0.00     0.007 C 
HETATM   31  C   UNL     1      39.368 -12.226   3.848  1.00  0.00     0.011 C 
ENDBRANCH   6  24
BRANCH   9  32
HETATM   32  C   UNL     1      41.987 -13.661   1.258  1.00  0.00     0.293 C 
HETATM   33  O   UNL     1      42.833 -13.113   1.952  1.00  0.00    -0.259 OA
BRANCH  32  34
HETATM   34  O   UNL     1      41.627 -13.360   0.000  1.00  0.00    -0.323 OA
HETATM   35  C   UNL     1      42.227 -12.165  -0.510  1.00  0.00     0.213 C 
ENDBRANCH  32  34
ENDBRANCH   9  32
BRANCH   1  36
HETATM   36  C   UNL     1      42.741 -16.594   0.859  1.00  0.00     0.056 C 
HETATM   37  C   UNL     1      43.952 -17.103   1.628  1.00  0.00     0.011 C 
ENDBRANCH   1  36
TORSDOF 9
ENDMDL
MODEL 9
REMARK VINA RESULT:      -6.6      3.460      6.048
REMARK  9 active torsions:
REMARK  status: ('A' for Active; 'I' for Inactive)
REMARK    1  A    between atoms: C_2  and  C_3 
REMARK    2  A    between atoms: C_7  and  C_8 
REMARK    3  A    between atoms: C_8  and  C_9 
REMARK       I    between atoms: C_9  and  N_10 
REMARK    4  A    between atoms: N_10  and  C_11 
REMARK    5  A    between atoms: C_11  and  C_12 
REMARK    6  A    between atoms: C_12  and  C_13 
REMARK    7  A    between atoms: C_21  and  C_22 
REMARK    8  A    between atoms: C_32  and  C_33 
REMARK    9  A    between atoms: C_33  and  O_34 
ROOT
HETATM    1  C   UNL     1      43.939 -18.755   2.212  1.00  0.00     0.051 C 
HETATM    2  N   UNL     1      43.452 -18.066   1.090  1.00  0.00    -0.228 NA
HETATM    3  C   UNL     1      42.593 -17.132   1.338  1.00  0.00     0.170 C 
HETATM    4  N   UNL     1      42.334 -16.596   2.787  1.00  0.00    -0.318 N 
HETATM    5  C   UNL     1      41.051 -16.570   2.978  1.00  0.00     0.011 C 
HETATM    6  C   UNL     1      43.628 -16.706   3.500  1.00  0.00     0.166 C 
HETATM    7  S   UNL     1      41.369 -16.583   0.260  1.00  0.00    -0.086 SA
HETATM    8  C   UNL     1      40.228 -16.490   1.693  1.00  0.00     0.135 C 
HETATM    9  C   UNL     1      43.959 -18.166   3.435  1.00  0.00     0.069 C 
ENDROOT
BRANCH   5  10
HETATM   10  C   UNL     1      40.474 -16.912   4.324  1.00  0.00     0.156 C 
BRANCH  10  11
HETATM   11  C   UNL     1      40.408 -15.812   5.361  1.00  0.00     0.222 C 
HETATM   12  N   UNL     1      39.857 -14.642   4.883  1.00  0.00    -0.361 N 
HETATM   13  H   UNL     1      39.584 -14.596   3.901  1.00  0.00     0.162 HD
HETATM   14  O   UNL     1      40.825 -15.930   6.511  1.00  0.00    -0.273 OA
BRANCH  12  15
HETATM   15  C   UNL     1      40.041 -13.363   5.546  1.00  0.00     0.124 C 
BRANCH  15  16
HETATM   16  C   UNL     1      39.924 -12.133   4.642  1.00  0.00     0.053 C 
BRANCH  16  17
HETATM   17  C   UNL     1      39.134 -12.327   3.353  1.00  0.00     0.189 C 
HETATM   18  N   UNL     1      38.024 -11.325   3.104  1.00  0.00    -0.071 N 
HETATM   19  H   UNL     1      37.211 -11.640   3.667  1.00  0.00     0.279 HD
HETATM   20  C   UNL     1      38.297  -9.882   3.438  1.00  0.00     0.270 C 
HETATM   21  C   UNL     1      37.684 -11.476   1.625  1.00  0.00     0.235 C 
HETATM   22  C   UNL     1      38.872 -12.202   1.003  1.00  0.00     0.030 C 
HETATM   23  C   UNL     1      39.949 -12.236   2.074  1.00  0.00     0.035 C 
ENDBRANCH  16  17
ENDBRANCH  15  16
ENDBRANCH  12  15
ENDBRANCH  10  11
ENDBRANCH   5  10
BRANCH   6  24
HETATM   24  C   UNL     1      43.901 -15.855   4.742  1.00  0.00    -0.024 C 
HETATM   25  C   UNL     1      43.742 -14.442   4.725  1.00  0.00    -0.053 C 
HETATM   26  C   UNL     1      43.256 -13.640   3.541  1.00  0.00     0.049 C 
HETATM   27  C   UNL     1      43.994 -13.688   5.890  1.00  0.00     0.014 C 
HETATM   28  C   UNL     1      44.312 -14.293   7.103  1.00  0.00    -0.061 C 
HETATM   29  C   UNL     1      44.497 -13.465   8.341  1.00  0.00     0.048 C 
HETATM   30  C   UNL     1      44.335 -15.681   7.160  1.00  0.00     0.007 C 
HETATM   31  C   UNL     1      44.116 -16.445   6.007  1.00  0.00     0.011 C 
ENDBRANCH   6  24
BRANCH   9  32
HETATM   32  C   UNL     1      43.848 -18.930   4.684  1.00  0.00     0.293 C 
HETATM   33  O   UNL     1      42.787 -18.935   5.294  1.00  0.00    -0.259 OA
BRANCH  32  34
HETATM   34  O   UNL     1      44.998 -19.536   5.018  1.00  0.00    -0.323 OA
HETATM   35  C   UNL     1      44.846 -20.907   5.401  1.00  0.00     0.213 C 
ENDBRANCH  32  34
ENDBRANCH   9  32
BRANCH   1  36
HETATM   36  C   UNL     1      44.208 -20.226   1.941  1.00  0.00     0.056 C 
HETATM   37  C   UNL     1      42.925 -21.034   1.804  1.00  0.00     0.011 C 
ENDBRANCH   1  36
TORSDOF 9
ENDMDL
MODEL 10
REMARK VINA RESULT:      -6.4      3.009      4.739
REMARK  9 active torsions:
REMARK  status: ('A' for Active; 'I' for Inactive)
REMARK    1  A    between atoms: C_2  and  C_3 
REMARK    2  A    between atoms: C_7  and  C_8 
REMARK    3  A    between atoms: C_8  and  C_9 
REMARK       I    between atoms: C_9  and  N_10 
REMARK    4  A    between atoms: N_10  and  C_11 
REMARK    5  A    between atoms: C_11  and  C_12 
REMARK    6  A    between atoms: C_12  and  C_13 
REMARK    7  A    between atoms: C_21  and  C_22 
REMARK    8  A    between atoms: C_32  and  C_33 
REMARK    9  A    between atoms: C_33  and  O_34 
ROOT
HETATM    1  C   UNL     1      41.905 -15.948   1.981  1.00  0.00     0.051 C 
HETATM    2  N   UNL     1      41.326 -16.941   2.789  1.00  0.00    -0.228 NA
HETATM    3  C   UNL     1      40.655 -16.510   3.807  1.00  0.00     0.170 C 
HETATM    4  N   UNL     1      40.254 -15.005   3.970  1.00  0.00    -0.318 N 
HETATM    5  C   UNL     1      40.568 -14.639   5.175  1.00  0.00     0.011 C 
HETATM    6  C   UNL     1      40.052 -14.485   2.598  1.00  0.00     0.166 C 
HETATM    7  S   UNL     1      40.403 -17.368   5.277  1.00  0.00    -0.086 SA
HETATM    8  C   UNL     1      40.659 -15.790   6.176  1.00  0.00     0.135 C 
HETATM    9  C   UNL     1      41.374 -14.700   1.926  1.00  0.00     0.069 C 
ENDROOT
BRANCH   5  10
HETATM   10  C   UNL     1      41.095 -13.255   5.439  1.00  0.00     0.156 C 
BRANCH  10  11
HETATM   11  C   UNL     1      42.481 -13.132   6.034  1.00  0.00     0.222 C 
HETATM   12  N   UNL     1      43.400 -13.986   5.461  1.00  0.00    -0.361 N 
HETATM   13  H   UNL     1      43.081 -14.633   4.741  1.00  0.00     0.162 HD
HETATM   14  O   UNL     1      42.765 -12.369   6.954  1.00  0.00    -0.273 OA
BRANCH  12  15
HETATM   15  C   UNL     1      44.657 -14.327   6.105  1.00  0.00     0.124 C 
BRANCH  15  16
HETATM   16  C   UNL     1      44.615 -15.558   7.013  1.00  0.00     0.053 C 
BRANCH  16  17
HETATM   17  C   UNL     1      44.869 -16.898   6.333  1.00  0.00     0.189 C 
HETATM   18  N   UNL     1      44.688 -18.124   7.205  1.00  0.00    -0.071 N 
HETATM   19  H   UNL     1      45.559 -18.223   7.759  1.00  0.00     0.279 HD
HETATM   20  C   UNL     1      43.521 -18.138   8.157  1.00  0.00     0.270 C 
HETATM   21  C   UNL     1      44.592 -19.291   6.227  1.00  0.00     0.235 C 
HETATM   22  C   UNL     1      44.277 -18.665   4.872  1.00  0.00     0.030 C 
HETATM   23  C   UNL     1      43.968 -17.203   5.148  1.00  0.00     0.035 C 
ENDBRANCH  16  17
ENDBRANCH  15  16
ENDBRANCH  12  15
ENDBRANCH  10  11
ENDBRANCH   5  10
BRANCH   6  24
HETATM   24  C   UNL     1      39.204 -13.233   2.363  1.00  0.00    -0.024 C 
HETATM   25  C   UNL     1      38.268 -13.159   1.294  1.00  0.00    -0.053 C 
HETATM   26  C   UNL     1      37.971 -14.279   0.325  1.00  0.00     0.049 C 
HETATM   27  C   UNL     1      37.495 -11.993   1.110  1.00  0.00     0.014 C 
HETATM   28  C   UNL     1      37.549 -10.926   2.004  1.00  0.00    -0.061 C 
HETATM   29  C   UNL     1      36.656  -9.735   1.821  1.00  0.00     0.048 C 
HETATM   30  C   UNL     1      38.360 -11.049   3.126  1.00  0.00     0.007 C 
HETATM   31  C   UNL     1      39.155 -12.187   3.310  1.00  0.00     0.011 C 
ENDBRANCH   6  24
BRANCH   9  32
HETATM   32  C   UNL     1      42.184 -13.507   1.653  1.00  0.00     0.293 C 
HETATM   33  O   UNL     1      43.016 -13.143   2.473  1.00  0.00    -0.259 OA
BRANCH  32  34
HETATM   34  O   UNL     1      41.868 -12.929   0.483  1.00  0.00    -0.323 OA
HETATM   35  C   UNL     1      41.617 -13.857  -0.578  1.00  0.00     0.213 C 
ENDBRANCH  32  34
ENDBRANCH   9  32
BRANCH   1  36
HETATM   36  C   UNL     1      43.246 -16.359   1.396  1.00  0.00     0.056 C 
HETATM   37  C   UNL     1      43.413 -17.872   1.339  1.00  0.00     0.011 C 
ENDBRANCH   1  36
TORSDOF 9
ENDMDL
