MODEL 1
REMARK VINA RESULT:      -8.6      0.000      0.000
REMARK  5 active torsions:
REMARK  status: ('A' for Active; 'I' for Inactive)
REMARK    1  A    between atoms: C_2  and  O_3 
REMARK    2  A    between atoms: O_3  and  C_4 
REMARK    3  A    between atoms: C_7  and  C_8 
REMARK       I    between atoms: C_8  and  N_9 
REMARK    4  A    between atoms: N_9  and  N_10 
REMARK    5  A    between atoms: C_11  and  C_12 
ROOT
HETATM    1  C   UNL     1      45.098 -13.362   7.714  1.00  0.00     0.271 C 
HETATM    2  N   UNL     1      44.245 -14.450   7.572  1.00  0.00    -0.243 N 
HETATM    3  O   UNL     1      46.139 -13.180   7.089  1.00  0.00    -0.266 OA
HETATM    4  H   UNL     1      43.291 -14.367   7.905  1.00  0.00     0.192 HD
ENDROOT
BRANCH   2   5
HETATM    5  N   UNL     1      44.417 -15.514   6.718  1.00  0.00    -0.183 NA
HETATM    6  C   UNL     1      43.406 -16.280   6.456  1.00  0.00     0.153 C 
BRANCH   6   7
HETATM    7  C   UNL     1      43.566 -17.431   5.581  1.00  0.00     0.018 A 
HETATM    8  C   UNL     1      43.593 -17.388   4.146  1.00  0.00     0.004 A 
HETATM    9  C   UNL     1      43.770 -18.692   3.689  1.00  0.00     0.043 A 
HETATM   10  C   UNL     1      43.476 -16.354   3.190  1.00  0.00     0.014 A 
HETATM   11  C   UNL     1      43.841 -19.019   2.329  1.00  0.00     0.030 A 
HETATM   12  N   UNL     1      43.846 -19.500   4.797  1.00  0.00    -0.358 N 
HETATM   13  C   UNL     1      43.723 -17.976   1.405  1.00  0.00     0.002 A 
HETATM   14  C   UNL     1      43.542 -16.662   1.827  1.00  0.00     0.001 A 
HETATM   15  H   UNL     1      43.972 -20.501   4.761  1.00  0.00     0.166 HD
HETATM   16  C   UNL     1      43.727 -18.761   5.949  1.00  0.00     0.018 A 
HETATM   17  C   UNL     1      43.787 -19.408   7.286  1.00  0.00     0.069 C 
ENDBRANCH   6   7
ENDBRANCH   2   5
BRANCH   1  18
HETATM   18  C   UNL     1      44.669 -12.326   8.701  1.00  0.00     0.033 A 
HETATM   19  C   UNL     1      43.466 -11.620   8.583  1.00  0.00     0.020 A 
HETATM   20  C   UNL     1      43.101 -10.694   9.565  1.00  0.00     0.038 A 
HETATM   21  C   UNL     1      43.910 -10.478  10.684  1.00  0.00     0.068 A 
HETATM   22  C   UNL     1      45.112 -11.176  10.801  1.00  0.00     0.038 A 
HETATM   23  C   UNL     1      45.486 -12.097   9.817  1.00  0.00     0.020 A 
BRANCH  21  24
HETATM   24  O   UNL     1      43.424  -9.568  11.579  1.00  0.00    -0.352 OA
BRANCH  24  25
HETATM   25  C   UNL     1      42.850 -10.096  12.776  1.00  0.00     0.171 C 
HETATM   26  C   UNL     1      43.278  -9.211  13.932  1.00  0.00     0.034 C 
ENDBRANCH  24  25
ENDBRANCH  21  24
ENDBRANCH   1  18
TORSDOF 5
ENDMDL
MODEL 2
REMARK VINA RESULT:      -8.1      6.478     11.064
REMARK  5 active torsions:
REMARK  status: ('A' for Active; 'I' for Inactive)
REMARK    1  A    between atoms: C_2  and  O_3 
REMARK    2  A    between atoms: O_3  and  C_4 
REMARK    3  A    between atoms: C_7  and  C_8 
REMARK       I    between atoms: C_8  and  N_9 
REMARK    4  A    between atoms: N_9  and  N_10 
REMARK    5  A    between atoms: C_11  and  C_12 
ROOT
HETATM    1  C   UNL     1      40.946 -15.283  -1.202  1.00  0.00     0.271 C 
HETATM    2  N   UNL     1      40.995 -16.446  -0.443  1.00  0.00    -0.243 N 
HETATM    3  O   UNL     1      41.735 -14.345  -1.130  1.00  0.00    -0.266 OA
HETATM    4  H   UNL     1      40.493 -17.263  -0.772  1.00  0.00     0.192 HD
ENDROOT
BRANCH   2   5
HETATM    5  N   UNL     1      41.926 -16.750   0.522  1.00  0.00    -0.183 NA
HETATM    6  C   UNL     1      41.641 -17.648   1.410  1.00  0.00     0.153 C 
BRANCH   6   7
HETATM    7  C   UNL     1      42.594 -17.967   2.462  1.00  0.00     0.018 A 
HETATM    8  C   UNL     1      43.286 -19.216   2.606  1.00  0.00     0.004 A 
HETATM    9  C   UNL     1      44.107 -19.116   3.728  1.00  0.00     0.043 A 
HETATM   10  C   UNL     1      43.284 -20.431   1.886  1.00  0.00     0.014 A 
HETATM   11  C   UNL     1      44.929 -20.162   4.165  1.00  0.00     0.030 A 
HETATM   12  N   UNL     1      43.923 -17.859   4.250  1.00  0.00    -0.358 N 
HETATM   13  C   UNL     1      44.909 -21.352   3.433  1.00  0.00     0.002 A 
HETATM   14  C   UNL     1      44.098 -21.488   2.309  1.00  0.00     0.001 A 
HETATM   15  H   UNL     1      44.395 -17.511   5.072  1.00  0.00     0.166 HD
HETATM   16  C   UNL     1      43.016 -17.148   3.501  1.00  0.00     0.018 A 
HETATM   17  C   UNL     1      42.653 -15.751   3.859  1.00  0.00     0.069 C 
ENDBRANCH   6   7
ENDBRANCH   2   5
BRANCH   1  18
HETATM   18  C   UNL     1      39.840 -15.209  -2.204  1.00  0.00     0.033 A 
HETATM   19  C   UNL     1      38.790 -14.288  -2.105  1.00  0.00     0.020 A 
HETATM   20  C   UNL     1      37.808 -14.240  -3.100  1.00  0.00     0.038 A 
HETATM   21  C   UNL     1      37.872 -15.085  -4.212  1.00  0.00     0.068 A 
HETATM   22  C   UNL     1      38.913 -16.007  -4.309  1.00  0.00     0.038 A 
HETATM   23  C   UNL     1      39.893 -16.065  -3.313  1.00  0.00     0.020 A 
BRANCH  21  24
HETATM   24  O   UNL     1      36.866 -14.916  -5.121  1.00  0.00    -0.352 OA
BRANCH  24  25
HETATM   25  C   UNL     1      35.773 -14.091  -4.717  1.00  0.00     0.171 C 
HETATM   26  C   UNL     1      35.487 -13.108  -5.837  1.00  0.00     0.034 C 
ENDBRANCH  24  25
ENDBRANCH  21  24
ENDBRANCH   1  18
TORSDOF 5
ENDMDL
MODEL 3
REMARK VINA RESULT:      -8.1      5.934      9.631
REMARK  5 active torsions:
REMARK  status: ('A' for Active; 'I' for Inactive)
REMARK    1  A    between atoms: C_2  and  O_3 
REMARK    2  A    between atoms: O_3  and  C_4 
REMARK    3  A    between atoms: C_7  and  C_8 
REMARK       I    between atoms: C_8  and  N_9 
REMARK    4  A    between atoms: N_9  and  N_10 
REMARK    5  A    between atoms: C_11  and  C_12 
ROOT
HETATM    1  C   UNL     1      41.399 -16.035   0.403  1.00  0.00     0.271 C 
HETATM    2  N   UNL     1      42.518 -16.855   0.487  1.00  0.00    -0.243 N 
HETATM    3  O   UNL     1      40.470 -16.007   1.205  1.00  0.00    -0.266 OA
HETATM    4  H   UNL     1      43.346 -16.603  -0.044  1.00  0.00     0.192 HD
ENDROOT
BRANCH   2   5
HETATM    5  N   UNL     1      42.781 -17.778   1.471  1.00  0.00    -0.183 NA
HETATM    6  C   UNL     1      43.619 -17.476   2.410  1.00  0.00     0.153 C 
BRANCH   6   7
HETATM    7  C   UNL     1      43.940 -18.445   3.446  1.00  0.00     0.018 A 
HETATM    8  C   UNL     1      44.172 -19.846   3.232  1.00  0.00     0.004 A 
HETATM    9  C   UNL     1      44.454 -20.420   4.469  1.00  0.00     0.043 A 
HETATM   10  C   UNL     1      44.158 -20.683   2.093  1.00  0.00     0.014 A 
HETATM   11  C   UNL     1      44.730 -21.784   4.630  1.00  0.00     0.030 A 
HETATM   12  N   UNL     1      44.397 -19.414   5.402  1.00  0.00    -0.358 N 
HETATM   13  C   UNL     1      44.712 -22.588   3.487  1.00  0.00     0.002 A 
HETATM   14  C   UNL     1      44.430 -22.048   2.235  1.00  0.00     0.001 A 
HETATM   15  H   UNL     1      44.560 -19.546   6.390  1.00  0.00     0.166 HD
HETATM   16  C   UNL     1      44.091 -18.214   4.807  1.00  0.00     0.018 A 
HETATM   17  C   UNL     1      43.979 -16.967   5.608  1.00  0.00     0.069 C 
ENDBRANCH   6   7
ENDBRANCH   2   5
BRANCH   1  18
HETATM   18  C   UNL     1      41.365 -15.099  -0.761  1.00  0.00     0.033 A 
HETATM   19  C   UNL     1      41.771 -13.763  -0.669  1.00  0.00     0.020 A 
HETATM   20  C   UNL     1      41.757 -12.950  -1.806  1.00  0.00     0.038 A 
HETATM   21  C   UNL     1      41.366 -13.459  -3.047  1.00  0.00     0.068 A 
HETATM   22  C   UNL     1      40.955 -14.788  -3.140  1.00  0.00     0.038 A 
HETATM   23  C   UNL     1      40.959 -15.604  -2.004  1.00  0.00     0.020 A 
BRANCH  21  24
HETATM   24  O   UNL     1      41.424 -12.567  -4.080  1.00  0.00    -0.352 OA
BRANCH  24  25
HETATM   25  C   UNL     1      42.413 -11.541  -3.981  1.00  0.00     0.171 C 
HETATM   26  C   UNL     1      42.196 -10.568  -5.127  1.00  0.00     0.034 C 
ENDBRANCH  24  25
ENDBRANCH  21  24
ENDBRANCH   1  18
TORSDOF 5
ENDMDL
MODEL 4
REMARK VINA RESULT:      -8.1      1.169      2.619
REMARK  5 active torsions:
REMARK  status: ('A' for Active; 'I' for Inactive)
REMARK    1  A    between atoms: C_2  and  O_3 
REMARK    2  A    between atoms: O_3  and  C_4 
REMARK    3  A    between atoms: C_7  and  C_8 
REMARK       I    between atoms: C_8  and  N_9 
REMARK    4  A    between atoms: N_9  and  N_10 
REMARK    5  A    between atoms: C_11  and  C_12 
ROOT
HETATM    1  C   UNL     1      45.034 -12.852   8.088  1.00  0.00     0.271 C 
HETATM    2  N   UNL     1      44.074 -13.694   7.540  1.00  0.00    -0.243 N 
HETATM    3  O   UNL     1      46.213 -12.794   7.752  1.00  0.00    -0.266 OA
HETATM    4  H   UNL     1      43.094 -13.467   7.673  1.00  0.00     0.192 HD
ENDROOT
BRANCH   2   5
HETATM    5  N   UNL     1      44.273 -14.611   6.535  1.00  0.00    -0.183 NA
HETATM    6  C   UNL     1      43.244 -15.132   5.946  1.00  0.00     0.153 C 
BRANCH   6   7
HETATM    7  C   UNL     1      43.425 -16.128   4.902  1.00  0.00     0.018 A 
HETATM    8  C   UNL     1      43.784 -17.502   5.116  1.00  0.00     0.004 A 
HETATM    9  C   UNL     1      43.848 -18.120   3.869  1.00  0.00     0.043 A 
HETATM   10  C   UNL     1      44.069 -18.277   6.262  1.00  0.00     0.014 A 
HETATM   11  C   UNL     1      44.175 -19.472   3.705  1.00  0.00     0.030 A 
HETATM   12  N   UNL     1      43.542 -17.164   2.931  1.00  0.00    -0.358 N 
HETATM   13  C   UNL     1      44.452 -20.216   4.856  1.00  0.00     0.002 A 
HETATM   14  C   UNL     1      44.401 -19.629   6.117  1.00  0.00     0.001 A 
HETATM   15  H   UNL     1      43.514 -17.336   1.935  1.00  0.00     0.166 HD
HETATM   16  C   UNL     1      43.282 -15.957   3.531  1.00  0.00     0.018 A 
HETATM   17  C   UNL     1      42.917 -14.762   2.725  1.00  0.00     0.069 C 
ENDBRANCH   6   7
ENDBRANCH   2   5
BRANCH   1  18
HETATM   18  C   UNL     1      44.551 -11.928   9.159  1.00  0.00     0.033 A 
HETATM   19  C   UNL     1      45.309 -11.628  10.297  1.00  0.00     0.020 A 
HETATM   20  C   UNL     1      44.819 -10.721  11.242  1.00  0.00     0.038 A 
HETATM   21  C   UNL     1      43.588 -10.087  11.056  1.00  0.00     0.068 A 
HETATM   22  C   UNL     1      42.828 -10.390   9.928  1.00  0.00     0.038 A 
HETATM   23  C   UNL     1      43.309 -11.302   8.983  1.00  0.00     0.020 A 
BRANCH  21  24
HETATM   24  O   UNL     1      43.240  -9.205  12.040  1.00  0.00    -0.352 OA
BRANCH  24  25
HETATM   25  C   UNL     1      43.377  -9.665  13.386  1.00  0.00     0.171 C 
HETATM   26  C   UNL     1      42.177 -10.536  13.709  1.00  0.00     0.034 C 
ENDBRANCH  24  25
ENDBRANCH  21  24
ENDBRANCH   1  18
TORSDOF 5
ENDMDL
MODEL 5
REMARK VINA RESULT:      -8.0      5.658      7.862
REMARK  5 active torsions:
REMARK  status: ('A' for Active; 'I' for Inactive)
REMARK    1  A    between atoms: C_2  and  O_3 
REMARK    2  A    between atoms: O_3  and  C_4 
REMARK    3  A    between atoms: C_7  and  C_8 
REMARK       I    between atoms: C_8  and  N_9 
REMARK    4  A    between atoms: N_9  and  N_10 
REMARK    5  A    between atoms: C_11  and  C_12 
ROOT
HETATM    1  C   UNL     1      40.123 -15.545   2.086  1.00  0.00     0.271 C 
HETATM    2  N   UNL     1      40.474 -15.792   3.407  1.00  0.00    -0.243 N 
HETATM    3  O   UNL     1      40.442 -16.231   1.119  1.00  0.00    -0.266 OA
HETATM    4  H   UNL     1      39.933 -15.352   4.145  1.00  0.00     0.192 HD
ENDROOT
BRANCH   2   5
HETATM    5  N   UNL     1      41.241 -16.837   3.865  1.00  0.00    -0.183 NA
HETATM    6  C   UNL     1      42.531 -16.746   3.800  1.00  0.00     0.153 C 
BRANCH   6   7
HETATM    7  C   UNL     1      43.368 -17.849   4.247  1.00  0.00     0.018 A 
HETATM    8  C   UNL     1      43.604 -19.063   3.518  1.00  0.00     0.004 A 
HETATM    9  C   UNL     1      44.460 -19.853   4.281  1.00  0.00     0.043 A 
HETATM   10  C   UNL     1      43.158 -19.567   2.275  1.00  0.00     0.014 A 
HETATM   11  C   UNL     1      44.900 -21.117   3.868  1.00  0.00     0.030 A 
HETATM   12  N   UNL     1      44.735 -19.153   5.431  1.00  0.00    -0.358 N 
HETATM   13  C   UNL     1      44.446 -21.590   2.634  1.00  0.00     0.002 A 
HETATM   14  C   UNL     1      43.586 -20.829   1.848  1.00  0.00     0.001 A 
HETATM   15  H   UNL     1      45.334 -19.491   6.171  1.00  0.00     0.166 HD
HETATM   16  C   UNL     1      44.089 -17.941   5.430  1.00  0.00     0.018 A 
HETATM   17  C   UNL     1      44.236 -16.993   6.566  1.00  0.00     0.069 C 
ENDBRANCH   6   7
ENDBRANCH   2   5
BRANCH   1  18
HETATM   18  C   UNL     1      39.258 -14.348   1.856  1.00  0.00     0.033 A 
HETATM   19  C   UNL     1      38.207 -14.341   0.933  1.00  0.00     0.020 A 
HETATM   20  C   UNL     1      37.406 -13.202   0.797  1.00  0.00     0.038 A 
HETATM   21  C   UNL     1      37.624 -12.073   1.591  1.00  0.00     0.068 A 
HETATM   22  C   UNL     1      38.675 -12.076   2.507  1.00  0.00     0.038 A 
HETATM   23  C   UNL     1      39.484 -13.209   2.641  1.00  0.00     0.020 A 
BRANCH  21  24
HETATM   24  O   UNL     1      36.754 -11.042   1.377  1.00  0.00    -0.352 OA
BRANCH  24  25
HETATM   25  C   UNL     1      35.681 -11.291   0.468  1.00  0.00     0.171 C 
HETATM   26  C   UNL     1      34.426 -10.654   1.037  1.00  0.00     0.034 C 
ENDBRANCH  24  25
ENDBRANCH  21  24
ENDBRANCH   1  18
TORSDOF 5
ENDMDL
MODEL 6
REMARK VINA RESULT:      -7.9      5.680     10.162
REMARK  5 active torsions:
REMARK  status: ('A' for Active; 'I' for Inactive)
REMARK    1  A    between atoms: C_2  and  O_3 
REMARK    2  A    between atoms: O_3  and  C_4 
REMARK    3  A    between atoms: C_7  and  C_8 
REMARK       I    between atoms: C_8  and  N_9 
REMARK    4  A    between atoms: N_9  and  N_10 
REMARK    5  A    between atoms: C_11  and  C_12 
ROOT
HETATM    1  C   UNL     1      41.637 -15.341   0.151  1.00  0.00     0.271 C 
HETATM    2  N   UNL     1      42.060 -16.665   0.165  1.00  0.00    -0.243 N 
HETATM    3  O   UNL     1      41.960 -14.477   0.960  1.00  0.00    -0.266 OA
HETATM    4  H   UNL     1      41.980 -17.211  -0.687  1.00  0.00     0.192 HD
ENDROOT
BRANCH   2   5
HETATM    5  N   UNL     1      42.904 -17.241   1.084  1.00  0.00    -0.183 NA
HETATM    6  C   UNL     1      42.450 -18.175   1.857  1.00  0.00     0.153 C 
BRANCH   6   7
HETATM    7  C   UNL     1      43.311 -18.780   2.861  1.00  0.00     0.018 A 
HETATM    8  C   UNL     1      43.684 -18.178   4.109  1.00  0.00     0.004 A 
HETATM    9  C   UNL     1      44.507 -19.077   4.783  1.00  0.00     0.043 A 
HETATM   10  C   UNL     1      43.401 -16.939   4.728  1.00  0.00     0.014 A 
HETATM   11  C   UNL     1      45.058 -18.810   6.042  1.00  0.00     0.030 A 
HETATM   12  N   UNL     1      44.635 -20.184   3.979  1.00  0.00    -0.358 N 
HETATM   13  C   UNL     1      44.761 -17.578   6.631  1.00  0.00     0.002 A 
HETATM   14  C   UNL     1      43.944 -16.654   5.985  1.00  0.00     0.001 A 
HETATM   15  H   UNL     1      45.181 -20.999   4.219  1.00  0.00     0.166 HD
HETATM   16  C   UNL     1      43.920 -20.028   2.816  1.00  0.00     0.018 A 
HETATM   17  C   UNL     1      43.892 -21.096   1.783  1.00  0.00     0.069 C 
ENDBRANCH   6   7
ENDBRANCH   2   5
BRANCH   1  18
HETATM   18  C   UNL     1      40.733 -14.961  -0.976  1.00  0.00     0.033 A 
HETATM   19  C   UNL     1      40.860 -15.498  -2.262  1.00  0.00     0.020 A 
HETATM   20  C   UNL     1      39.953 -15.134  -3.263  1.00  0.00     0.038 A 
HETATM   21  C   UNL     1      38.900 -14.257  -2.992  1.00  0.00     0.068 A 
HETATM   22  C   UNL     1      38.775 -13.716  -1.713  1.00  0.00     0.038 A 
HETATM   23  C   UNL     1      39.684 -14.069  -0.711  1.00  0.00     0.020 A 
BRANCH  21  24
HETATM   24  O   UNL     1      38.072 -14.006  -4.049  1.00  0.00    -0.352 OA
BRANCH  24  25
HETATM   25  C   UNL     1      36.871 -14.777  -4.115  1.00  0.00     0.171 C 
HETATM   26  C   UNL     1      35.880 -14.028  -4.988  1.00  0.00     0.034 C 
ENDBRANCH  24  25
ENDBRANCH  21  24
ENDBRANCH   1  18
TORSDOF 5
ENDMDL
MODEL 7
REMARK VINA RESULT:      -7.6      7.275     10.110
REMARK  5 active torsions:
REMARK  status: ('A' for Active; 'I' for Inactive)
REMARK    1  A    between atoms: C_2  and  O_3 
REMARK    2  A    between atoms: O_3  and  C_4 
REMARK    3  A    between atoms: C_7  and  C_8 
REMARK       I    between atoms: C_8  and  N_9 
REMARK    4  A    between atoms: N_9  and  N_10 
REMARK    5  A    between atoms: C_11  and  C_12 
ROOT
HETATM    1  C   UNL     1      41.483 -17.188   1.483  1.00  0.00     0.271 C 
HETATM    2  N   UNL     1      41.989 -16.607   0.326  1.00  0.00    -0.243 N 
HETATM    3  O   UNL     1      40.336 -17.069   1.902  1.00  0.00    -0.266 OA
HETATM    4  H   UNL     1      42.834 -16.993  -0.083  1.00  0.00     0.192 HD
ENDROOT
BRANCH   2   5
HETATM    5  N   UNL     1      41.303 -15.795  -0.545  1.00  0.00    -0.183 NA
HETATM    6  C   UNL     1      41.147 -14.544  -0.249  1.00  0.00     0.153 C 
BRANCH   6   7
HETATM    7  C   UNL     1      40.398 -13.668  -1.137  1.00  0.00     0.018 A 
HETATM    8  C   UNL     1      40.956 -12.903  -2.216  1.00  0.00     0.004 A 
HETATM    9  C   UNL     1      39.913 -12.206  -2.822  1.00  0.00     0.043 A 
HETATM   10  C   UNL     1      42.261 -12.732  -2.729  1.00  0.00     0.014 A 
HETATM   11  C   UNL     1      40.101 -11.353  -3.916  1.00  0.00     0.030 A 
HETATM   12  N   UNL     1      38.764 -12.531  -2.141  1.00  0.00    -0.358 N 
HETATM   13  C   UNL     1      41.402 -11.204  -4.405  1.00  0.00     0.002 A 
HETATM   14  C   UNL     1      42.469 -11.882  -3.821  1.00  0.00     0.001 A 
HETATM   15  H   UNL     1      37.849 -12.166  -2.367  1.00  0.00     0.166 HD
HETATM   16  C   UNL     1      39.033 -13.412  -1.123  1.00  0.00     0.018 A 
HETATM   17  C   UNL     1      37.948 -13.923  -0.244  1.00  0.00     0.069 C 
ENDBRANCH   6   7
ENDBRANCH   2   5
BRANCH   1  18
HETATM   18  C   UNL     1      42.436 -18.051   2.246  1.00  0.00     0.033 A 
HETATM   19  C   UNL     1      43.393 -18.858   1.620  1.00  0.00     0.020 A 
HETATM   20  C   UNL     1      44.285 -19.608   2.393  1.00  0.00     0.038 A 
HETATM   21  C   UNL     1      44.253 -19.546   3.788  1.00  0.00     0.068 A 
HETATM   22  C   UNL     1      43.297 -18.747   4.414  1.00  0.00     0.038 A 
HETATM   23  C   UNL     1      42.397 -18.001   3.646  1.00  0.00     0.020 A 
BRANCH  21  24
HETATM   24  O   UNL     1      45.196 -20.306   4.420  1.00  0.00    -0.352 OA
BRANCH  24  25
HETATM   25  C   UNL     1      44.712 -21.306   5.317  1.00  0.00     0.171 C 
HETATM   26  C   UNL     1      44.702 -22.633   4.580  1.00  0.00     0.034 C 
ENDBRANCH  24  25
ENDBRANCH  21  24
ENDBRANCH   1  18
TORSDOF 5
ENDMDL
MODEL 8
REMARK VINA RESULT:      -7.4      7.179     10.423
REMARK  5 active torsions:
REMARK  status: ('A' for Active; 'I' for Inactive)
REMARK    1  A    between atoms: C_2  and  O_3 
REMARK    2  A    between atoms: O_3  and  C_4 
REMARK    3  A    between atoms: C_7  and  C_8 
REMARK       I    between atoms: C_8  and  N_9 
REMARK    4  A    between atoms: N_9  and  N_10 
REMARK    5  A    between atoms: C_11  and  C_12 
ROOT
HETATM    1  C   UNL     1      42.151 -15.749   1.379  1.00  0.00     0.271 C 
HETATM    2  N   UNL     1      41.849 -15.792   0.023  1.00  0.00    -0.243 N 
HETATM    3  O   UNL     1      41.940 -14.802   2.130  1.00  0.00    -0.266 OA
HETATM    4  H   UNL     1      41.789 -16.696  -0.434  1.00  0.00     0.192 HD
ENDROOT
BRANCH   2   5
HETATM    5  N   UNL     1      41.271 -14.787  -0.716  1.00  0.00    -0.183 NA
HETATM    6  C   UNL     1      40.953 -15.016  -1.950  1.00  0.00     0.153 C 
BRANCH   6   7
HETATM    7  C   UNL     1      40.370 -13.961  -2.764  1.00  0.00     0.018 A 
HETATM    8  C   UNL     1      41.052 -12.777  -3.205  1.00  0.00     0.004 A 
HETATM    9  C   UNL     1      40.153 -12.030  -3.963  1.00  0.00     0.043 A 
HETATM   10  C   UNL     1      42.357 -12.267  -3.022  1.00  0.00     0.014 A 
HETATM   11  C   UNL     1      40.488 -10.804  -4.552  1.00  0.00     0.030 A 
HETATM   12  N   UNL     1      38.969 -12.726  -3.983  1.00  0.00    -0.358 N 
HETATM   13  C   UNL     1      41.786 -10.324  -4.356  1.00  0.00     0.002 A 
HETATM   14  C   UNL     1      42.709 -11.043  -3.601  1.00  0.00     0.001 A 
HETATM   15  H   UNL     1      38.136 -12.415  -4.462  1.00  0.00     0.166 HD
HETATM   16  C   UNL     1      39.077 -13.894  -3.269  1.00  0.00     0.018 A 
HETATM   17  C   UNL     1      37.928 -14.830  -3.148  1.00  0.00     0.069 C 
ENDBRANCH   6   7
ENDBRANCH   2   5
BRANCH   1  18
HETATM   18  C   UNL     1      42.759 -16.990   1.948  1.00  0.00     0.033 A 
HETATM   19  C   UNL     1      42.442 -17.471   3.223  1.00  0.00     0.020 A 
HETATM   20  C   UNL     1      43.013 -18.663   3.680  1.00  0.00     0.038 A 
HETATM   21  C   UNL     1      43.881 -19.399   2.870  1.00  0.00     0.068 A 
HETATM   22  C   UNL     1      44.203 -18.919   1.602  1.00  0.00     0.038 A 
HETATM   23  C   UNL     1      43.642 -17.723   1.143  1.00  0.00     0.020 A 
BRANCH  21  24
HETATM   24  O   UNL     1      44.346 -20.557   3.427  1.00  0.00    -0.352 OA
BRANCH  24  25
HETATM   25  C   UNL     1      44.810 -20.474   4.776  1.00  0.00     0.171 C 
HETATM   26  C   UNL     1      44.785 -21.872   5.368  1.00  0.00     0.034 C 
ENDBRANCH  24  25
ENDBRANCH  21  24
ENDBRANCH   1  18
TORSDOF 5
ENDMDL
MODEL 9
REMARK VINA RESULT:      -7.3      1.904      3.029
REMARK  5 active torsions:
REMARK  status: ('A' for Active; 'I' for Inactive)
REMARK    1  A    between atoms: C_2  and  O_3 
REMARK    2  A    between atoms: O_3  and  C_4 
REMARK    3  A    between atoms: C_7  and  C_8 
REMARK       I    between atoms: C_8  and  N_9 
REMARK    4  A    between atoms: N_9  and  N_10 
REMARK    5  A    between atoms: C_11  and  C_12 
ROOT
HETATM    1  C   UNL     1      43.173 -13.465   5.823  1.00  0.00     0.271 C 
HETATM    2  N   UNL     1      43.675 -14.755   5.701  1.00  0.00    -0.243 N 
HETATM    3  O   UNL     1      42.520 -12.867   4.973  1.00  0.00    -0.266 OA
HETATM    4  H   UNL     1      43.938 -15.257   6.543  1.00  0.00     0.192 HD
ENDROOT
BRANCH   2   5
HETATM    5  N   UNL     1      43.536 -15.585   4.613  1.00  0.00    -0.183 NA
HETATM    6  C   UNL     1      42.972 -16.740   4.771  1.00  0.00     0.153 C 
BRANCH   6   7
HETATM    7  C   UNL     1      42.841 -17.650   3.644  1.00  0.00     0.018 A 
HETATM    8  C   UNL     1      43.507 -18.916   3.516  1.00  0.00     0.004 A 
HETATM    9  C   UNL     1      43.112 -19.479   2.304  1.00  0.00     0.043 A 
HETATM   10  C   UNL     1      44.421 -19.633   4.320  1.00  0.00     0.014 A 
HETATM   11  C   UNL     1      43.575 -20.722   1.855  1.00  0.00     0.030 A 
HETATM   12  N   UNL     1      42.241 -18.594   1.715  1.00  0.00    -0.358 N 
HETATM   13  C   UNL     1      44.477 -21.411   2.671  1.00  0.00     0.002 A 
HETATM   14  C   UNL     1      44.896 -20.876   3.886  1.00  0.00     0.001 A 
HETATM   15  H   UNL     1      41.797 -18.747   0.821  1.00  0.00     0.166 HD
HETATM   16  C   UNL     1      42.061 -17.486   2.506  1.00  0.00     0.018 A 
HETATM   17  C   UNL     1      41.155 -16.385   2.089  1.00  0.00     0.069 C 
ENDBRANCH   6   7
ENDBRANCH   2   5
BRANCH   1  18
HETATM   18  C   UNL     1      43.447 -12.782   7.124  1.00  0.00     0.033 A 
HETATM   19  C   UNL     1      44.498 -13.157   7.968  1.00  0.00     0.020 A 
HETATM   20  C   UNL     1      44.729 -12.449   9.152  1.00  0.00     0.038 A 
HETATM   21  C   UNL     1      43.937 -11.350   9.496  1.00  0.00     0.068 A 
HETATM   22  C   UNL     1      42.885 -10.979   8.659  1.00  0.00     0.038 A 
HETATM   23  C   UNL     1      42.645 -11.689   7.478  1.00  0.00     0.020 A 
BRANCH  21  24
HETATM   24  O   UNL     1      44.285 -10.732  10.663  1.00  0.00    -0.352 OA
BRANCH  24  25
HETATM   25  C   UNL     1      43.298  -9.889  11.258  1.00  0.00     0.171 C 
HETATM   26  C   UNL     1      43.551  -9.853  12.754  1.00  0.00     0.034 C 
ENDBRANCH  24  25
ENDBRANCH  21  24
ENDBRANCH   1  18
TORSDOF 5
ENDMDL
MODEL 10
REMARK VINA RESULT:      -7.2      3.277      4.657
REMARK  5 active torsions:
REMARK  status: ('A' for Active; 'I' for Inactive)
REMARK    1  A    between atoms: C_2  and  O_3 
REMARK    2  A    between atoms: O_3  and  C_4 
REMARK    3  A    between atoms: C_7  and  C_8 
REMARK       I    between atoms: C_8  and  N_9 
REMARK    4  A    between atoms: N_9  and  N_10 
REMARK    5  A    between atoms: C_11  and  C_12 
ROOT
HETATM    1  C   UNL     1      40.958 -14.580   4.498  1.00  0.00     0.271 C 
HETATM    2  N   UNL     1      41.712 -15.596   5.074  1.00  0.00    -0.243 N 
HETATM    3  O   UNL     1      40.498 -14.587   3.360  1.00  0.00    -0.266 OA
HETATM    4  H   UNL     1      41.792 -15.628   6.085  1.00  0.00     0.192 HD
ENDROOT
BRANCH   2   5
HETATM    5  N   UNL     1      42.080 -16.778   4.476  1.00  0.00    -0.183 NA
HETATM    6  C   UNL     1      43.339 -17.034   4.310  1.00  0.00     0.153 C 
BRANCH   6   7
HETATM    7  C   UNL     1      43.756 -18.261   3.652  1.00  0.00     0.018 A 
HETATM    8  C   UNL     1      44.039 -19.505   4.312  1.00  0.00     0.004 A 
HETATM    9  C   UNL     1      44.397 -20.430   3.334  1.00  0.00     0.043 A 
HETATM   10  C   UNL     1      44.030 -19.928   5.660  1.00  0.00     0.014 A 
HETATM   11  C   UNL     1      44.741 -21.755   3.628  1.00  0.00     0.030 A 
HETATM   12  N   UNL     1      44.338 -19.779   2.125  1.00  0.00    -0.358 N 
HETATM   13  C   UNL     1      44.722 -22.147   4.970  1.00  0.00     0.002 A 
HETATM   14  C   UNL     1      44.372 -21.247   5.973  1.00  0.00     0.001 A 
HETATM   15  H   UNL     1      44.550 -20.212   1.237  1.00  0.00     0.166 HD
HETATM   16  C   UNL     1      43.952 -18.472   2.293  1.00  0.00     0.018 A 
HETATM   17  C   UNL     1      43.805 -17.559   1.129  1.00  0.00     0.069 C 
ENDBRANCH   6   7
ENDBRANCH   2   5
BRANCH   1  18
HETATM   18  C   UNL     1      40.678 -13.403   5.374  1.00  0.00     0.033 A 
HETATM   19  C   UNL     1      39.567 -13.339   6.222  1.00  0.00     0.020 A 
HETATM   20  C   UNL     1      39.384 -12.227   7.051  1.00  0.00     0.038 A 
HETATM   21  C   UNL     1      40.312 -11.183   7.064  1.00  0.00     0.068 A 
HETATM   22  C   UNL     1      41.417 -11.241   6.215  1.00  0.00     0.038 A 
HETATM   23  C   UNL     1      41.600 -12.347   5.378  1.00  0.00     0.020 A 
BRANCH  21  24
HETATM   24  O   UNL     1      40.029 -10.171   7.937  1.00  0.00    -0.352 OA
BRANCH  24  25
HETATM   25  C   UNL     1      39.931 -10.529   9.317  1.00  0.00     0.171 C 
HETATM   26  C   UNL     1      41.337 -10.601   9.884  1.00  0.00     0.034 C 
ENDBRANCH  24  25
ENDBRANCH  21  24
ENDBRANCH   1  18
TORSDOF 5
ENDMDL
