MODEL 1
REMARK VINA RESULT:      -9.0      0.000      0.000
REMARK  7 active torsions:
REMARK  status: ('A' for Active; 'I' for Inactive)
REMARK    1  A    between atoms: C_2  and  C_3 
REMARK    2  A    between atoms: C_6  and  C_7 
REMARK    3  A    between atoms: N_9  and  C_10 
REMARK    4  A    between atoms: C_10  and  C_11 
REMARK    5  A    between atoms: C_18  and  C_19 
REMARK       I    between atoms: C_19  and  N_20 
REMARK    6  A    between atoms: N_20  and  C_21 
REMARK    7  A    between atoms: C_24  and  O_25 
ROOT
HETATM    1  C   UNL     1      41.697 -15.704   0.965  1.00  0.00     0.104 A 
HETATM    2  N   UNL     1      41.722 -15.411  -0.351  1.00  0.00    -0.171 NA
HETATM    3  N   UNL     1      41.051 -14.260  -0.462  1.00  0.00    -0.275 N 
HETATM    4  C   UNL     1      40.568 -13.802   0.726  1.00  0.00     0.132 A 
HETATM    5  C   UNL     1      41.002 -14.684   1.705  1.00  0.00     0.080 A 
ENDROOT
BRANCH   5   6
HETATM    6  C   UNL     1      40.787 -14.559   3.147  1.00  0.00     0.255 C 
HETATM    7  N   UNL     1      41.908 -14.803   3.912  1.00  0.00    -0.352 N 
HETATM    8  H   UNL     1      42.718 -15.161   3.429  1.00  0.00     0.163 HD
HETATM    9  O   UNL     1      39.701 -14.271   3.631  1.00  0.00    -0.268 OA
BRANCH   7  10
HETATM   10  C   UNL     1      42.014 -14.774   5.369  1.00  0.00     0.084 C 
HETATM   11  C   UNL     1      42.324 -16.137   6.002  1.00  0.00     0.028 C 
HETATM   12  C   UNL     1      43.802 -16.412   6.271  1.00  0.00     0.034 C 
HETATM   13  C   UNL     1      44.503 -15.235   6.939  1.00  0.00     0.118 C 
HETATM   14  C   UNL     1      44.333 -13.946   6.142  1.00  0.00     0.034 C 
HETATM   15  C   UNL     1      42.863 -13.610   5.896  1.00  0.00     0.028 C 
BRANCH  13  16
HETATM   16  O   UNL     1      43.949 -15.059   8.244  1.00  0.00    -0.396 OA
HETATM   17  H   UNL     1      44.603 -15.397   8.880  1.00  0.00     0.210 HD
ENDBRANCH  13  16
ENDBRANCH   7  10
ENDBRANCH   5   6
BRANCH   1  18
HETATM   18  C   UNL     1      42.370 -16.924   1.416  1.00  0.00    -0.005 A 
HETATM   19  C   UNL     1      43.771 -16.956   1.474  1.00  0.00     0.014 A 
HETATM   20  C   UNL     1      44.453 -18.125   1.834  1.00  0.00     0.008 A 
HETATM   21  C   UNL     1      43.749 -19.295   2.136  1.00  0.00    -0.059 A 
HETATM   22  C   UNL     1      42.346 -19.258   2.082  1.00  0.00     0.008 A 
HETATM   23  C   UNL     1      41.665 -18.090   1.716  1.00  0.00     0.014 A 
BRANCH  21  24
HETATM   24  C   UNL     1      44.416 -20.595   2.523  1.00  0.00     0.034 C 
HETATM   25  C   UNL     1      44.035 -21.830   1.716  1.00  0.00     0.010 C 
ENDBRANCH  21  24
ENDBRANCH   1  18
BRANCH   3  26
HETATM   26  C   UNL     1      40.913 -13.625  -1.769  1.00  0.00     0.189 C 
BRANCH  26  27
HETATM   27  C   UNL     1      39.802 -14.243  -2.584  1.00  0.00    -0.038 A 
HETATM   28  C   UNL     1      40.052 -15.325  -3.445  1.00  0.00     0.009 A 
HETATM   29  C   UNL     1      39.020 -15.898  -4.187  1.00  0.00     0.001 A 
HETATM   30  C   UNL     1      37.721 -15.409  -4.067  1.00  0.00     0.000 A 
HETATM   31  C   UNL     1      37.453 -14.349  -3.202  1.00  0.00     0.001 A 
HETATM   32  C   UNL     1      38.487 -13.771  -2.462  1.00  0.00     0.009 A 
ENDBRANCH  26  27
ENDBRANCH   3  26
TORSDOF 7
ENDMDL
MODEL 2
REMARK VINA RESULT:      -8.7      3.073      8.481
REMARK  7 active torsions:
REMARK  status: ('A' for Active; 'I' for Inactive)
REMARK    1  A    between atoms: C_2  and  C_3 
REMARK    2  A    between atoms: C_6  and  C_7 
REMARK    3  A    between atoms: N_9  and  C_10 
REMARK    4  A    between atoms: C_10  and  C_11 
REMARK    5  A    between atoms: C_18  and  C_19 
REMARK       I    between atoms: C_19  and  N_20 
REMARK    6  A    between atoms: N_20  and  C_21 
REMARK    7  A    between atoms: C_24  and  O_25 
ROOT
HETATM    1  C   UNL     1      43.858 -15.714   6.636  1.00  0.00     0.104 A 
HETATM    2  N   UNL     1      44.766 -15.044   7.373  1.00  0.00    -0.171 NA
HETATM    3  N   UNL     1      44.420 -13.757   7.262  1.00  0.00    -0.275 N 
HETATM    4  C   UNL     1      43.336 -13.558   6.462  1.00  0.00     0.132 A 
HETATM    5  C   UNL     1      42.896 -14.811   6.061  1.00  0.00     0.080 A 
ENDROOT
BRANCH   5   6
HETATM    6  C   UNL     1      41.714 -15.100   5.249  1.00  0.00     0.255 C 
HETATM    7  N   UNL     1      41.937 -15.064   3.889  1.00  0.00    -0.352 N 
HETATM    8  H   UNL     1      42.838 -14.727   3.585  1.00  0.00     0.163 HD
HETATM    9  O   UNL     1      40.619 -15.342   5.737  1.00  0.00    -0.268 OA
BRANCH   7  10
HETATM   10  C   UNL     1      40.964 -15.290   2.821  1.00  0.00     0.084 C 
HETATM   11  C   UNL     1      40.657 -14.045   1.980  1.00  0.00     0.028 C 
HETATM   12  C   UNL     1      41.475 -13.904   0.698  1.00  0.00     0.034 C 
HETATM   13  C   UNL     1      41.539 -15.201  -0.100  1.00  0.00     0.118 C 
HETATM   14  C   UNL     1      42.058 -16.361   0.743  1.00  0.00     0.034 C 
HETATM   15  C   UNL     1      41.232 -16.565   2.012  1.00  0.00     0.028 C 
BRANCH  13  16
HETATM   16  O   UNL     1      40.225 -15.509  -0.570  1.00  0.00    -0.396 OA
HETATM   17  H   UNL     1      39.784 -16.022   0.130  1.00  0.00     0.210 HD
ENDBRANCH  13  16
ENDBRANCH   7  10
ENDBRANCH   5   6
BRANCH   1  18
HETATM   18  C   UNL     1      43.964 -17.173   6.565  1.00  0.00    -0.005 A 
HETATM   19  C   UNL     1      44.251 -17.783   5.335  1.00  0.00     0.014 A 
HETATM   20  C   UNL     1      44.293 -19.178   5.213  1.00  0.00     0.008 A 
HETATM   21  C   UNL     1      44.040 -19.997   6.317  1.00  0.00    -0.059 A 
HETATM   22  C   UNL     1      43.758 -19.382   7.548  1.00  0.00     0.008 A 
HETATM   23  C   UNL     1      43.710 -17.987   7.669  1.00  0.00     0.014 A 
BRANCH  21  24
HETATM   24  C   UNL     1      44.060 -21.507   6.259  1.00  0.00     0.034 C 
HETATM   25  C   UNL     1      44.853 -22.140   5.122  1.00  0.00     0.010 C 
ENDBRANCH  21  24
ENDBRANCH   1  18
BRANCH   3  26
HETATM   26  C   UNL     1      45.182 -12.738   7.977  1.00  0.00     0.189 C 
BRANCH  26  27
HETATM   27  C   UNL     1      44.397 -12.145   9.124  1.00  0.00    -0.038 A 
HETATM   28  C   UNL     1      44.654 -12.529  10.451  1.00  0.00     0.009 A 
HETATM   29  C   UNL     1      43.933 -11.969  11.506  1.00  0.00     0.001 A 
HETATM   30  C   UNL     1      42.958 -11.007  11.251  1.00  0.00     0.000 A 
HETATM   31  C   UNL     1      42.706 -10.602   9.941  1.00  0.00     0.001 A 
HETATM   32  C   UNL     1      43.423 -11.165   8.883  1.00  0.00     0.009 A 
ENDBRANCH  26  27
ENDBRANCH   3  26
TORSDOF 7
ENDMDL
MODEL 3
REMARK VINA RESULT:      -8.5      1.271      2.482
REMARK  7 active torsions:
REMARK  status: ('A' for Active; 'I' for Inactive)
REMARK    1  A    between atoms: C_2  and  C_3 
REMARK    2  A    between atoms: C_6  and  C_7 
REMARK    3  A    between atoms: N_9  and  C_10 
REMARK    4  A    between atoms: C_10  and  C_11 
REMARK    5  A    between atoms: C_18  and  C_19 
REMARK       I    between atoms: C_19  and  N_20 
REMARK    6  A    between atoms: N_20  and  C_21 
REMARK    7  A    between atoms: C_24  and  O_25 
ROOT
HETATM    1  C   UNL     1      41.392 -15.939   0.793  1.00  0.00     0.104 A 
HETATM    2  N   UNL     1      41.305 -15.667  -0.525  1.00  0.00    -0.171 NA
HETATM    3  N   UNL     1      40.503 -14.601  -0.606  1.00  0.00    -0.275 N 
HETATM    4  C   UNL     1      40.042 -14.180   0.604  1.00  0.00     0.132 A 
HETATM    5  C   UNL     1      40.631 -14.992   1.563  1.00  0.00     0.080 A 
ENDROOT
BRANCH   5   6
HETATM    6  C   UNL     1      40.488 -14.868   3.015  1.00  0.00     0.255 C 
HETATM    7  N   UNL     1      41.570 -15.333   3.733  1.00  0.00    -0.352 N 
HETATM    8  H   UNL     1      42.286 -15.818   3.213  1.00  0.00     0.163 HD
HETATM    9  O   UNL     1      39.490 -14.401   3.544  1.00  0.00    -0.268 OA
BRANCH   7  10
HETATM   10  C   UNL     1      41.726 -15.362   5.186  1.00  0.00     0.084 C 
HETATM   11  C   UNL     1      42.283 -16.684   5.729  1.00  0.00     0.028 C 
HETATM   12  C   UNL     1      43.795 -16.720   5.938  1.00  0.00     0.034 C 
HETATM   13  C   UNL     1      44.316 -15.479   6.652  1.00  0.00     0.118 C 
HETATM   14  C   UNL     1      43.904 -14.197   5.936  1.00  0.00     0.034 C 
HETATM   15  C   UNL     1      42.390 -14.101   5.754  1.00  0.00     0.028 C 
BRANCH  13  16
HETATM   16  O   UNL     1      43.792 -15.467   7.981  1.00  0.00    -0.396 OA
HETATM   17  H   UNL     1      43.292 -14.639   8.084  1.00  0.00     0.210 HD
ENDBRANCH  13  16
ENDBRANCH   7  10
ENDBRANCH   5   6
BRANCH   1  18
HETATM   18  C   UNL     1      42.224 -17.068   1.213  1.00  0.00    -0.005 A 
HETATM   19  C   UNL     1      41.610 -18.260   1.624  1.00  0.00     0.014 A 
HETATM   20  C   UNL     1      42.368 -19.338   2.098  1.00  0.00     0.008 A 
HETATM   21  C   UNL     1      43.760 -19.246   2.181  1.00  0.00    -0.059 A 
HETATM   22  C   UNL     1      44.373 -18.052   1.764  1.00  0.00     0.008 A 
HETATM   23  C   UNL     1      43.613 -16.973   1.296  1.00  0.00     0.014 A 
BRANCH  21  24
HETATM   24  C   UNL     1      44.643 -20.363   2.689  1.00  0.00     0.034 C 
HETATM   25  C   UNL     1      44.448 -21.735   2.055  1.00  0.00     0.010 C 
ENDBRANCH  21  24
ENDBRANCH   1  18
BRANCH   3  26
HETATM   26  C   UNL     1      40.217 -14.006  -1.908  1.00  0.00     0.189 C 
BRANCH  26  27
HETATM   27  C   UNL     1      41.146 -12.857  -2.222  1.00  0.00    -0.038 A 
HETATM   28  C   UNL     1      42.029 -12.355  -1.251  1.00  0.00     0.009 A 
HETATM   29  C   UNL     1      42.891 -11.301  -1.551  1.00  0.00     0.001 A 
HETATM   30  C   UNL     1      42.895 -10.745  -2.829  1.00  0.00     0.000 A 
HETATM   31  C   UNL     1      42.038 -11.246  -3.808  1.00  0.00     0.001 A 
HETATM   32  C   UNL     1      41.171 -12.298  -3.508  1.00  0.00     0.009 A 
ENDBRANCH  26  27
ENDBRANCH   3  26
TORSDOF 7
ENDMDL
MODEL 4
REMARK VINA RESULT:      -8.3      1.505      2.094
REMARK  7 active torsions:
REMARK  status: ('A' for Active; 'I' for Inactive)
REMARK    1  A    between atoms: C_2  and  C_3 
REMARK    2  A    between atoms: C_6  and  C_7 
REMARK    3  A    between atoms: N_9  and  C_10 
REMARK    4  A    between atoms: C_10  and  C_11 
REMARK    5  A    between atoms: C_18  and  C_19 
REMARK       I    between atoms: C_19  and  N_20 
REMARK    6  A    between atoms: N_20  and  C_21 
REMARK    7  A    between atoms: C_24  and  O_25 
ROOT
HETATM    1  C   UNL     1      42.429 -15.116   1.745  1.00  0.00     0.104 A 
HETATM    2  N   UNL     1      42.079 -14.624   0.540  1.00  0.00    -0.171 NA
HETATM    3  N   UNL     1      41.886 -13.316   0.743  1.00  0.00    -0.275 N 
HETATM    4  C   UNL     1      42.072 -12.940   2.039  1.00  0.00     0.132 A 
HETATM    5  C   UNL     1      42.477 -14.071   2.732  1.00  0.00     0.080 A 
ENDROOT
BRANCH   5   6
HETATM    6  C   UNL     1      42.862 -14.136   4.143  1.00  0.00     0.255 C 
HETATM    7  N   UNL     1      42.469 -15.289   4.787  1.00  0.00    -0.352 N 
HETATM    8  H   UNL     1      41.859 -15.909   4.276  1.00  0.00     0.163 HD
HETATM    9  O   UNL     1      43.473 -13.236   4.703  1.00  0.00    -0.268 OA
BRANCH   7  10
HETATM   10  C   UNL     1      42.688 -15.644   6.188  1.00  0.00     0.084 C 
HETATM   11  C   UNL     1      41.761 -16.753   6.704  1.00  0.00     0.028 C 
HETATM   12  C   UNL     1      42.335 -18.167   6.643  1.00  0.00     0.034 C 
HETATM   13  C   UNL     1      43.761 -18.241   7.175  1.00  0.00     0.118 C 
HETATM   14  C   UNL     1      44.685 -17.256   6.465  1.00  0.00     0.034 C 
HETATM   15  C   UNL     1      44.168 -15.821   6.550  1.00  0.00     0.028 C 
BRANCH  13  16
HETATM   16  O   UNL     1      43.741 -17.947   8.572  1.00  0.00    -0.396 OA
HETATM   17  H   UNL     1      43.451 -18.754   9.031  1.00  0.00     0.210 HD
ENDBRANCH  13  16
ENDBRANCH   7  10
ENDBRANCH   5   6
BRANCH   1  18
HETATM   18  C   UNL     1      42.722 -16.547   1.849  1.00  0.00    -0.005 A 
HETATM   19  C   UNL     1      44.054 -16.983   1.801  1.00  0.00     0.014 A 
HETATM   20  C   UNL     1      44.371 -18.346   1.830  1.00  0.00     0.008 A 
HETATM   21  C   UNL     1      43.360 -19.310   1.896  1.00  0.00    -0.059 A 
HETATM   22  C   UNL     1      42.027 -18.870   1.950  1.00  0.00     0.008 A 
HETATM   23  C   UNL     1      41.711 -17.506   1.916  1.00  0.00     0.014 A 
BRANCH  21  24
HETATM   24  C   UNL     1      43.624 -20.798   1.922  1.00  0.00     0.034 C 
HETATM   25  C   UNL     1      44.516 -21.318   3.042  1.00  0.00     0.010 C 
ENDBRANCH  21  24
ENDBRANCH   1  18
BRANCH   3  26
HETATM   26  C   UNL     1      41.526 -12.454  -0.378  1.00  0.00     0.189 C 
BRANCH  26  27
HETATM   27  C   UNL     1      40.669 -13.173  -1.393  1.00  0.00    -0.038 A 
HETATM   28  C   UNL     1      39.302 -13.393  -1.159  1.00  0.00     0.009 A 
HETATM   29  C   UNL     1      38.514 -14.049  -2.105  1.00  0.00     0.001 A 
HETATM   30  C   UNL     1      39.078 -14.478  -3.305  1.00  0.00     0.000 A 
HETATM   31  C   UNL     1      40.429 -14.248  -3.560  1.00  0.00     0.001 A 
HETATM   32  C   UNL     1      41.220 -13.597  -2.611  1.00  0.00     0.009 A 
ENDBRANCH  26  27
ENDBRANCH   3  26
TORSDOF 7
ENDMDL
MODEL 5
REMARK VINA RESULT:      -8.0      2.572      7.033
REMARK  7 active torsions:
REMARK  status: ('A' for Active; 'I' for Inactive)
REMARK    1  A    between atoms: C_2  and  C_3 
REMARK    2  A    between atoms: C_6  and  C_7 
REMARK    3  A    between atoms: N_9  and  C_10 
REMARK    4  A    between atoms: C_10  and  C_11 
REMARK    5  A    between atoms: C_18  and  C_19 
REMARK       I    between atoms: C_19  and  N_20 
REMARK    6  A    between atoms: N_20  and  C_21 
REMARK    7  A    between atoms: C_24  and  O_25 
ROOT
HETATM    1  C   UNL     1      42.732 -16.773   3.790  1.00  0.00     0.104 A 
HETATM    2  N   UNL     1      43.760 -17.643   3.719  1.00  0.00    -0.171 NA
HETATM    3  N   UNL     1      44.038 -17.953   4.990  1.00  0.00    -0.275 N 
HETATM    4  C   UNL     1      43.250 -17.301   5.888  1.00  0.00     0.132 A 
HETATM    5  C   UNL     1      42.342 -16.549   5.156  1.00  0.00     0.080 A 
ENDROOT
BRANCH   5   6
HETATM    6  C   UNL     1      41.249 -15.738   5.695  1.00  0.00     0.255 C 
HETATM    7  N   UNL     1      41.423 -14.379   5.543  1.00  0.00    -0.352 N 
HETATM    8  H   UNL     1      42.320 -14.071   5.199  1.00  0.00     0.163 HD
HETATM    9  O   UNL     1      40.271 -16.226   6.242  1.00  0.00    -0.268 OA
BRANCH   7  10
HETATM   10  C   UNL     1      40.526 -13.313   5.984  1.00  0.00     0.084 C 
HETATM   11  C   UNL     1      41.230 -11.981   6.271  1.00  0.00     0.028 C 
HETATM   12  C   UNL     1      41.241 -10.984   5.113  1.00  0.00     0.034 C 
HETATM   13  C   UNL     1      39.876 -10.843   4.451  1.00  0.00     0.118 C 
HETATM   14  C   UNL     1      39.324 -12.190   3.994  1.00  0.00     0.034 C 
HETATM   15  C   UNL     1      39.250 -13.199   5.140  1.00  0.00     0.028 C 
BRANCH  13  16
HETATM   16  O   UNL     1      38.974 -10.258   5.391  1.00  0.00    -0.396 OA
HETATM   17  H   UNL     1      38.138 -10.751   5.331  1.00  0.00     0.210 HD
ENDBRANCH  13  16
ENDBRANCH   7  10
ENDBRANCH   5   6
BRANCH   1  18
HETATM   18  C   UNL     1      42.184 -16.247   2.538  1.00  0.00    -0.005 A 
HETATM   19  C   UNL     1      41.717 -17.139   1.562  1.00  0.00     0.014 A 
HETATM   20  C   UNL     1      41.249 -16.678   0.326  1.00  0.00     0.008 A 
HETATM   21  C   UNL     1      41.245 -15.312   0.031  1.00  0.00    -0.059 A 
HETATM   22  C   UNL     1      41.708 -14.420   1.013  1.00  0.00     0.008 A 
HETATM   23  C   UNL     1      42.182 -14.882   2.247  1.00  0.00     0.014 A 
BRANCH  21  24
HETATM   24  C   UNL     1      40.763 -14.742  -1.283  1.00  0.00     0.034 C 
HETATM   25  C   UNL     1      40.969 -15.604  -2.523  1.00  0.00     0.010 C 
ENDBRANCH  21  24
ENDBRANCH   1  18
BRANCH   3  26
HETATM   26  C   UNL     1      45.094 -18.917   5.286  1.00  0.00     0.189 C 
BRANCH  26  27
HETATM   27  C   UNL     1      44.905 -20.212   4.531  1.00  0.00    -0.038 A 
HETATM   28  C   UNL     1      44.858 -21.442   5.208  1.00  0.00     0.009 A 
HETATM   29  C   UNL     1      44.674 -22.633   4.506  1.00  0.00     0.001 A 
HETATM   30  C   UNL     1      44.516 -22.610   3.121  1.00  0.00     0.000 A 
HETATM   31  C   UNL     1      44.540 -21.394   2.439  1.00  0.00     0.001 A 
HETATM   32  C   UNL     1      44.731 -20.202   3.140  1.00  0.00     0.009 A 
ENDBRANCH  26  27
ENDBRANCH   3  26
TORSDOF 7
ENDMDL
MODEL 6
REMARK VINA RESULT:      -7.8      2.254      3.214
REMARK  7 active torsions:
REMARK  status: ('A' for Active; 'I' for Inactive)
REMARK    1  A    between atoms: C_2  and  C_3 
REMARK    2  A    between atoms: C_6  and  C_7 
REMARK    3  A    between atoms: N_9  and  C_10 
REMARK    4  A    between atoms: C_10  and  C_11 
REMARK    5  A    between atoms: C_18  and  C_19 
REMARK       I    between atoms: C_19  and  N_20 
REMARK    6  A    between atoms: N_20  and  C_21 
REMARK    7  A    between atoms: C_24  and  O_25 
ROOT
HETATM    1  C   UNL     1      41.851 -15.912   0.874  1.00  0.00     0.104 A 
HETATM    2  N   UNL     1      41.349 -16.119  -0.360  1.00  0.00    -0.171 NA
HETATM    3  N   UNL     1      40.869 -14.931  -0.742  1.00  0.00    -0.275 N 
HETATM    4  C   UNL     1      41.015 -13.962   0.203  1.00  0.00     0.132 A 
HETATM    5  C   UNL     1      41.696 -14.537   1.267  1.00  0.00     0.080 A 
ENDROOT
BRANCH   5   6
HETATM    6  C   UNL     1      42.143 -13.858   2.484  1.00  0.00     0.255 C 
HETATM    7  N   UNL     1      41.241 -13.908   3.525  1.00  0.00    -0.352 N 
HETATM    8  H   UNL     1      40.329 -14.288   3.319  1.00  0.00     0.163 HD
HETATM    9  O   UNL     1      43.221 -13.286   2.565  1.00  0.00    -0.268 OA
BRANCH   7  10
HETATM   10  C   UNL     1      41.384 -13.318   4.855  1.00  0.00     0.084 C 
HETATM   11  C   UNL     1      41.680 -11.813   4.843  1.00  0.00     0.028 C 
HETATM   12  C   UNL     1      40.460 -10.905   4.977  1.00  0.00     0.034 C 
HETATM   13  C   UNL     1      39.519 -11.351   6.090  1.00  0.00     0.118 C 
HETATM   14  C   UNL     1      39.090 -12.805   5.923  1.00  0.00     0.034 C 
HETATM   15  C   UNL     1      40.287 -13.751   5.836  1.00  0.00     0.028 C 
BRANCH  13  16
HETATM   16  O   UNL     1      40.193 -11.198   7.341  1.00  0.00    -0.396 OA
HETATM   17  H   UNL     1      39.873 -10.370   7.739  1.00  0.00     0.210 HD
ENDBRANCH  13  16
ENDBRANCH   7  10
ENDBRANCH   5   6
BRANCH   1  18
HETATM   18  C   UNL     1      42.468 -17.044   1.569  1.00  0.00    -0.005 A 
HETATM   19  C   UNL     1      42.022 -17.389   2.853  1.00  0.00     0.014 A 
HETATM   20  C   UNL     1      42.633 -18.421   3.577  1.00  0.00     0.008 A 
HETATM   21  C   UNL     1      43.711 -19.127   3.037  1.00  0.00    -0.059 A 
HETATM   22  C   UNL     1      44.152 -18.782   1.748  1.00  0.00     0.008 A 
HETATM   23  C   UNL     1      43.544 -17.747   1.027  1.00  0.00     0.014 A 
BRANCH  21  24
HETATM   24  C   UNL     1      44.425 -20.245   3.762  1.00  0.00     0.034 C 
HETATM   25  C   UNL     1      44.603 -21.553   3.000  1.00  0.00     0.010 C 
ENDBRANCH  21  24
ENDBRANCH   1  18
BRANCH   3  26
HETATM   26  C   UNL     1      40.276 -14.781  -2.068  1.00  0.00     0.189 C 
BRANCH  26  27
HETATM   27  C   UNL     1      40.737 -13.517  -2.755  1.00  0.00    -0.038 A 
HETATM   28  C   UNL     1      42.105 -13.238  -2.912  1.00  0.00     0.009 A 
HETATM   29  C   UNL     1      42.523 -12.074  -3.557  1.00  0.00     0.001 A 
HETATM   30  C   UNL     1      41.582 -11.182  -4.068  1.00  0.00     0.000 A 
HETATM   31  C   UNL     1      40.221 -11.457  -3.936  1.00  0.00     0.001 A 
HETATM   32  C   UNL     1      39.801 -12.619  -3.286  1.00  0.00     0.009 A 
ENDBRANCH  26  27
ENDBRANCH   3  26
TORSDOF 7
ENDMDL
MODEL 7
REMARK VINA RESULT:      -7.7      2.001      2.778
REMARK  7 active torsions:
REMARK  status: ('A' for Active; 'I' for Inactive)
REMARK    1  A    between atoms: C_2  and  C_3 
REMARK    2  A    between atoms: C_6  and  C_7 
REMARK    3  A    between atoms: N_9  and  C_10 
REMARK    4  A    between atoms: C_10  and  C_11 
REMARK    5  A    between atoms: C_18  and  C_19 
REMARK       I    between atoms: C_19  and  N_20 
REMARK    6  A    between atoms: N_20  and  C_21 
REMARK    7  A    between atoms: C_24  and  O_25 
ROOT
HETATM    1  C   UNL     1      41.865 -15.695   0.974  1.00  0.00     0.104 A 
HETATM    2  N   UNL     1      41.839 -15.453  -0.352  1.00  0.00    -0.171 NA
HETATM    3  N   UNL     1      41.237 -14.265  -0.475  1.00  0.00    -0.275 N 
HETATM    4  C   UNL     1      40.847 -13.733   0.716  1.00  0.00     0.132 A 
HETATM    5  C   UNL     1      41.276 -14.606   1.706  1.00  0.00     0.080 A 
ENDROOT
BRANCH   5   6
HETATM    6  C   UNL     1      41.145 -14.415   3.151  1.00  0.00     0.255 C 
HETATM    7  N   UNL     1      40.561 -13.220   3.515  1.00  0.00    -0.352 N 
HETATM    8  H   UNL     1      40.398 -12.551   2.778  1.00  0.00     0.163 HD
HETATM    9  O   UNL     1      41.531 -15.241   3.965  1.00  0.00    -0.268 OA
BRANCH   7  10
HETATM   10  C   UNL     1      40.306 -12.730   4.869  1.00  0.00     0.084 C 
HETATM   11  C   UNL     1      41.483 -11.970   5.491  1.00  0.00     0.028 C 
HETATM   12  C   UNL     1      41.437 -10.451   5.333  1.00  0.00     0.034 C 
HETATM   13  C   UNL     1      40.068  -9.870   5.665  1.00  0.00     0.118 C 
HETATM   14  C   UNL     1      38.959 -10.528   4.850  1.00  0.00     0.034 C 
HETATM   15  C   UNL     1      38.942 -12.046   5.023  1.00  0.00     0.028 C 
BRANCH  13  16
HETATM   16  O   UNL     1      39.815 -10.072   7.056  1.00  0.00    -0.396 OA
HETATM   17  H   UNL     1      40.510  -9.599   7.545  1.00  0.00     0.210 HD
ENDBRANCH  13  16
ENDBRANCH   7  10
ENDBRANCH   5   6
BRANCH   1  18
HETATM   18  C   UNL     1      42.482 -16.939   1.438  1.00  0.00    -0.005 A 
HETATM   19  C   UNL     1      43.877 -17.009   1.568  1.00  0.00     0.014 A 
HETATM   20  C   UNL     1      44.509 -18.201   1.943  1.00  0.00     0.008 A 
HETATM   21  C   UNL     1      43.761 -19.356   2.188  1.00  0.00    -0.059 A 
HETATM   22  C   UNL     1      42.364 -19.281   2.063  1.00  0.00     0.008 A 
HETATM   23  C   UNL     1      41.733 -18.090   1.682  1.00  0.00     0.014 A 
BRANCH  21  24
HETATM   24  C   UNL     1      44.374 -20.679   2.588  1.00  0.00     0.034 C 
HETATM   25  C   UNL     1      44.107 -21.865   1.669  1.00  0.00     0.010 C 
ENDBRANCH  21  24
ENDBRANCH   1  18
BRANCH   3  26
HETATM   26  C   UNL     1      41.071 -13.670  -1.798  1.00  0.00     0.189 C 
BRANCH  26  27
HETATM   27  C   UNL     1      39.924 -14.293  -2.559  1.00  0.00    -0.038 A 
HETATM   28  C   UNL     1      40.143 -15.350  -3.458  1.00  0.00     0.009 A 
HETATM   29  C   UNL     1      39.078 -15.927  -4.150  1.00  0.00     0.001 A 
HETATM   30  C   UNL     1      37.780 -15.468  -3.940  1.00  0.00     0.000 A 
HETATM   31  C   UNL     1      37.545 -14.433  -3.036  1.00  0.00     0.001 A 
HETATM   32  C   UNL     1      38.611 -13.851  -2.347  1.00  0.00     0.009 A 
ENDBRANCH  26  27
ENDBRANCH   3  26
TORSDOF 7
ENDMDL
MODEL 8
REMARK VINA RESULT:      -7.7      2.495      7.056
REMARK  7 active torsions:
REMARK  status: ('A' for Active; 'I' for Inactive)
REMARK    1  A    between atoms: C_2  and  C_3 
REMARK    2  A    between atoms: C_6  and  C_7 
REMARK    3  A    between atoms: N_9  and  C_10 
REMARK    4  A    between atoms: C_10  and  C_11 
REMARK    5  A    between atoms: C_18  and  C_19 
REMARK       I    between atoms: C_19  and  N_20 
REMARK    6  A    between atoms: N_20  and  C_21 
REMARK    7  A    between atoms: C_24  and  O_25 
ROOT
HETATM    1  C   UNL     1      41.728 -16.429   2.261  1.00  0.00     0.104 A 
HETATM    2  N   UNL     1      42.515 -17.232   1.518  1.00  0.00    -0.171 NA
HETATM    3  N   UNL     1      43.341 -17.813   2.394  1.00  0.00    -0.275 N 
HETATM    4  C   UNL     1      43.140 -17.403   3.677  1.00  0.00     0.132 A 
HETATM    5  C   UNL     1      42.062 -16.530   3.656  1.00  0.00     0.080 A 
ENDROOT
BRANCH   5   6
HETATM    6  C   UNL     1      41.437 -15.891   4.815  1.00  0.00     0.255 C 
HETATM    7  N   UNL     1      41.388 -14.515   4.747  1.00  0.00    -0.352 N 
HETATM    8  H   UNL     1      41.888 -14.080   3.986  1.00  0.00     0.163 HD
HETATM    9  O   UNL     1      41.004 -16.526   5.766  1.00  0.00    -0.268 OA
BRANCH   7  10
HETATM   10  C   UNL     1      40.845 -13.594   5.744  1.00  0.00     0.084 C 
HETATM   11  C   UNL     1      41.689 -12.330   5.953  1.00  0.00     0.028 C 
HETATM   12  C   UNL     1      41.257 -11.113   5.137  1.00  0.00     0.034 C 
HETATM   13  C   UNL     1      39.752 -10.880   5.188  1.00  0.00     0.118 C 
HETATM   14  C   UNL     1      38.970 -12.118   4.760  1.00  0.00     0.034 C 
HETATM   15  C   UNL     1      39.339 -13.347   5.590  1.00  0.00     0.028 C 
BRANCH  13  16
HETATM   16  O   UNL     1      39.391 -10.533   6.526  1.00  0.00    -0.396 OA
HETATM   17  H   UNL     1      38.708  -9.843   6.469  1.00  0.00     0.210 HD
ENDBRANCH  13  16
ENDBRANCH   7  10
ENDBRANCH   5   6
BRANCH   1  18
HETATM   18  C   UNL     1      40.694 -15.649   1.577  1.00  0.00    -0.005 A 
HETATM   19  C   UNL     1      41.011 -14.978   0.388  1.00  0.00     0.014 A 
HETATM   20  C   UNL     1      40.069 -14.167  -0.259  1.00  0.00     0.008 A 
HETATM   21  C   UNL     1      38.788 -14.001   0.275  1.00  0.00    -0.059 A 
HETATM   22  C   UNL     1      38.472 -14.680   1.464  1.00  0.00     0.008 A 
HETATM   23  C   UNL     1      39.416 -15.485   2.113  1.00  0.00     0.014 A 
BRANCH  21  24
HETATM   24  C   UNL     1      37.724 -13.137  -0.361  1.00  0.00     0.034 C 
HETATM   25  C   UNL     1      36.885 -12.278   0.578  1.00  0.00     0.010 C 
ENDBRANCH  21  24
ENDBRANCH   1  18
BRANCH   3  26
HETATM   26  C   UNL     1      44.321 -18.790   1.929  1.00  0.00     0.189 C 
BRANCH  26  27
HETATM   27  C   UNL     1      44.416 -19.981   2.853  1.00  0.00    -0.038 A 
HETATM   28  C   UNL     1      44.297 -21.291   2.359  1.00  0.00     0.009 A 
HETATM   29  C   UNL     1      44.396 -22.387   3.216  1.00  0.00     0.001 A 
HETATM   30  C   UNL     1      44.634 -22.189   4.575  1.00  0.00     0.000 A 
HETATM   31  C   UNL     1      44.774 -20.896   5.076  1.00  0.00     0.001 A 
HETATM   32  C   UNL     1      44.670 -19.798   4.220  1.00  0.00     0.009 A 
ENDBRANCH  26  27
ENDBRANCH   3  26
TORSDOF 7
ENDMDL
MODEL 9
REMARK VINA RESULT:      -7.7      2.038      4.397
REMARK  7 active torsions:
REMARK  status: ('A' for Active; 'I' for Inactive)
REMARK    1  A    between atoms: C_2  and  C_3 
REMARK    2  A    between atoms: C_6  and  C_7 
REMARK    3  A    between atoms: N_9  and  C_10 
REMARK    4  A    between atoms: C_10  and  C_11 
REMARK    5  A    between atoms: C_18  and  C_19 
REMARK       I    between atoms: C_19  and  N_20 
REMARK    6  A    between atoms: N_20  and  C_21 
REMARK    7  A    between atoms: C_24  and  O_25 
ROOT
HETATM    1  C   UNL     1      41.872 -14.824   1.424  1.00  0.00     0.104 A 
HETATM    2  N   UNL     1      41.784 -13.857   0.489  1.00  0.00    -0.171 NA
HETATM    3  N   UNL     1      41.404 -14.488  -0.627  1.00  0.00    -0.275 N 
HETATM    4  C   UNL     1      41.264 -15.833  -0.464  1.00  0.00     0.132 A 
HETATM    5  C   UNL     1      41.512 -16.103   0.875  1.00  0.00     0.080 A 
ENDROOT
BRANCH   5   6
HETATM    6  C   UNL     1      41.409 -17.407   1.532  1.00  0.00     0.255 C 
HETATM    7  N   UNL     1      42.375 -17.638   2.489  1.00  0.00    -0.352 N 
HETATM    8  H   UNL     1      43.119 -16.960   2.557  1.00  0.00     0.163 HD
HETATM    9  O   UNL     1      40.545 -18.224   1.249  1.00  0.00    -0.268 OA
BRANCH   7  10
HETATM   10  C   UNL     1      42.550 -18.839   3.304  1.00  0.00     0.084 C 
HETATM   11  C   UNL     1      43.338 -19.956   2.610  1.00  0.00     0.028 C 
HETATM   12  C   UNL     1      44.836 -19.984   2.911  1.00  0.00     0.034 C 
HETATM   13  C   UNL     1      45.136 -19.833   4.397  1.00  0.00     0.118 C 
HETATM   14  C   UNL     1      44.494 -18.579   4.982  1.00  0.00     0.034 C 
HETATM   15  C   UNL     1      42.985 -18.541   4.744  1.00  0.00     0.028 C 
BRANCH  13  16
HETATM   16  O   UNL     1      44.633 -20.983   5.081  1.00  0.00    -0.396 OA
HETATM   17  H   UNL     1      43.677 -21.024   4.906  1.00  0.00     0.210 HD
ENDBRANCH  13  16
ENDBRANCH   7  10
ENDBRANCH   5   6
BRANCH   1  18
HETATM   18  C   UNL     1      42.265 -14.440   2.781  1.00  0.00    -0.005 A 
HETATM   19  C   UNL     1      43.622 -14.252   3.078  1.00  0.00     0.014 A 
HETATM   20  C   UNL     1      44.043 -13.951   4.380  1.00  0.00     0.008 A 
HETATM   21  C   UNL     1      43.115 -13.841   5.419  1.00  0.00    -0.059 A 
HETATM   22  C   UNL     1      41.755 -14.024   5.118  1.00  0.00     0.008 A 
HETATM   23  C   UNL     1      41.336 -14.331   3.817  1.00  0.00     0.014 A 
BRANCH  21  24
HETATM   24  C   UNL     1      43.495 -13.528   6.849  1.00  0.00     0.034 C 
HETATM   25  C   UNL     1      44.944 -13.784   7.246  1.00  0.00     0.010 C 
ENDBRANCH  21  24
ENDBRANCH   1  18
BRANCH   3  26
HETATM   26  C   UNL     1      41.173 -13.725  -1.849  1.00  0.00     0.189 C 
BRANCH  26  27
HETATM   27  C   UNL     1      39.954 -14.209  -2.598  1.00  0.00    -0.038 A 
HETATM   28  C   UNL     1      38.721 -13.547  -2.479  1.00  0.00     0.009 A 
HETATM   29  C   UNL     1      37.602 -13.993  -3.181  1.00  0.00     0.001 A 
HETATM   30  C   UNL     1      37.704 -15.097  -4.026  1.00  0.00     0.000 A 
HETATM   31  C   UNL     1      38.926 -15.752  -4.170  1.00  0.00     0.001 A 
HETATM   32  C   UNL     1      40.045 -15.310  -3.463  1.00  0.00     0.009 A 
ENDBRANCH  26  27
ENDBRANCH   3  26
TORSDOF 7
ENDMDL
MODEL 10
REMARK VINA RESULT:      -7.6      2.130      4.614
REMARK  7 active torsions:
REMARK  status: ('A' for Active; 'I' for Inactive)
REMARK    1  A    between atoms: C_2  and  C_3 
REMARK    2  A    between atoms: C_6  and  C_7 
REMARK    3  A    between atoms: N_9  and  C_10 
REMARK    4  A    between atoms: C_10  and  C_11 
REMARK    5  A    between atoms: C_18  and  C_19 
REMARK       I    between atoms: C_19  and  N_20 
REMARK    6  A    between atoms: N_20  and  C_21 
REMARK    7  A    between atoms: C_24  and  O_25 
ROOT
HETATM    1  C   UNL     1      41.498 -14.533   1.569  1.00  0.00     0.104 A 
HETATM    2  N   UNL     1      41.356 -13.771   0.466  1.00  0.00    -0.171 NA
HETATM    3  N   UNL     1      41.519 -14.613  -0.560  1.00  0.00    -0.275 N 
HETATM    4  C   UNL     1      41.786 -15.890  -0.171  1.00  0.00     0.132 A 
HETATM    5  C   UNL     1      41.737 -15.907   1.216  1.00  0.00     0.080 A 
ENDROOT
BRANCH   5   6
HETATM    6  C   UNL     1      41.889 -17.080   2.078  1.00  0.00     0.255 C 
HETATM    7  N   UNL     1      42.246 -16.788   3.377  1.00  0.00    -0.352 N 
HETATM    8  H   UNL     1      42.486 -15.829   3.577  1.00  0.00     0.163 HD
HETATM    9  O   UNL     1      41.723 -18.223   1.674  1.00  0.00    -0.268 OA
BRANCH   7  10
HETATM   10  C   UNL     1      42.488 -17.732   4.467  1.00  0.00     0.084 C 
HETATM   11  C   UNL     1      43.901 -17.656   5.058  1.00  0.00     0.028 C 
HETATM   12  C   UNL     1      44.047 -16.767   6.292  1.00  0.00     0.034 C 
HETATM   13  C   UNL     1      42.948 -17.009   7.319  1.00  0.00     0.118 C 
HETATM   14  C   UNL     1      41.557 -16.858   6.710  1.00  0.00     0.034 C 
HETATM   15  C   UNL     1      41.357 -17.771   5.502  1.00  0.00     0.028 C 
BRANCH  13  16
HETATM   16  O   UNL     1      43.095 -18.332   7.838  1.00  0.00    -0.396 OA
HETATM   17  H   UNL     1      42.535 -18.393   8.631  1.00  0.00     0.210 HD
ENDBRANCH  13  16
ENDBRANCH   7  10
ENDBRANCH   5   6
BRANCH   1  18
HETATM   18  C   UNL     1      41.361 -13.890   2.877  1.00  0.00    -0.005 A 
HETATM   19  C   UNL     1      40.140 -13.974   3.562  1.00  0.00     0.014 A 
HETATM   20  C   UNL     1      39.949 -13.316   4.783  1.00  0.00     0.008 A 
HETATM   21  C   UNL     1      40.973 -12.548   5.345  1.00  0.00    -0.059 A 
HETATM   22  C   UNL     1      42.197 -12.470   4.659  1.00  0.00     0.008 A 
HETATM   23  C   UNL     1      42.385 -13.124   3.435  1.00  0.00     0.014 A 
BRANCH  21  24
HETATM   24  C   UNL     1      40.837 -11.803   6.653  1.00  0.00     0.034 C 
HETATM   25  C   UNL     1      39.479 -11.865   7.341  1.00  0.00     0.010 C 
ENDBRANCH  21  24
ENDBRANCH   1  18
BRANCH   3  26
HETATM   26  C   UNL     1      41.392 -14.121  -1.928  1.00  0.00     0.189 C 
BRANCH  26  27
HETATM   27  C   UNL     1      40.109 -14.583  -2.579  1.00  0.00    -0.038 A 
HETATM   28  C   UNL     1      38.889 -13.943  -2.306  1.00  0.00     0.009 A 
HETATM   29  C   UNL     1      37.710 -14.368  -2.919  1.00  0.00     0.001 A 
HETATM   30  C   UNL     1      37.737 -15.426  -3.824  1.00  0.00     0.000 A 
HETATM   31  C   UNL     1      38.945 -16.058  -4.120  1.00  0.00     0.001 A 
HETATM   32  C   UNL     1      40.124 -15.637  -3.503  1.00  0.00     0.009 A 
ENDBRANCH  26  27
ENDBRANCH   3  26
TORSDOF 7
ENDMDL
