MODEL 1
REMARK VINA RESULT:      -8.2      0.000      0.000
REMARK  6 active torsions:
REMARK  status: ('A' for Active; 'I' for Inactive)
REMARK    1  A    between atoms: O_2  and  C_3 
REMARK    2  A    between atoms: C_3  and  C_4 
REMARK    3  A    between atoms: C_4  and  N_5 
REMARK       I    between atoms: N_5  and  C_6 
REMARK    4  A    between atoms: C_6  and  C_7 
REMARK    5  A    between atoms: C_12  and  C_13 
REMARK    6  A    between atoms: C_22  and  C_23 
ROOT
HETATM    1  C   UNL     1      39.988 -14.996   1.265  1.00  0.00     0.148 A 
HETATM    2  N   UNL     1      40.247 -14.783   2.576  1.00  0.00    -0.165 NA
HETATM    3  N   UNL     1      41.371 -15.491   2.791  1.00  0.00    -0.240 N 
HETATM    4  C   UNL     1      41.898 -16.053   1.665  1.00  0.00     0.123 A 
HETATM    5  N   UNL     1      43.067 -16.721   1.682  1.00  0.00    -0.366 N 
HETATM    6  C   UNL     1      43.928 -16.795   2.854  1.00  0.00     0.118 C 
HETATM    7  C   UNL     1      43.497 -15.820   3.967  1.00  0.00     0.066 C 
HETATM    8  C   UNL     1      41.981 -15.588   4.101  1.00  0.00     0.221 C 
HETATM    9  C   UNL     1      41.006 -15.785   0.661  1.00  0.00     0.088 A 
HETATM   10  H   UNL     1      43.444 -17.139   0.833  1.00  0.00     0.161 HD
ENDROOT
BRANCH   1  11
HETATM   11  C   UNL     1      38.804 -14.448   0.585  1.00  0.00     0.272 C 
HETATM   12  N   UNL     1      38.973 -14.256  -0.768  1.00  0.00    -0.354 N 
HETATM   13  H   UNL     1      39.805 -14.682  -1.169  1.00  0.00     0.162 HD
HETATM   14  O   UNL     1      37.756 -14.203   1.176  1.00  0.00    -0.266 OA
BRANCH  12  15
HETATM   15  C   UNL     1      37.850 -13.947  -1.626  1.00  0.00     0.149 C 
BRANCH  15  16
HETATM   16  C   UNL     1      38.187 -14.128  -3.103  1.00  0.00     0.186 C 
BRANCH  16  17
HETATM   17  O   UNL     1      37.811 -15.448  -3.509  1.00  0.00    -0.394 OA
HETATM   18  C   UNL     1      38.866 -16.101  -4.202  1.00  0.00     0.201 C 
ENDBRANCH  16  17
ENDBRANCH  15  16
ENDBRANCH  12  15
ENDBRANCH   1  11
BRANCH   8  19
HETATM   19  C   UNL     1      41.272 -16.637   4.926  1.00  0.00     0.409 C 
HETATM   20  F   UNL     1      42.019 -17.143   5.925  1.00  0.00    -0.169 F 
HETATM   21  F   UNL     1      40.159 -16.105   5.495  1.00  0.00    -0.169 F 
HETATM   22  F   UNL     1      40.848 -17.676   4.171  1.00  0.00    -0.169 F 
ENDBRANCH   8  19
BRANCH   6  23
HETATM   23  C   UNL     1      44.140 -18.232   3.300  1.00  0.00    -0.034 A 
HETATM   24  C   UNL     1      44.000 -19.270   2.360  1.00  0.00     0.034 A 
HETATM   25  C   UNL     1      44.137 -20.613   2.736  1.00  0.00     0.056 A 
HETATM   26 CL   UNL     1      43.916 -21.814   1.513  1.00  0.00    -0.083 Cl
HETATM   27  C   UNL     1      44.429 -20.940   4.063  1.00  0.00     0.055 A 
HETATM   28 CL   UNL     1      44.607 -22.570   4.602  1.00  0.00    -0.083 Cl
HETATM   29  C   UNL     1      44.580 -19.921   5.004  1.00  0.00     0.026 A 
HETATM   30  C   UNL     1      44.430 -18.583   4.626  1.00  0.00     0.011 A 
ENDBRANCH   6  23
TORSDOF 6
ENDMDL
MODEL 2
REMARK VINA RESULT:      -7.9      1.324      1.960
REMARK  6 active torsions:
REMARK  status: ('A' for Active; 'I' for Inactive)
REMARK    1  A    between atoms: O_2  and  C_3 
REMARK    2  A    between atoms: C_3  and  C_4 
REMARK    3  A    between atoms: C_4  and  N_5 
REMARK       I    between atoms: N_5  and  C_6 
REMARK    4  A    between atoms: C_6  and  C_7 
REMARK    5  A    between atoms: C_12  and  C_13 
REMARK    6  A    between atoms: C_22  and  C_23 
ROOT
HETATM    1  C   UNL     1      40.131 -14.614   0.153  1.00  0.00     0.148 A 
HETATM    2  N   UNL     1      40.414 -14.366   1.452  1.00  0.00    -0.165 NA
HETATM    3  N   UNL     1      41.458 -15.176   1.705  1.00  0.00    -0.240 N 
HETATM    4  C   UNL     1      41.920 -15.845   0.609  1.00  0.00     0.123 A 
HETATM    5  N   UNL     1      43.012 -16.631   0.663  1.00  0.00    -0.366 N 
HETATM    6  C   UNL     1      43.864 -16.737   1.839  1.00  0.00     0.118 C 
HETATM    7  C   UNL     1      43.541 -15.670   2.902  1.00  0.00     0.066 C 
HETATM    8  C   UNL     1      42.057 -15.273   3.020  1.00  0.00     0.221 C 
HETATM    9  C   UNL     1      41.059 -15.534  -0.408  1.00  0.00     0.088 A 
HETATM   10  H   UNL     1      43.341 -17.127  -0.164  1.00  0.00     0.161 HD
ENDROOT
BRANCH   1  11
HETATM   11  C   UNL     1      39.009 -13.979  -0.556  1.00  0.00     0.272 C 
HETATM   12  N   UNL     1      38.928 -14.312  -1.889  1.00  0.00    -0.354 N 
HETATM   13  H   UNL     1      39.517 -15.088  -2.182  1.00  0.00     0.162 HD
HETATM   14  O   UNL     1      38.211 -13.232   0.003  1.00  0.00    -0.266 OA
BRANCH  12  15
HETATM   15  C   UNL     1      37.764 -13.968  -2.677  1.00  0.00     0.149 C 
BRANCH  15  16
HETATM   16  C   UNL     1      37.618 -14.858  -3.908  1.00  0.00     0.186 C 
BRANCH  16  17
HETATM   17  O   UNL     1      36.233 -14.952  -4.255  1.00  0.00    -0.394 OA
HETATM   18  C   UNL     1      35.873 -13.985  -5.231  1.00  0.00     0.201 C 
ENDBRANCH  16  17
ENDBRANCH  15  16
ENDBRANCH  12  15
ENDBRANCH   1  11
BRANCH   8  19
HETATM   19  C   UNL     1      41.245 -16.200   3.894  1.00  0.00     0.409 C 
HETATM   20  F   UNL     1      40.787 -17.292   3.254  1.00  0.00    -0.169 F 
HETATM   21  F   UNL     1      42.002 -16.639   4.933  1.00  0.00    -0.169 F 
HETATM   22  F   UNL     1      40.178 -15.575   4.443  1.00  0.00    -0.169 F 
ENDBRANCH   8  19
BRANCH   6  23
HETATM   23  C   UNL     1      43.925 -18.166   2.356  1.00  0.00    -0.034 A 
HETATM   24  C   UNL     1      44.132 -18.391   3.729  1.00  0.00     0.034 A 
HETATM   25  C   UNL     1      44.246 -19.690   4.243  1.00  0.00     0.056 A 
HETATM   26 CL   UNL     1      44.530 -19.859   5.939  1.00  0.00    -0.083 Cl
HETATM   27  C   UNL     1      44.141 -20.789   3.387  1.00  0.00     0.055 A 
HETATM   28 CL   UNL     1      44.275 -22.418   3.945  1.00  0.00    -0.083 Cl
HETATM   29  C   UNL     1      43.926 -20.582   2.024  1.00  0.00     0.026 A 
HETATM   30  C   UNL     1      43.827 -19.283   1.515  1.00  0.00     0.011 A 
ENDBRANCH   6  23
TORSDOF 6
ENDMDL
MODEL 3
REMARK VINA RESULT:      -7.8      4.137      6.401
REMARK  6 active torsions:
REMARK  status: ('A' for Active; 'I' for Inactive)
REMARK    1  A    between atoms: O_2  and  C_3 
REMARK    2  A    between atoms: C_3  and  C_4 
REMARK    3  A    between atoms: C_4  and  N_5 
REMARK       I    between atoms: N_5  and  C_6 
REMARK    4  A    between atoms: C_6  and  C_7 
REMARK    5  A    between atoms: C_12  and  C_13 
REMARK    6  A    between atoms: C_22  and  C_23 
ROOT
HETATM    1  C   UNL     1      40.270 -12.990   5.694  1.00  0.00     0.148 A 
HETATM    2  N   UNL     1      41.012 -12.887   4.568  1.00  0.00    -0.165 NA
HETATM    3  N   UNL     1      41.166 -14.165   4.177  1.00  0.00    -0.240 N 
HETATM    4  C   UNL     1      40.472 -15.065   4.933  1.00  0.00     0.123 A 
HETATM    5  N   UNL     1      40.441 -16.376   4.629  1.00  0.00    -0.366 N 
HETATM    6  C   UNL     1      41.027 -16.930   3.417  1.00  0.00     0.118 C 
HETATM    7  C   UNL     1      41.440 -15.841   2.408  1.00  0.00     0.066 C 
HETATM    8  C   UNL     1      41.958 -14.527   3.020  1.00  0.00     0.221 C 
HETATM    9  C   UNL     1      39.909 -14.342   5.950  1.00  0.00     0.088 A 
HETATM   10  H   UNL     1      39.921 -17.036   5.207  1.00  0.00     0.161 HD
ENDROOT
BRANCH   1  11
HETATM   11  C   UNL     1      39.890 -11.826   6.511  1.00  0.00     0.272 C 
HETATM   12  N   UNL     1      40.543 -11.753   7.720  1.00  0.00    -0.354 N 
HETATM   13  H   UNL     1      41.334 -12.383   7.828  1.00  0.00     0.162 HD
HETATM   14  O   UNL     1      39.074 -10.991   6.131  1.00  0.00    -0.266 OA
BRANCH  12  15
HETATM   15  C   UNL     1      40.467 -10.563   8.541  1.00  0.00     0.149 C 
BRANCH  15  16
HETATM   16  C   UNL     1      41.742  -9.729   8.466  1.00  0.00     0.186 C 
BRANCH  16  17
HETATM   17  O   UNL     1      42.871 -10.607   8.398  1.00  0.00    -0.394 OA
HETATM   18  C   UNL     1      43.476 -10.778   9.672  1.00  0.00     0.201 C 
ENDBRANCH  16  17
ENDBRANCH  15  16
ENDBRANCH  12  15
ENDBRANCH   1  11
BRANCH   8  19
HETATM   19  C   UNL     1      43.424 -14.559   3.385  1.00  0.00     0.409 C 
HETATM   20  F   UNL     1      43.668 -15.006   4.631  1.00  0.00    -0.169 F 
HETATM   21  F   UNL     1      44.095 -15.378   2.533  1.00  0.00    -0.169 F 
HETATM   22  F   UNL     1      44.003 -13.342   3.270  1.00  0.00    -0.169 F 
ENDBRANCH   8  19
BRANCH   6  23
HETATM   23  C   UNL     1      42.102 -17.956   3.736  1.00  0.00    -0.034 A 
HETATM   24  C   UNL     1      42.404 -18.239   5.081  1.00  0.00     0.034 A 
HETATM   25  C   UNL     1      43.422 -19.140   5.423  1.00  0.00     0.056 A 
HETATM   26 CL   UNL     1      43.734 -19.395   7.103  1.00  0.00    -0.083 Cl
HETATM   27  C   UNL     1      44.149 -19.784   4.419  1.00  0.00     0.055 A 
HETATM   28 CL   UNL     1      45.419 -20.902   4.762  1.00  0.00    -0.083 Cl
HETATM   29  C   UNL     1      43.855 -19.521   3.080  1.00  0.00     0.026 A 
HETATM   30  C   UNL     1      42.848 -18.611   2.745  1.00  0.00     0.011 A 
ENDBRANCH   6  23
TORSDOF 6
ENDMDL
MODEL 4
REMARK VINA RESULT:      -7.8      1.004      1.362
REMARK  6 active torsions:
REMARK  status: ('A' for Active; 'I' for Inactive)
REMARK    1  A    between atoms: O_2  and  C_3 
REMARK    2  A    between atoms: C_3  and  C_4 
REMARK    3  A    between atoms: C_4  and  N_5 
REMARK       I    between atoms: N_5  and  C_6 
REMARK    4  A    between atoms: C_6  and  C_7 
REMARK    5  A    between atoms: C_12  and  C_13 
REMARK    6  A    between atoms: C_22  and  C_23 
ROOT
HETATM    1  C   UNL     1      39.834 -14.929   2.025  1.00  0.00     0.148 A 
HETATM    2  N   UNL     1      40.055 -14.868   3.358  1.00  0.00    -0.165 NA
HETATM    3  N   UNL     1      41.206 -15.546   3.515  1.00  0.00    -0.240 N 
HETATM    4  C   UNL     1      41.783 -15.941   2.343  1.00  0.00     0.123 A 
HETATM    5  N   UNL     1      42.982 -16.553   2.310  1.00  0.00    -0.366 N 
HETATM    6  C   UNL     1      43.820 -16.733   3.486  1.00  0.00     0.118 C 
HETATM    7  C   UNL     1      43.321 -15.923   4.698  1.00  0.00     0.066 C 
HETATM    8  C   UNL     1      41.793 -15.777   4.819  1.00  0.00     0.221 C 
HETATM    9  C   UNL     1      40.901 -15.591   1.356  1.00  0.00     0.088 A 
HETATM   10  H   UNL     1      43.396 -16.846   1.426  1.00  0.00     0.161 HD
ENDROOT
BRANCH   1  11
HETATM   11  C   UNL     1      38.640 -14.354   1.385  1.00  0.00     0.272 C 
HETATM   12  N   UNL     1      38.837 -13.099   0.856  1.00  0.00    -0.354 N 
HETATM   13  H   UNL     1      39.806 -12.797   0.795  1.00  0.00     0.162 HD
HETATM   14  O   UNL     1      37.571 -14.955   1.319  1.00  0.00    -0.266 OA
BRANCH  12  15
HETATM   15  C   UNL     1      37.848 -12.486  -0.005  1.00  0.00     0.149 C 
BRANCH  15  16
HETATM   16  C   UNL     1      38.360 -12.303  -1.430  1.00  0.00     0.186 C 
BRANCH  16  17
HETATM   17  O   UNL     1      38.908 -13.541  -1.893  1.00  0.00    -0.394 OA
HETATM   18  C   UNL     1      37.950 -14.297  -2.620  1.00  0.00     0.201 C 
ENDBRANCH  16  17
ENDBRANCH  15  16
ENDBRANCH  12  15
ENDBRANCH   1  11
BRANCH   8  19
HETATM   19  C   UNL     1      41.118 -16.950   5.490  1.00  0.00     0.409 C 
HETATM   20  F   UNL     1      40.779 -17.942   4.646  1.00  0.00    -0.169 F 
HETATM   21  F   UNL     1      41.946 -17.489   6.423  1.00  0.00    -0.169 F 
HETATM   22  F   UNL     1      39.997 -16.580   6.151  1.00  0.00    -0.169 F 
ENDBRANCH   8  19
BRANCH   6  23
HETATM   23  C   UNL     1      44.091 -18.204   3.759  1.00  0.00    -0.034 A 
HETATM   24  C   UNL     1      43.965 -19.131   2.707  1.00  0.00     0.034 A 
HETATM   25  C   UNL     1      44.156 -20.502   2.923  1.00  0.00     0.056 A 
HETATM   26 CL   UNL     1      43.949 -21.562   1.573  1.00  0.00    -0.083 Cl
HETATM   27  C   UNL     1      44.489 -20.968   4.197  1.00  0.00     0.055 A 
HETATM   28 CL   UNL     1      44.734 -22.643   4.540  1.00  0.00    -0.083 Cl
HETATM   29  C   UNL     1      44.626 -20.060   5.248  1.00  0.00     0.026 A 
HETATM   30  C   UNL     1      44.421 -18.694   5.030  1.00  0.00     0.011 A 
ENDBRANCH   6  23
TORSDOF 6
ENDMDL
MODEL 5
REMARK VINA RESULT:      -7.4      4.767      7.784
REMARK  6 active torsions:
REMARK  status: ('A' for Active; 'I' for Inactive)
REMARK    1  A    between atoms: O_2  and  C_3 
REMARK    2  A    between atoms: C_3  and  C_4 
REMARK    3  A    between atoms: C_4  and  N_5 
REMARK       I    between atoms: N_5  and  C_6 
REMARK    4  A    between atoms: C_6  and  C_7 
REMARK    5  A    between atoms: C_12  and  C_13 
REMARK    6  A    between atoms: C_22  and  C_23 
ROOT
HETATM    1  C   UNL     1      42.991 -17.783   5.257  1.00  0.00     0.148 A 
HETATM    2  N   UNL     1      43.179 -16.444   5.289  1.00  0.00    -0.165 NA
HETATM    3  N   UNL     1      42.281 -15.981   4.399  1.00  0.00    -0.240 N 
HETATM    4  C   UNL     1      41.461 -16.944   3.885  1.00  0.00     0.123 A 
HETATM    5  N   UNL     1      40.450 -16.644   3.049  1.00  0.00    -0.366 N 
HETATM    6  C   UNL     1      40.059 -15.280   2.722  1.00  0.00     0.118 C 
HETATM    7  C   UNL     1      40.740 -14.237   3.628  1.00  0.00     0.066 C 
HETATM    8  C   UNL     1      42.175 -14.574   4.073  1.00  0.00     0.221 C 
HETATM    9  C   UNL     1      41.918 -18.131   4.390  1.00  0.00     0.088 A 
HETATM   10  H   UNL     1      39.850 -17.376   2.670  1.00  0.00     0.161 HD
ENDROOT
BRANCH   1  11
HETATM   11  C   UNL     1      43.802 -18.723   6.047  1.00  0.00     0.272 C 
HETATM   12  N   UNL     1      43.485 -20.047   5.840  1.00  0.00    -0.354 N 
HETATM   13  H   UNL     1      42.879 -20.232   5.045  1.00  0.00     0.162 HD
HETATM   14  O   UNL     1      44.691 -18.352   6.807  1.00  0.00    -0.266 OA
BRANCH  12  15
HETATM   15  C   UNL     1      44.328 -21.107   6.352  1.00  0.00     0.149 C 
BRANCH  15  16
HETATM   16  C   UNL     1      44.815 -22.039   5.247  1.00  0.00     0.186 C 
BRANCH  16  17
HETATM   17  O   UNL     1      44.798 -21.336   4.001  1.00  0.00    -0.394 OA
HETATM   18  C   UNL     1      44.448 -22.192   2.923  1.00  0.00     0.201 C 
ENDBRANCH  16  17
ENDBRANCH  15  16
ENDBRANCH  12  15
ENDBRANCH   1  11
BRANCH   8  19
HETATM   19  C   UNL     1      43.233 -14.195   3.064  1.00  0.00     0.409 C 
HETATM   20  F   UNL     1      42.831 -13.269   2.173  1.00  0.00    -0.169 F 
HETATM   21  F   UNL     1      44.319 -13.684   3.701  1.00  0.00    -0.169 F 
HETATM   22  F   UNL     1      43.675 -15.265   2.365  1.00  0.00    -0.169 F 
ENDBRANCH   8  19
BRANCH   6  23
HETATM   23  C   UNL     1      40.170 -15.011   1.230  1.00  0.00    -0.034 A 
HETATM   24  C   UNL     1      39.293 -14.087   0.632  1.00  0.00     0.034 A 
HETATM   25  C   UNL     1      39.324 -13.844  -0.747  1.00  0.00     0.056 A 
HETATM   26 CL   UNL     1      38.185 -12.713  -1.388  1.00  0.00    -0.083 Cl
HETATM   27  C   UNL     1      40.246 -14.517  -1.553  1.00  0.00     0.055 A 
HETATM   28 CL   UNL     1      40.341 -14.274  -3.260  1.00  0.00    -0.083 Cl
HETATM   29  C   UNL     1      41.128 -15.430  -0.973  1.00  0.00     0.026 A 
HETATM   30  C   UNL     1      41.084 -15.678   0.402  1.00  0.00     0.011 A 
ENDBRANCH   6  23
TORSDOF 6
ENDMDL
MODEL 6
REMARK VINA RESULT:      -7.4      4.574      7.939
REMARK  6 active torsions:
REMARK  status: ('A' for Active; 'I' for Inactive)
REMARK    1  A    between atoms: O_2  and  C_3 
REMARK    2  A    between atoms: C_3  and  C_4 
REMARK    3  A    between atoms: C_4  and  N_5 
REMARK       I    between atoms: N_5  and  C_6 
REMARK    4  A    between atoms: C_6  and  C_7 
REMARK    5  A    between atoms: C_12  and  C_13 
REMARK    6  A    between atoms: C_22  and  C_23 
ROOT
HETATM    1  C   UNL     1      42.622 -17.501   3.164  1.00  0.00     0.148 A 
HETATM    2  N   UNL     1      42.505 -16.285   3.746  1.00  0.00    -0.165 NA
HETATM    3  N   UNL     1      41.551 -15.679   3.016  1.00  0.00    -0.240 N 
HETATM    4  C   UNL     1      40.981 -16.481   2.070  1.00  0.00     0.123 A 
HETATM    5  N   UNL     1      39.952 -16.064   1.309  1.00  0.00    -0.366 N 
HETATM    6  C   UNL     1      39.276 -14.789   1.508  1.00  0.00     0.118 C 
HETATM    7  C   UNL     1      39.682 -14.104   2.826  1.00  0.00     0.066 C 
HETATM    8  C   UNL     1      41.143 -14.312   3.265  1.00  0.00     0.221 C 
HETATM    9  C   UNL     1      41.678 -17.659   2.111  1.00  0.00     0.088 A 
HETATM   10  H   UNL     1      39.541 -16.674   0.604  1.00  0.00     0.161 HD
ENDROOT
BRANCH   1  11
HETATM   11  C   UNL     1      43.599 -18.508   3.605  1.00  0.00     0.272 C 
HETATM   12  N   UNL     1      43.657 -19.623   2.799  1.00  0.00    -0.354 N 
HETATM   13  H   UNL     1      43.173 -19.544   1.908  1.00  0.00     0.162 HD
HETATM   14  O   UNL     1      44.309 -18.352   4.594  1.00  0.00    -0.266 OA
BRANCH  12  15
HETATM   15  C   UNL     1      44.715 -20.599   2.948  1.00  0.00     0.149 C 
BRANCH  15  16
HETATM   16  C   UNL     1      44.375 -21.924   2.272  1.00  0.00     0.186 C 
BRANCH  16  17
HETATM   17  O   UNL     1      44.711 -22.999   3.155  1.00  0.00    -0.394 OA
HETATM   18  C   UNL     1      44.757 -22.568   4.508  1.00  0.00     0.201 C 
ENDBRANCH  16  17
ENDBRANCH  15  16
ENDBRANCH  12  15
ENDBRANCH   1  11
BRANCH   8  19
HETATM   19  C   UNL     1      42.117 -13.354   2.620  1.00  0.00     0.409 C 
HETATM   20  F   UNL     1      43.242 -13.156   3.333  1.00  0.00    -0.169 F 
HETATM   21  F   UNL     1      42.499 -13.829   1.405  1.00  0.00    -0.169 F 
HETATM   22  F   UNL     1      41.562 -12.142   2.392  1.00  0.00    -0.169 F 
ENDBRANCH   8  19
BRANCH   6  23
HETATM   23  C   UNL     1      39.365 -13.913   0.269  1.00  0.00    -0.034 A 
HETATM   24  C   UNL     1      40.051 -14.391  -0.863  1.00  0.00     0.034 A 
HETATM   25  C   UNL     1      40.202 -13.599  -2.009  1.00  0.00     0.056 A 
HETATM   26 CL   UNL     1      41.087 -14.267  -3.334  1.00  0.00    -0.083 Cl
HETATM   27  C   UNL     1      39.656 -12.314  -2.045  1.00  0.00     0.055 A 
HETATM   28 CL   UNL     1      39.805 -11.278  -3.418  1.00  0.00    -0.083 Cl
HETATM   29  C   UNL     1      38.965 -11.829  -0.933  1.00  0.00     0.026 A 
HETATM   30  C   UNL     1      38.829 -12.618   0.213  1.00  0.00     0.011 A 
ENDBRANCH   6  23
TORSDOF 6
ENDMDL
MODEL 7
REMARK VINA RESULT:      -7.2      3.487      4.763
REMARK  6 active torsions:
REMARK  status: ('A' for Active; 'I' for Inactive)
REMARK    1  A    between atoms: O_2  and  C_3 
REMARK    2  A    between atoms: C_3  and  C_4 
REMARK    3  A    between atoms: C_4  and  N_5 
REMARK       I    between atoms: N_5  and  C_6 
REMARK    4  A    between atoms: C_6  and  C_7 
REMARK    5  A    between atoms: C_12  and  C_13 
REMARK    6  A    between atoms: C_22  and  C_23 
ROOT
HETATM    1  C   UNL     1      40.938 -15.353  -0.867  1.00  0.00     0.148 A 
HETATM    2  N   UNL     1      41.560 -16.493  -0.488  1.00  0.00    -0.165 NA
HETATM    3  N   UNL     1      41.536 -16.430   0.856  1.00  0.00    -0.240 N 
HETATM    4  C   UNL     1      40.837 -15.367   1.350  1.00  0.00     0.123 A 
HETATM    5  N   UNL     1      40.637 -15.199   2.671  1.00  0.00    -0.366 N 
HETATM    6  C   UNL     1      41.027 -16.183   3.670  1.00  0.00     0.118 C 
HETATM    7  C   UNL     1      41.439 -17.530   3.046  1.00  0.00     0.066 C 
HETATM    8  C   UNL     1      42.156 -17.443   1.686  1.00  0.00     0.221 C 
HETATM    9  C   UNL     1      40.467 -14.625   0.261  1.00  0.00     0.088 A 
HETATM   10  H   UNL     1      40.117 -14.397   3.023  1.00  0.00     0.161 HD
ENDROOT
BRANCH   1  11
HETATM   11  C   UNL     1      40.772 -14.963  -2.276  1.00  0.00     0.272 C 
HETATM   12  N   UNL     1      40.109 -13.770  -2.453  1.00  0.00    -0.354 N 
HETATM   13  H   UNL     1      39.982 -13.212  -1.612  1.00  0.00     0.162 HD
HETATM   14  O   UNL     1      41.206 -15.639  -3.204  1.00  0.00    -0.266 OA
BRANCH  12  15
HETATM   15  C   UNL     1      40.063 -13.124  -3.747  1.00  0.00     0.149 C 
BRANCH  15  16
HETATM   16  C   UNL     1      40.725 -11.750  -3.729  1.00  0.00     0.186 C 
BRANCH  16  17
HETATM   17  O   UNL     1      42.146 -11.916  -3.737  1.00  0.00    -0.394 OA
HETATM   18  C   UNL     1      42.727 -11.502  -2.509  1.00  0.00     0.201 C 
ENDBRANCH  16  17
ENDBRANCH  15  16
ENDBRANCH  12  15
ENDBRANCH   1  11
BRANCH   8  19
HETATM   19  C   UNL     1      43.641 -17.188   1.793  1.00  0.00     0.409 C 
HETATM   20  F   UNL     1      44.344 -17.596   0.720  1.00  0.00    -0.169 F 
HETATM   21  F   UNL     1      43.873 -15.856   1.934  1.00  0.00    -0.169 F 
HETATM   22  F   UNL     1      44.181 -17.781   2.881  1.00  0.00    -0.169 F 
ENDBRANCH   8  19
BRANCH   6  23
HETATM   23  C   UNL     1      42.017 -15.603   4.668  1.00  0.00    -0.034 A 
HETATM   24  C   UNL     1      42.326 -16.332   5.831  1.00  0.00     0.034 A 
HETATM   25  C   UNL     1      43.194 -15.815   6.802  1.00  0.00     0.056 A 
HETATM   26 CL   UNL     1      43.484 -16.774   8.210  1.00  0.00    -0.083 Cl
HETATM   27  C   UNL     1      43.779 -14.559   6.618  1.00  0.00     0.055 A 
HETATM   28 CL   UNL     1      44.853 -13.855   7.771  1.00  0.00    -0.083 Cl
HETATM   29  C   UNL     1      43.489 -13.829   5.464  1.00  0.00     0.026 A 
HETATM   30  C   UNL     1      42.612 -14.344   4.505  1.00  0.00     0.011 A 
ENDBRANCH   6  23
TORSDOF 6
ENDMDL
MODEL 8
REMARK VINA RESULT:      -7.2      4.860      7.885
REMARK  6 active torsions:
REMARK  status: ('A' for Active; 'I' for Inactive)
REMARK    1  A    between atoms: O_2  and  C_3 
REMARK    2  A    between atoms: C_3  and  C_4 
REMARK    3  A    between atoms: C_4  and  N_5 
REMARK       I    between atoms: N_5  and  C_6 
REMARK    4  A    between atoms: C_6  and  C_7 
REMARK    5  A    between atoms: C_12  and  C_13 
REMARK    6  A    between atoms: C_22  and  C_23 
ROOT
HETATM    1  C   UNL     1      43.013 -17.715   4.184  1.00  0.00     0.148 A 
HETATM    2  N   UNL     1      43.232 -16.660   5.002  1.00  0.00    -0.165 NA
HETATM    3  N   UNL     1      42.217 -15.825   4.712  1.00  0.00    -0.240 N 
HETATM    4  C   UNL     1      41.308 -16.338   3.834  1.00  0.00     0.123 A 
HETATM    5  N   UNL     1      40.185 -15.673   3.501  1.00  0.00    -0.366 N 
HETATM    6  C   UNL     1      39.778 -14.426   4.133  1.00  0.00     0.118 C 
HETATM    7  C   UNL     1      40.612 -14.097   5.385  1.00  0.00     0.066 C 
HETATM    8  C   UNL     1      42.092 -14.522   5.332  1.00  0.00     0.221 C 
HETATM    9  C   UNL     1      41.812 -17.548   3.440  1.00  0.00     0.088 A 
HETATM   10  H   UNL     1      39.519 -16.069   2.840  1.00  0.00     0.161 HD
ENDROOT
BRANCH   1  11
HETATM   11  C   UNL     1      43.916 -18.875   4.117  1.00  0.00     0.272 C 
HETATM   12  N   UNL     1      43.826 -19.587   2.942  1.00  0.00    -0.354 N 
HETATM   13  H   UNL     1      43.303 -19.135   2.196  1.00  0.00     0.162 HD
HETATM   14  O   UNL     1      44.691 -19.163   5.024  1.00  0.00    -0.266 OA
BRANCH  12  15
HETATM   15  C   UNL     1      44.796 -20.609   2.611  1.00  0.00     0.149 C 
BRANCH  15  16
HETATM   16  C   UNL     1      44.133 -21.930   2.231  1.00  0.00     0.186 C 
BRANCH  16  17
HETATM   17  O   UNL     1      44.736 -22.988   2.984  1.00  0.00    -0.394 OA
HETATM   18  C   UNL     1      44.715 -22.714   4.378  1.00  0.00     0.201 C 
ENDBRANCH  16  17
ENDBRANCH  15  16
ENDBRANCH  12  15
ENDBRANCH   1  11
BRANCH   8  19
HETATM   19  C   UNL     1      42.989 -13.526   4.634  1.00  0.00     0.409 C 
HETATM   20  F   UNL     1      42.529 -12.262   4.663  1.00  0.00    -0.169 F 
HETATM   21  F   UNL     1      44.214 -13.515   5.221  1.00  0.00    -0.169 F 
HETATM   22  F   UNL     1      43.196 -13.852   3.337  1.00  0.00    -0.169 F 
ENDBRANCH   8  19
BRANCH   6  23
HETATM   23  C   UNL     1      39.662 -13.300   3.118  1.00  0.00    -0.034 A 
HETATM   24  C   UNL     1      39.953 -13.561   1.766  1.00  0.00     0.034 A 
HETATM   25  C   UNL     1      39.908 -12.543   0.805  1.00  0.00     0.056 A 
HETATM   26 CL   UNL     1      40.311 -12.960  -0.823  1.00  0.00    -0.083 Cl
HETATM   27  C   UNL     1      39.559 -11.243   1.181  1.00  0.00     0.055 A 
HETATM   28 CL   UNL     1      39.488  -9.936   0.054  1.00  0.00    -0.083 Cl
HETATM   29  C   UNL     1      39.259 -10.971   2.516  1.00  0.00     0.026 A 
HETATM   30  C   UNL     1      39.318 -11.988   3.474  1.00  0.00     0.011 A 
ENDBRANCH   6  23
TORSDOF 6
ENDMDL
MODEL 9
REMARK VINA RESULT:      -7.0      1.716      2.701
REMARK  6 active torsions:
REMARK  status: ('A' for Active; 'I' for Inactive)
REMARK    1  A    between atoms: O_2  and  C_3 
REMARK    2  A    between atoms: C_3  and  C_4 
REMARK    3  A    between atoms: C_4  and  N_5 
REMARK       I    between atoms: N_5  and  C_6 
REMARK    4  A    between atoms: C_6  and  C_7 
REMARK    5  A    between atoms: C_12  and  C_13 
REMARK    6  A    between atoms: C_22  and  C_23 
ROOT
HETATM    1  C   UNL     1      39.888 -14.637   1.301  1.00  0.00     0.148 A 
HETATM    2  N   UNL     1      40.165 -14.439   2.611  1.00  0.00    -0.165 NA
HETATM    3  N   UNL     1      41.283 -15.161   2.806  1.00  0.00    -0.240 N 
HETATM    4  C   UNL     1      41.791 -15.718   1.668  1.00  0.00     0.123 A 
HETATM    5  N   UNL     1      42.953 -16.399   1.666  1.00  0.00    -0.366 N 
HETATM    6  C   UNL     1      43.826 -16.493   2.827  1.00  0.00     0.118 C 
HETATM    7  C   UNL     1      43.420 -15.525   3.954  1.00  0.00     0.066 C 
HETATM    8  C   UNL     1      41.907 -15.278   4.108  1.00  0.00     0.221 C 
HETATM    9  C   UNL     1      40.890 -15.430   0.678  1.00  0.00     0.088 A 
HETATM   10  H   UNL     1      43.315 -16.812   0.808  1.00  0.00     0.161 HD
ENDROOT
BRANCH   1  11
HETATM   11  C   UNL     1      38.702 -14.069   0.641  1.00  0.00     0.272 C 
HETATM   12  N   UNL     1      38.060 -13.100   1.378  1.00  0.00    -0.354 N 
HETATM   13  H   UNL     1      38.572 -12.756   2.187  1.00  0.00     0.162 HD
HETATM   14  O   UNL     1      38.335 -14.422  -0.476  1.00  0.00    -0.266 OA
BRANCH  12  15
HETATM   15  C   UNL     1      37.024 -12.277   0.791  1.00  0.00     0.149 C 
BRANCH  15  16
HETATM   16  C   UNL     1      36.905 -10.922   1.481  1.00  0.00     0.186 C 
BRANCH  16  17
HETATM   17  O   UNL     1      38.173 -10.574   2.048  1.00  0.00    -0.394 OA
HETATM   18  C   UNL     1      38.097  -9.367   2.794  1.00  0.00     0.201 C 
ENDBRANCH  16  17
ENDBRANCH  15  16
ENDBRANCH  12  15
ENDBRANCH   1  11
BRANCH   8  19
HETATM   19  C   UNL     1      41.197 -16.327   4.931  1.00  0.00     0.409 C 
HETATM   20  F   UNL     1      41.932 -16.813   5.949  1.00  0.00    -0.169 F 
HETATM   21  F   UNL     1      40.068 -15.802   5.475  1.00  0.00    -0.169 F 
HETATM   22  F   UNL     1      40.799 -17.379   4.180  1.00  0.00    -0.169 F 
ENDBRANCH   8  19
BRANCH   6  23
HETATM   23  C   UNL     1      44.028 -17.938   3.256  1.00  0.00    -0.034 A 
HETATM   24  C   UNL     1      43.876 -18.964   2.306  1.00  0.00     0.034 A 
HETATM   25  C   UNL     1      44.002 -20.312   2.667  1.00  0.00     0.056 A 
HETATM   26 CL   UNL     1      43.767 -21.498   1.432  1.00  0.00    -0.083 Cl
HETATM   27  C   UNL     1      44.297 -20.655   3.989  1.00  0.00     0.055 A 
HETATM   28 CL   UNL     1      44.463 -22.293   4.509  1.00  0.00    -0.083 Cl
HETATM   29  C   UNL     1      44.460 -19.648   4.940  1.00  0.00     0.026 A 
HETATM   30  C   UNL     1      44.319 -18.305   4.578  1.00  0.00     0.011 A 
ENDBRANCH   6  23
TORSDOF 6
ENDMDL
MODEL 10
REMARK VINA RESULT:      -7.0      5.048      8.122
REMARK  6 active torsions:
REMARK  status: ('A' for Active; 'I' for Inactive)
REMARK    1  A    between atoms: O_2  and  C_3 
REMARK    2  A    between atoms: C_3  and  C_4 
REMARK    3  A    between atoms: C_4  and  N_5 
REMARK       I    between atoms: N_5  and  C_6 
REMARK    4  A    between atoms: C_6  and  C_7 
REMARK    5  A    between atoms: C_12  and  C_13 
REMARK    6  A    between atoms: C_22  and  C_23 
ROOT
HETATM    1  C   UNL     1      42.385 -17.650   2.623  1.00  0.00     0.148 A 
HETATM    2  N   UNL     1      41.898 -16.597   3.319  1.00  0.00    -0.165 NA
HETATM    3  N   UNL     1      41.378 -15.804   2.364  1.00  0.00    -0.240 N 
HETATM    4  C   UNL     1      41.412 -16.347   1.112  1.00  0.00     0.123 A 
HETATM    5  N   UNL     1      40.856 -15.729   0.053  1.00  0.00    -0.366 N 
HETATM    6  C   UNL     1      40.068 -14.510   0.162  1.00  0.00     0.118 C 
HETATM    7  C   UNL     1      39.718 -14.160   1.621  1.00  0.00     0.066 C 
HETATM    8  C   UNL     1      40.789 -14.517   2.668  1.00  0.00     0.221 C 
HETATM    9  C   UNL     1      42.094 -17.528   1.236  1.00  0.00     0.088 A 
HETATM   10  H   UNL     1      40.895 -16.146  -0.876  1.00  0.00     0.161 HD
ENDROOT
BRANCH   1  11
HETATM   11  C   UNL     1      43.101 -18.766   3.260  1.00  0.00     0.272 C 
HETATM   12  N   UNL     1      43.715 -19.618   2.369  1.00  0.00    -0.354 N 
HETATM   13  H   UNL     1      43.768 -19.284   1.410  1.00  0.00     0.162 HD
HETATM   14  O   UNL     1      43.156 -18.908   4.478  1.00  0.00    -0.266 OA
BRANCH  12  15
HETATM   15  C   UNL     1      44.649 -20.627   2.822  1.00  0.00     0.149 C 
BRANCH  15  16
HETATM   16  C   UNL     1      44.353 -21.997   2.219  1.00  0.00     0.186 C 
BRANCH  16  17
HETATM   17  O   UNL     1      44.717 -23.011   3.161  1.00  0.00    -0.394 OA
HETATM   18  C   UNL     1      44.737 -22.506   4.489  1.00  0.00     0.201 C 
ENDBRANCH  16  17
ENDBRANCH  15  16
ENDBRANCH  12  15
ENDBRANCH   1  11
BRANCH   8  19
HETATM   19  C   UNL     1      41.872 -13.473   2.816  1.00  0.00     0.409 C 
HETATM   20  F   UNL     1      41.515 -12.251   2.378  1.00  0.00    -0.169 F 
HETATM   21  F   UNL     1      42.212 -13.340   4.125  1.00  0.00    -0.169 F 
HETATM   22  F   UNL     1      43.005 -13.822   2.166  1.00  0.00    -0.169 F 
ENDBRANCH   8  19
BRANCH   6  23
HETATM   23  C   UNL     1      40.679 -13.376  -0.646  1.00  0.00    -0.034 A 
HETATM   24  C   UNL     1      39.845 -12.349  -1.127  1.00  0.00     0.034 A 
HETATM   25  C   UNL     1      40.355 -11.312  -1.918  1.00  0.00     0.056 A 
HETATM   26 CL   UNL     1      39.244 -10.115  -2.484  1.00  0.00    -0.083 Cl
HETATM   27  C   UNL     1      41.716 -11.278  -2.232  1.00  0.00     0.055 A 
HETATM   28 CL   UNL     1      42.416 -10.036  -3.205  1.00  0.00    -0.083 Cl
HETATM   29  C   UNL     1      42.557 -12.285  -1.755  1.00  0.00     0.026 A 
HETATM   30  C   UNL     1      42.040 -13.326  -0.977  1.00  0.00     0.011 A 
ENDBRANCH   6  23
TORSDOF 6
ENDMDL
