MODEL 1
REMARK VINA RESULT:      -8.4      0.000      0.000
REMARK  9 active torsions:
REMARK  status: ('A' for Active; 'I' for Inactive)
REMARK    1  A    between atoms: C_3  and  C_4 
REMARK    2  A    between atoms: C_4  and  C_5 
REMARK       I    between atoms: C_5  and  N_6 
REMARK    3  A    between atoms: N_6  and  C_7 
REMARK    4  A    between atoms: C_16  and  N_17 
REMARK       I    between atoms: N_17  and  C_18 
REMARK    5  A    between atoms: C_18  and  C_19 
REMARK    6  A    between atoms: C_19  and  S_20 
REMARK    7  A    between atoms: C_26  and  C_27 
REMARK    8  A    between atoms: C_27  and  O_28 
REMARK    9  A    between atoms: C_30  and  O_31 
ROOT
HETATM    1  C   UNL     1      41.285 -17.062   5.744  1.00  0.00     0.016 C 
HETATM    2  C   UNL     1      42.104 -15.882   5.114  1.00  0.00    -0.030 C 
HETATM    3  C   UNL     1      42.137 -16.205   3.531  1.00  0.00     0.056 C 
HETATM    4  C   UNL     1      41.024 -15.475   2.802  1.00  0.00     0.056 A 
HETATM    5  C   UNL     1      40.067 -14.697   3.415  1.00  0.00     0.012 A 
HETATM    6  S   UNL     1      38.962 -14.090   2.273  1.00  0.00    -0.055 SA
HETATM    7  C   UNL     1      39.833 -14.870   1.037  1.00  0.00     0.173 A 
HETATM    8  N   UNL     1      40.894 -15.543   1.423  1.00  0.00    -0.227 NA
HETATM    9  C   UNL     1      39.971 -14.402   4.864  1.00  0.00     0.055 C 
HETATM   10  C   UNL     1      41.361 -14.530   5.536  1.00  0.00     0.012 C 
HETATM   11  C   UNL     1      42.229 -13.202   5.503  1.00  0.00     0.008 C 
HETATM   12  C   UNL     1      41.479 -12.075   6.271  1.00  0.00     0.020 C 
HETATM   13  C   UNL     1      43.581 -13.450   6.233  1.00  0.00     0.128 C 
HETATM   14  C   UNL     1      44.323 -14.669   5.697  1.00  0.00     0.033 C 
HETATM   15  C   UNL     1      43.487 -15.943   5.815  1.00  0.00     0.013 C 
ENDROOT
BRANCH   3  16
HETATM   16  C   UNL     1      43.493 -16.065   2.811  1.00  0.00     0.114 C 
BRANCH  16  17
HETATM   17  C   UNL     1      43.977 -17.362   2.182  1.00  0.00     0.218 C 
HETATM   18  N   UNL     1      44.019 -18.421   3.056  1.00  0.00    -0.356 N 
HETATM   19  H   UNL     1      44.211 -18.154   4.021  1.00  0.00     0.162 HD
HETATM   20  O   UNL     1      44.256 -17.444   0.990  1.00  0.00    -0.274 OA
BRANCH  18  21
HETATM   21  C   UNL     1      44.411 -19.744   2.633  1.00  0.00     0.084 C 
HETATM   22  C   UNL     1      44.606 -20.723   3.785  1.00  0.00     0.025 C 
HETATM   23  C   UNL     1      44.570 -22.081   3.095  1.00  0.00     0.002 C 
HETATM   24  C   UNL     1      43.639 -21.913   1.895  1.00  0.00     0.002 C 
HETATM   25  C   UNL     1      43.328 -20.422   1.799  1.00  0.00     0.025 C 
ENDBRANCH  18  21
ENDBRANCH  16  17
ENDBRANCH   3  16
BRANCH  11  26
HETATM   26  C   UNL     1      42.490 -12.670   4.073  1.00  0.00     0.176 C 
BRANCH  26  27
HETATM   27  O   UNL     1      41.756 -11.476   3.813  1.00  0.00    -0.400 OA
HETATM   28  H   UNL     1      41.612 -11.422   2.852  1.00  0.00     0.209 HD
ENDBRANCH  26  27
ENDBRANCH  11  26
BRANCH   7  29
HETATM   29  N   UNL     1      39.492 -14.786  -0.286  1.00  0.00    -0.305 N 
HETATM   30  C   UNL     1      39.757 -13.756  -1.160  1.00  0.00     0.232 C 
HETATM   31  O   UNL     1      40.339 -12.705  -0.907  1.00  0.00    -0.272 OA
HETATM   32  H   UNL     1      38.909 -15.547  -0.617  1.00  0.00     0.171 HD
BRANCH  30  33
HETATM   33  C   UNL     1      39.325 -14.062  -2.589  1.00  0.00     0.176 C 
BRANCH  33  34
HETATM   34  S   UNL     1      40.237 -15.466  -3.313  1.00  0.00    -0.164 SA
HETATM   35  C   UNL     1      38.894 -16.201  -4.281  1.00  0.00     0.090 C 
ENDBRANCH  33  34
ENDBRANCH  30  33
ENDBRANCH   7  29
BRANCH  13  36
HETATM   36  O   UNL     1      43.360 -13.670   7.631  1.00  0.00    -0.395 OA
HETATM   37  H   UNL     1      43.980 -14.363   7.916  1.00  0.00     0.210 HD
ENDBRANCH  13  36
TORSDOF 9
ENDMDL
MODEL 2
REMARK VINA RESULT:      -7.7      2.785      3.516
REMARK  9 active torsions:
REMARK  status: ('A' for Active; 'I' for Inactive)
REMARK    1  A    between atoms: C_3  and  C_4 
REMARK    2  A    between atoms: C_4  and  C_5 
REMARK       I    between atoms: C_5  and  N_6 
REMARK    3  A    between atoms: N_6  and  C_7 
REMARK    4  A    between atoms: C_16  and  N_17 
REMARK       I    between atoms: N_17  and  C_18 
REMARK    5  A    between atoms: C_18  and  C_19 
REMARK    6  A    between atoms: C_19  and  S_20 
REMARK    7  A    between atoms: C_26  and  C_27 
REMARK    8  A    between atoms: C_27  and  O_28 
REMARK    9  A    between atoms: C_30  and  O_31 
ROOT
HETATM    1  C   UNL     1      39.823 -16.823   2.205  1.00  0.00     0.016 C 
HETATM    2  C   UNL     1      40.816 -16.098   3.180  1.00  0.00    -0.030 C 
HETATM    3  C   UNL     1      41.968 -15.496   2.220  1.00  0.00     0.056 C 
HETATM    4  C   UNL     1      41.678 -14.051   1.860  1.00  0.00     0.056 A 
HETATM    5  C   UNL     1      40.547 -13.362   2.241  1.00  0.00     0.012 A 
HETATM    6  S   UNL     1      40.559 -11.786   1.601  1.00  0.00    -0.055 SA
HETATM    7  C   UNL     1      42.070 -12.102   0.885  1.00  0.00     0.173 A 
HETATM    8  N   UNL     1      42.563 -13.302   1.100  1.00  0.00    -0.227 NA
HETATM    9  C   UNL     1      39.447 -13.880   3.086  1.00  0.00     0.055 C 
HETATM   10  C   UNL     1      39.956 -15.025   3.997  1.00  0.00     0.012 C 
HETATM   11  C   UNL     1      40.557 -14.540   5.384  1.00  0.00     0.008 C 
HETATM   12  C   UNL     1      39.454 -13.800   6.195  1.00  0.00     0.020 C 
HETATM   13  C   UNL     1      41.002 -15.779   6.216  1.00  0.00     0.128 C 
HETATM   14  C   UNL     1      41.938 -16.701   5.441  1.00  0.00     0.033 C 
HETATM   15  C   UNL     1      41.298 -17.209   4.150  1.00  0.00     0.013 C 
ENDROOT
BRANCH   3  16
HETATM   16  C   UNL     1      43.431 -15.704   2.658  1.00  0.00     0.114 C 
BRANCH  16  17
HETATM   17  C   UNL     1      44.047 -16.982   2.112  1.00  0.00     0.218 C 
HETATM   18  N   UNL     1      43.836 -18.084   2.906  1.00  0.00    -0.356 N 
HETATM   19  H   UNL     1      43.766 -17.870   3.900  1.00  0.00     0.162 HD
HETATM   20  O   UNL     1      44.635 -17.014   1.035  1.00  0.00    -0.274 OA
BRANCH  18  21
HETATM   21  C   UNL     1      44.308 -19.396   2.531  1.00  0.00     0.084 C 
HETATM   22  C   UNL     1      44.621 -20.296   3.720  1.00  0.00     0.025 C 
HETATM   23  C   UNL     1      44.658 -21.687   3.100  1.00  0.00     0.002 C 
HETATM   24  C   UNL     1      43.670 -21.649   1.934  1.00  0.00     0.002 C 
HETATM   25  C   UNL     1      43.246 -20.191   1.780  1.00  0.00     0.025 C 
ENDBRANCH  18  21
ENDBRANCH  16  17
ENDBRANCH   3  16
BRANCH  11  26
HETATM   26  C   UNL     1      41.739 -13.552   5.234  1.00  0.00     0.176 C 
BRANCH  26  27
HETATM   27  O   UNL     1      42.410 -13.342   6.473  1.00  0.00    -0.400 OA
HETATM   28  H   UNL     1      41.791 -13.575   7.187  1.00  0.00     0.209 HD
ENDBRANCH  26  27
ENDBRANCH  11  26
BRANCH   7  29
HETATM   29  N   UNL     1      42.762 -11.172   0.158  1.00  0.00    -0.305 N 
HETATM   30  C   UNL     1      42.924 -11.122  -1.208  1.00  0.00     0.232 C 
HETATM   31  O   UNL     1      42.488 -11.919  -2.033  1.00  0.00    -0.272 OA
HETATM   32  H   UNL     1      43.270 -10.497   0.719  1.00  0.00     0.171 HD
BRANCH  30  33
HETATM   33  C   UNL     1      43.664  -9.873  -1.674  1.00  0.00     0.176 C 
BRANCH  33  34
HETATM   34  S   UNL     1      42.769  -8.336  -1.269  1.00  0.00    -0.164 SA
HETATM   35  C   UNL     1      43.899  -7.679  -0.014  1.00  0.00     0.090 C 
ENDBRANCH  33  34
ENDBRANCH  30  33
ENDBRANCH   7  29
BRANCH  13  36
HETATM   36  O   UNL     1      39.862 -16.557   6.599  1.00  0.00    -0.395 OA
HETATM   37  H   UNL     1      39.502 -16.960   5.790  1.00  0.00     0.210 HD
ENDBRANCH  13  36
TORSDOF 9
ENDMDL
MODEL 3
REMARK VINA RESULT:      -7.6      3.292      7.190
REMARK  9 active torsions:
REMARK  status: ('A' for Active; 'I' for Inactive)
REMARK    1  A    between atoms: C_3  and  C_4 
REMARK    2  A    between atoms: C_4  and  C_5 
REMARK       I    between atoms: C_5  and  N_6 
REMARK    3  A    between atoms: N_6  and  C_7 
REMARK    4  A    between atoms: C_16  and  N_17 
REMARK       I    between atoms: N_17  and  C_18 
REMARK    5  A    between atoms: C_18  and  C_19 
REMARK    6  A    between atoms: C_19  and  S_20 
REMARK    7  A    between atoms: C_26  and  C_27 
REMARK    8  A    between atoms: C_27  and  O_28 
REMARK    9  A    between atoms: C_30  and  O_31 
ROOT
HETATM    1  C   UNL     1      39.658 -13.958   6.245  1.00  0.00     0.016 C 
HETATM    2  C   UNL     1      40.743 -13.425   5.247  1.00  0.00    -0.030 C 
HETATM    3  C   UNL     1      42.045 -14.341   5.527  1.00  0.00     0.056 C 
HETATM    4  C   UNL     1      42.107 -15.510   4.562  1.00  0.00     0.056 A 
HETATM    5  C   UNL     1      41.146 -15.796   3.618  1.00  0.00     0.012 A 
HETATM    6  S   UNL     1      41.545 -17.213   2.764  1.00  0.00    -0.055 SA
HETATM    7  C   UNL     1      42.975 -17.344   3.676  1.00  0.00     0.173 A 
HETATM    8  N   UNL     1      43.173 -16.396   4.566  1.00  0.00    -0.227 NA
HETATM    9  C   UNL     1      39.919 -15.012   3.347  1.00  0.00     0.055 C 
HETATM   10  C   UNL     1      40.112 -13.537   3.781  1.00  0.00     0.012 C 
HETATM   11  C   UNL     1      40.743 -12.604   2.662  1.00  0.00     0.008 C 
HETATM   12  C   UNL     1      39.801 -12.571   1.424  1.00  0.00     0.020 C 
HETATM   13  C   UNL     1      40.857 -11.150   3.206  1.00  0.00     0.128 C 
HETATM   14  C   UNL     1      41.594 -11.077   4.540  1.00  0.00     0.033 C 
HETATM   15  C   UNL     1      40.915 -11.927   5.613  1.00  0.00     0.013 C 
ENDROOT
BRANCH   3  16
HETATM   16  C   UNL     1      43.400 -13.619   5.655  1.00  0.00     0.114 C 
BRANCH  16  17
HETATM   17  C   UNL     1      43.944 -13.607   7.075  1.00  0.00     0.218 C 
HETATM   18  N   UNL     1      43.789 -12.404   7.719  1.00  0.00    -0.356 N 
HETATM   19  H   UNL     1      43.811 -11.596   7.098  1.00  0.00     0.162 HD
HETATM   20  O   UNL     1      44.433 -14.606   7.594  1.00  0.00    -0.274 OA
BRANCH  18  21
HETATM   21  C   UNL     1      44.203 -12.213   9.089  1.00  0.00     0.084 C 
HETATM   22  C   UNL     1      45.623 -11.677   9.228  1.00  0.00     0.025 C 
HETATM   23  C   UNL     1      45.658 -11.160  10.661  1.00  0.00     0.002 C 
HETATM   24  C   UNL     1      44.235 -10.696  10.970  1.00  0.00     0.002 C 
HETATM   25  C   UNL     1      43.373 -11.146   9.794  1.00  0.00     0.025 C 
ENDBRANCH  18  21
ENDBRANCH  16  17
ENDBRANCH   3  16
BRANCH  11  26
HETATM   26  C   UNL     1      42.124 -13.089   2.159  1.00  0.00     0.176 C 
BRANCH  26  27
HETATM   27  O   UNL     1      42.713 -12.157   1.256  1.00  0.00    -0.400 OA
HETATM   28  H   UNL     1      43.544 -11.845   1.654  1.00  0.00     0.209 HD
ENDBRANCH  26  27
ENDBRANCH  11  26
BRANCH   7  29
HETATM   29  N   UNL     1      43.893 -18.341   3.488  1.00  0.00    -0.305 N 
HETATM   30  C   UNL     1      44.179 -19.392   4.329  1.00  0.00     0.232 C 
HETATM   31  O   UNL     1      43.669 -19.622   5.423  1.00  0.00    -0.272 OA
HETATM   32  H   UNL     1      44.472 -18.227   2.663  1.00  0.00     0.171 HD
BRANCH  30  33
HETATM   33  C   UNL     1      45.181 -20.375   3.736  1.00  0.00     0.176 C 
BRANCH  33  34
HETATM   34  S   UNL     1      44.459 -22.024   3.443  1.00  0.00    -0.164 SA
HETATM   35  C   UNL     1      44.082 -21.853   1.679  1.00  0.00     0.090 C 
ENDBRANCH  33  34
ENDBRANCH  30  33
ENDBRANCH   7  29
BRANCH  13  36
HETATM   36  O   UNL     1      39.554 -10.591   3.412  1.00  0.00    -0.395 OA
HETATM   37  H   UNL     1      39.365 -10.641   4.365  1.00  0.00     0.210 HD
ENDBRANCH  13  36
TORSDOF 9
ENDMDL
MODEL 4
REMARK VINA RESULT:      -7.3      2.986      7.079
REMARK  9 active torsions:
REMARK  status: ('A' for Active; 'I' for Inactive)
REMARK    1  A    between atoms: C_3  and  C_4 
REMARK    2  A    between atoms: C_4  and  C_5 
REMARK       I    between atoms: C_5  and  N_6 
REMARK    3  A    between atoms: N_6  and  C_7 
REMARK    4  A    between atoms: C_16  and  N_17 
REMARK       I    between atoms: N_17  and  C_18 
REMARK    5  A    between atoms: C_18  and  C_19 
REMARK    6  A    between atoms: C_19  and  S_20 
REMARK    7  A    between atoms: C_26  and  C_27 
REMARK    8  A    between atoms: C_27  and  O_28 
REMARK    9  A    between atoms: C_30  and  O_31 
ROOT
HETATM    1  C   UNL     1      40.302 -17.413   1.568  1.00  0.00     0.016 C 
HETATM    2  C   UNL     1      41.711 -17.009   2.126  1.00  0.00    -0.030 C 
HETATM    3  C   UNL     1      41.580 -15.434   2.468  1.00  0.00     0.056 C 
HETATM    4  C   UNL     1      41.230 -15.221   3.929  1.00  0.00     0.056 A 
HETATM    5  C   UNL     1      40.985 -16.234   4.831  1.00  0.00     0.012 A 
HETATM    6  S   UNL     1      40.575 -15.597   6.354  1.00  0.00    -0.055 SA
HETATM    7  C   UNL     1      40.775 -14.025   5.736  1.00  0.00     0.173 A 
HETATM    8  N   UNL     1      41.133 -13.949   4.473  1.00  0.00    -0.227 NA
HETATM    9  C   UNL     1      41.054 -17.688   4.558  1.00  0.00     0.055 C 
HETATM   10  C   UNL     1      42.006 -17.972   3.369  1.00  0.00     0.012 C 
HETATM   11  C   UNL     1      43.529 -18.155   3.780  1.00  0.00     0.008 C 
HETATM   12  C   UNL     1      43.663 -19.372   4.740  1.00  0.00     0.020 C 
HETATM   13  C   UNL     1      44.373 -18.464   2.508  1.00  0.00     0.128 C 
HETATM   14  C   UNL     1      44.166 -17.436   1.401  1.00  0.00     0.033 C 
HETATM   15  C   UNL     1      42.700 -17.341   0.978  1.00  0.00     0.013 C 
ENDROOT
BRANCH   3  16
HETATM   16  C   UNL     1      42.727 -14.515   2.005  1.00  0.00     0.114 C 
BRANCH  16  17
HETATM   17  C   UNL     1      42.316 -13.548   0.905  1.00  0.00     0.218 C 
HETATM   18  N   UNL     1      41.791 -14.162  -0.206  1.00  0.00    -0.356 N 
HETATM   19  H   UNL     1      42.169 -15.091  -0.383  1.00  0.00     0.162 HD
HETATM   20  O   UNL     1      42.410 -12.332   1.038  1.00  0.00    -0.274 OA
BRANCH  18  21
HETATM   21  C   UNL     1      41.304 -13.406  -1.336  1.00  0.00     0.084 C 
HETATM   22  C   UNL     1      42.391 -13.034  -2.337  1.00  0.00     0.025 C 
HETATM   23  C   UNL     1      41.599 -12.663  -3.585  1.00  0.00     0.002 C 
HETATM   24  C   UNL     1      40.337 -13.525  -3.548  1.00  0.00     0.002 C 
HETATM   25  C   UNL     1      40.329 -14.214  -2.186  1.00  0.00     0.025 C 
ENDBRANCH  18  21
ENDBRANCH  16  17
ENDBRANCH   3  16
BRANCH  11  26
HETATM   26  C   UNL     1      44.120 -16.933   4.522  1.00  0.00     0.176 C 
BRANCH  26  27
HETATM   27  O   UNL     1      44.269 -17.185   5.917  1.00  0.00    -0.400 OA
HETATM   28  H   UNL     1      43.467 -17.643   6.221  1.00  0.00     0.209 HD
ENDBRANCH  26  27
ENDBRANCH  11  26
BRANCH   7  29
HETATM   29  N   UNL     1      40.614 -12.897   6.494  1.00  0.00    -0.305 N 
HETATM   30  C   UNL     1      39.568 -12.002   6.461  1.00  0.00     0.232 C 
HETATM   31  O   UNL     1      38.585 -12.042   5.725  1.00  0.00    -0.272 OA
HETATM   32  H   UNL     1      41.406 -12.674   7.085  1.00  0.00     0.171 HD
BRANCH  30  33
HETATM   33  C   UNL     1      39.672 -10.925   7.533  1.00  0.00     0.176 C 
BRANCH  33  34
HETATM   34  S   UNL     1      41.313 -10.131   7.574  1.00  0.00    -0.164 SA
HETATM   35  C   UNL     1      41.740 -10.463   9.304  1.00  0.00     0.090 C 
ENDBRANCH  33  34
ENDBRANCH  30  33
ENDBRANCH   7  29
BRANCH  13  36
HETATM   36  O   UNL     1      44.015 -19.743   1.971  1.00  0.00    -0.395 OA
HETATM   37  H   UNL     1      43.087 -19.908   2.212  1.00  0.00     0.210 HD
ENDBRANCH  13  36
TORSDOF 9
ENDMDL
MODEL 5
REMARK VINA RESULT:      -7.1      2.535      6.925
REMARK  9 active torsions:
REMARK  status: ('A' for Active; 'I' for Inactive)
REMARK    1  A    between atoms: C_3  and  C_4 
REMARK    2  A    between atoms: C_4  and  C_5 
REMARK       I    between atoms: C_5  and  N_6 
REMARK    3  A    between atoms: N_6  and  C_7 
REMARK    4  A    between atoms: C_16  and  N_17 
REMARK       I    between atoms: N_17  and  C_18 
REMARK    5  A    between atoms: C_18  and  C_19 
REMARK    6  A    between atoms: C_19  and  S_20 
REMARK    7  A    between atoms: C_26  and  C_27 
REMARK    8  A    between atoms: C_27  and  O_28 
REMARK    9  A    between atoms: C_30  and  O_31 
ROOT
HETATM    1  C   UNL     1      42.472 -13.261  -2.717  1.00  0.00     0.016 C 
HETATM    2  C   UNL     1      41.126 -13.786  -2.108  1.00  0.00    -0.030 C 
HETATM    3  C   UNL     1      41.563 -14.580  -0.770  1.00  0.00     0.056 C 
HETATM    4  C   UNL     1      41.464 -13.685   0.452  1.00  0.00     0.056 A 
HETATM    5  C   UNL     1      41.117 -12.352   0.419  1.00  0.00     0.012 A 
HETATM    6  S   UNL     1      41.167 -11.679   1.981  1.00  0.00    -0.055 SA
HETATM    7  C   UNL     1      41.617 -13.196   2.606  1.00  0.00     0.173 A 
HETATM    8  N   UNL     1      41.723 -14.167   1.726  1.00  0.00    -0.227 NA
HETATM    9  C   UNL     1      40.745 -11.571  -0.783  1.00  0.00     0.055 C 
HETATM   10  C   UNL     1      40.191 -12.506  -1.887  1.00  0.00     0.012 C 
HETATM   11  C   UNL     1      38.629 -12.773  -1.795  1.00  0.00     0.008 C 
HETATM   12  C   UNL     1      37.864 -11.427  -1.945  1.00  0.00     0.020 C 
HETATM   13  C   UNL     1      38.193 -13.696  -2.971  1.00  0.00     0.128 C 
HETATM   14  C   UNL     1      39.021 -14.974  -3.053  1.00  0.00     0.033 C 
HETATM   15  C   UNL     1      40.511 -14.679  -3.217  1.00  0.00     0.013 C 
ENDROOT
BRANCH   3  16
HETATM   16  C   UNL     1      40.926 -15.963  -0.531  1.00  0.00     0.114 C 
BRANCH  16  17
HETATM   17  C   UNL     1      41.595 -16.748   0.587  1.00  0.00     0.218 C 
HETATM   18  N   UNL     1      42.967 -16.737   0.529  1.00  0.00    -0.356 N 
HETATM   19  H   UNL     1      43.341 -16.670  -0.416  1.00  0.00     0.162 HD
HETATM   20  O   UNL     1      40.949 -17.295   1.475  1.00  0.00    -0.274 OA
BRANCH  18  21
HETATM   21  C   UNL     1      43.778 -17.390   1.529  1.00  0.00     0.084 C 
HETATM   22  C   UNL     1      43.403 -17.018   2.959  1.00  0.00     0.025 C 
HETATM   23  C   UNL     1      44.057 -18.119   3.785  1.00  0.00     0.002 C 
HETATM   24  C   UNL     1      44.052 -19.364   2.898  1.00  0.00     0.002 C 
HETATM   25  C   UNL     1      43.590 -18.904   1.518  1.00  0.00     0.025 C 
ENDBRANCH  18  21
ENDBRANCH  16  17
ENDBRANCH   3  16
BRANCH  11  26
HETATM   26  C   UNL     1      38.187 -13.391  -0.447  1.00  0.00     0.176 C 
BRANCH  26  27
HETATM   27  O   UNL     1      37.462 -12.456   0.348  1.00  0.00    -0.400 OA
HETATM   28  H   UNL     1      36.773 -12.062  -0.214  1.00  0.00     0.209 HD
ENDBRANCH  26  27
ENDBRANCH  11  26
BRANCH   7  29
HETATM   29  N   UNL     1      41.825 -13.424   3.939  1.00  0.00    -0.305 N 
HETATM   30  C   UNL     1      43.027 -13.607   4.585  1.00  0.00     0.232 C 
HETATM   31  O   UNL     1      44.144 -13.617   4.075  1.00  0.00    -0.272 OA
HETATM   32  H   UNL     1      40.976 -13.544   4.480  1.00  0.00     0.171 HD
BRANCH  30  33
HETATM   33  C   UNL     1      42.879 -13.720   6.097  1.00  0.00     0.176 C 
BRANCH  33  34
HETATM   34  S   UNL     1      44.450 -14.134   6.927  1.00  0.00    -0.164 SA
HETATM   35  C   UNL     1      44.310 -15.940   6.904  1.00  0.00     0.090 C 
ENDBRANCH  33  34
ENDBRANCH  30  33
ENDBRANCH   7  29
BRANCH  13  36
HETATM   36  O   UNL     1      38.342 -13.014  -4.221  1.00  0.00    -0.395 OA
HETATM   37  H   UNL     1      38.728 -13.647  -4.851  1.00  0.00     0.210 HD
ENDBRANCH  13  36
TORSDOF 9
ENDMDL
MODEL 6
REMARK VINA RESULT:      -7.0      3.637      7.252
REMARK  9 active torsions:
REMARK  status: ('A' for Active; 'I' for Inactive)
REMARK    1  A    between atoms: C_3  and  C_4 
REMARK    2  A    between atoms: C_4  and  C_5 
REMARK       I    between atoms: C_5  and  N_6 
REMARK    3  A    between atoms: N_6  and  C_7 
REMARK    4  A    between atoms: C_16  and  N_17 
REMARK       I    between atoms: N_17  and  C_18 
REMARK    5  A    between atoms: C_18  and  C_19 
REMARK    6  A    between atoms: C_19  and  S_20 
REMARK    7  A    between atoms: C_26  and  C_27 
REMARK    8  A    between atoms: C_27  and  O_28 
REMARK    9  A    between atoms: C_30  and  O_31 
ROOT
HETATM    1  C   UNL     1      42.885 -14.194   2.387  1.00  0.00     0.016 C 
HETATM    2  C   UNL     1      41.363 -14.103   2.756  1.00  0.00    -0.030 C 
HETATM    3  C   UNL     1      41.335 -14.024   4.370  1.00  0.00     0.056 C 
HETATM    4  C   UNL     1      41.267 -12.583   4.843  1.00  0.00     0.056 A 
HETATM    5  C   UNL     1      41.297 -11.485   4.013  1.00  0.00     0.012 A 
HETATM    6  S   UNL     1      41.254 -10.045   4.918  1.00  0.00    -0.055 SA
HETATM    7  C   UNL     1      41.170 -10.962   6.348  1.00  0.00     0.173 A 
HETATM    8  N   UNL     1      41.165 -12.268   6.190  1.00  0.00    -0.227 NA
HETATM    9  C   UNL     1      41.361 -11.504   2.533  1.00  0.00     0.055 C 
HETATM   10  C   UNL     1      40.778 -12.830   1.983  1.00  0.00     0.012 C 
HETATM   11  C   UNL     1      39.210 -12.805   1.740  1.00  0.00     0.008 C 
HETATM   12  C   UNL     1      38.867 -11.713   0.686  1.00  0.00     0.020 C 
HETATM   13  C   UNL     1      38.755 -14.177   1.161  1.00  0.00     0.128 C 
HETATM   14  C   UNL     1      39.215 -15.356   2.012  1.00  0.00     0.033 C 
HETATM   15  C   UNL     1      40.735 -15.392   2.162  1.00  0.00     0.013 C 
ENDROOT
BRANCH   3  16
HETATM   16  C   UNL     1      40.323 -14.925   5.103  1.00  0.00     0.114 C 
BRANCH  16  17
HETATM   17  C   UNL     1      40.959 -16.153   5.736  1.00  0.00     0.218 C 
HETATM   18  N   UNL     1      42.286 -16.317   5.420  1.00  0.00    -0.356 N 
HETATM   19  H   UNL     1      42.539 -15.960   4.499  1.00  0.00     0.162 HD
HETATM   20  O   UNL     1      40.337 -16.891   6.494  1.00  0.00    -0.274 OA
BRANCH  18  21
HETATM   21  C   UNL     1      43.071 -17.400   5.961  1.00  0.00     0.084 C 
HETATM   22  C   UNL     1      43.558 -18.388   4.908  1.00  0.00     0.025 C 
HETATM   23  C   UNL     1      44.675 -19.136   5.626  1.00  0.00     0.002 C 
HETATM   24  C   UNL     1      45.281 -18.133   6.609  1.00  0.00     0.002 C 
HETATM   25  C   UNL     1      44.372 -16.908   6.585  1.00  0.00     0.025 C 
ENDBRANCH  18  21
ENDBRANCH  16  17
ENDBRANCH   3  16
BRANCH  11  26
HETATM   26  C   UNL     1      38.393 -12.471   3.011  1.00  0.00     0.176 C 
BRANCH  26  27
HETATM   27  O   UNL     1      37.857 -11.151   2.961  1.00  0.00    -0.400 OA
HETATM   28  H   UNL     1      38.503 -10.588   2.501  1.00  0.00     0.209 HD
ENDBRANCH  26  27
ENDBRANCH  11  26
BRANCH   7  29
HETATM   29  N   UNL     1      41.076 -10.400   7.592  1.00  0.00    -0.305 N 
HETATM   30  C   UNL     1      42.060 -10.307   8.550  1.00  0.00     0.232 C 
HETATM   31  O   UNL     1      43.210 -10.729   8.471  1.00  0.00    -0.272 OA
HETATM   32  H   UNL     1      40.142 -10.095   7.844  1.00  0.00     0.171 HD
BRANCH  30  33
HETATM   33  C   UNL     1      41.625  -9.510   9.775  1.00  0.00     0.176 C 
BRANCH  33  34
HETATM   34  S   UNL     1      41.708 -10.487  11.313  1.00  0.00    -0.164 SA
HETATM   35  C   UNL     1      43.356  -9.984  11.874  1.00  0.00     0.090 C 
ENDBRANCH  33  34
ENDBRANCH  30  33
ENDBRANCH   7  29
BRANCH  13  36
HETATM   36  O   UNL     1      39.294 -14.367  -0.152  1.00  0.00    -0.395 OA
HETATM   37  H   UNL     1      38.555 -14.295  -0.781  1.00  0.00     0.210 HD
ENDBRANCH  13  36
TORSDOF 9
ENDMDL
MODEL 7
REMARK VINA RESULT:      -6.9      2.470      6.227
REMARK  9 active torsions:
REMARK  status: ('A' for Active; 'I' for Inactive)
REMARK    1  A    between atoms: C_3  and  C_4 
REMARK    2  A    between atoms: C_4  and  C_5 
REMARK       I    between atoms: C_5  and  N_6 
REMARK    3  A    between atoms: N_6  and  C_7 
REMARK    4  A    between atoms: C_16  and  N_17 
REMARK       I    between atoms: N_17  and  C_18 
REMARK    5  A    between atoms: C_18  and  C_19 
REMARK    6  A    between atoms: C_19  and  S_20 
REMARK    7  A    between atoms: C_26  and  C_27 
REMARK    8  A    between atoms: C_27  and  O_28 
REMARK    9  A    between atoms: C_30  and  O_31 
ROOT
HETATM    1  C   UNL     1      44.099 -14.016   4.774  1.00  0.00     0.016 C 
HETATM    2  C   UNL     1      42.982 -15.096   4.989  1.00  0.00    -0.030 C 
HETATM    3  C   UNL     1      41.635 -14.414   4.413  1.00  0.00     0.056 C 
HETATM    4  C   UNL     1      41.389 -14.824   2.973  1.00  0.00     0.056 A 
HETATM    5  C   UNL     1      42.237 -15.614   2.229  1.00  0.00     0.012 A 
HETATM    6  S   UNL     1      41.645 -15.808   0.646  1.00  0.00    -0.055 SA
HETATM    7  C   UNL     1      40.292 -14.859   1.050  1.00  0.00     0.173 A 
HETATM    8  N   UNL     1      40.254 -14.417   2.288  1.00  0.00    -0.227 NA
HETATM    9  C   UNL     1      43.499 -16.231   2.697  1.00  0.00     0.055 C 
HETATM   10  C   UNL     1      43.472 -16.419   4.235  1.00  0.00     0.012 C 
HETATM   11  C   UNL     1      42.831 -17.790   4.715  1.00  0.00     0.008 C 
HETATM   12  C   UNL     1      43.663 -18.977   4.148  1.00  0.00     0.020 C 
HETATM   13  C   UNL     1      42.891 -17.872   6.269  1.00  0.00     0.128 C 
HETATM   14  C   UNL     1      42.281 -16.650   6.946  1.00  0.00     0.033 C 
HETATM   15  C   UNL     1      42.973 -15.356   6.518  1.00  0.00     0.013 C 
ENDROOT
BRANCH   3  16
HETATM   16  C   UNL     1      40.363 -14.528   5.276  1.00  0.00     0.114 C 
BRANCH  16  17
HETATM   17  C   UNL     1      39.865 -13.188   5.795  1.00  0.00     0.218 C 
HETATM   18  N   UNL     1      40.733 -12.572   6.663  1.00  0.00    -0.356 N 
HETATM   19  H   UNL     1      41.295 -13.218   7.215  1.00  0.00     0.162 HD
HETATM   20  O   UNL     1      38.803 -12.700   5.422  1.00  0.00    -0.274 OA
BRANCH  18  21
HETATM   21  C   UNL     1      40.454 -11.272   7.225  1.00  0.00     0.084 C 
HETATM   22  C   UNL     1      39.541 -11.317   8.445  1.00  0.00     0.025 C 
HETATM   23  C   UNL     1      39.755  -9.952   9.088  1.00  0.00     0.002 C 
HETATM   24  C   UNL     1      41.198  -9.562   8.763  1.00  0.00     0.002 C 
HETATM   25  C   UNL     1      41.710 -10.604   7.773  1.00  0.00     0.025 C 
ENDBRANCH  18  21
ENDBRANCH  16  17
ENDBRANCH   3  16
BRANCH  11  26
HETATM   26  C   UNL     1      41.375 -17.994   4.231  1.00  0.00     0.176 C 
BRANCH  26  27
HETATM   27  O   UNL     1      40.445 -17.903   5.307  1.00  0.00    -0.400 OA
HETATM   28  H   UNL     1      40.755 -18.493   6.016  1.00  0.00     0.209 HD
ENDBRANCH  26  27
ENDBRANCH  11  26
BRANCH   7  29
HETATM   29  N   UNL     1      39.278 -14.589   0.172  1.00  0.00    -0.305 N 
HETATM   30  C   UNL     1      39.264 -13.651  -0.836  1.00  0.00     0.232 C 
HETATM   31  O   UNL     1      40.161 -12.863  -1.124  1.00  0.00    -0.272 OA
HETATM   32  H   UNL     1      38.420 -15.099   0.353  1.00  0.00     0.171 HD
BRANCH  30  33
HETATM   33  C   UNL     1      38.004 -13.714  -1.691  1.00  0.00     0.176 C 
BRANCH  33  34
HETATM   34  S   UNL     1      38.366 -13.708  -3.478  1.00  0.00    -0.164 SA
HETATM   35  C   UNL     1      39.283 -15.267  -3.582  1.00  0.00     0.090 C 
ENDBRANCH  33  34
ENDBRANCH  30  33
ENDBRANCH   7  29
BRANCH  13  36
HETATM   36  O   UNL     1      44.251 -17.966   6.710  1.00  0.00    -0.395 OA
HETATM   37  H   UNL     1      44.316 -18.752   7.279  1.00  0.00     0.210 HD
ENDBRANCH  13  36
TORSDOF 9
ENDMDL
MODEL 8
REMARK VINA RESULT:      -6.9      3.022      6.734
REMARK  9 active torsions:
REMARK  status: ('A' for Active; 'I' for Inactive)
REMARK    1  A    between atoms: C_3  and  C_4 
REMARK    2  A    between atoms: C_4  and  C_5 
REMARK       I    between atoms: C_5  and  N_6 
REMARK    3  A    between atoms: N_6  and  C_7 
REMARK    4  A    between atoms: C_16  and  N_17 
REMARK       I    between atoms: N_17  and  C_18 
REMARK    5  A    between atoms: C_18  and  C_19 
REMARK    6  A    between atoms: C_19  and  S_20 
REMARK    7  A    between atoms: C_26  and  C_27 
REMARK    8  A    between atoms: C_27  and  O_28 
REMARK    9  A    between atoms: C_30  and  O_31 
ROOT
HETATM    1  C   UNL     1      43.702 -14.201   5.325  1.00  0.00     0.016 C 
HETATM    2  C   UNL     1      42.387 -14.957   4.927  1.00  0.00    -0.030 C 
HETATM    3  C   UNL     1      41.333 -13.785   4.568  1.00  0.00     0.056 C 
HETATM    4  C   UNL     1      41.315 -13.507   3.076  1.00  0.00     0.056 A 
HETATM    5  C   UNL     1      42.136 -14.120   2.156  1.00  0.00     0.012 A 
HETATM    6  S   UNL     1      41.854 -13.506   0.594  1.00  0.00    -0.055 SA
HETATM    7  C   UNL     1      40.644 -12.491   1.227  1.00  0.00     0.173 A 
HETATM    8  N   UNL     1      40.437 -12.588   2.522  1.00  0.00    -0.227 NA
HETATM    9  C   UNL     1      43.143 -15.169   2.439  1.00  0.00     0.055 C 
HETATM   10  C   UNL     1      42.770 -15.944   3.727  1.00  0.00     0.012 C 
HETATM   11  C   UNL     1      41.804 -17.182   3.490  1.00  0.00     0.008 C 
HETATM   12  C   UNL     1      42.502 -18.210   2.553  1.00  0.00     0.020 C 
HETATM   13  C   UNL     1      41.531 -17.892   4.848  1.00  0.00     0.128 C 
HETATM   14  C   UNL     1      41.030 -16.932   5.922  1.00  0.00     0.033 C 
HETATM   15  C   UNL     1      42.019 -15.796   6.179  1.00  0.00     0.013 C 
ENDROOT
BRANCH   3  16
HETATM   16  C   UNL     1      39.913 -13.910   5.154  1.00  0.00     0.114 C 
BRANCH  16  17
HETATM   17  C   UNL     1      39.461 -12.668   5.905  1.00  0.00     0.218 C 
HETATM   18  N   UNL     1      40.308 -12.293   6.920  1.00  0.00    -0.356 N 
HETATM   19  H   UNL     1      40.798 -13.071   7.358  1.00  0.00     0.162 HD
HETATM   20  O   UNL     1      38.452 -12.046   5.587  1.00  0.00    -0.274 OA
BRANCH  18  21
HETATM   21  C   UNL     1      40.068 -11.113   7.716  1.00  0.00     0.084 C 
HETATM   22  C   UNL     1      39.239 -11.378   8.967  1.00  0.00     0.025 C 
HETATM   23  C   UNL     1      39.498 -10.143   9.821  1.00  0.00     0.002 C 
HETATM   24  C   UNL     1      40.915  -9.687   9.473  1.00  0.00     0.002 C 
HETATM   25  C   UNL     1      41.359 -10.536   8.286  1.00  0.00     0.025 C 
ENDBRANCH  18  21
ENDBRANCH  16  17
ENDBRANCH   3  16
BRANCH  11  26
HETATM   26  C   UNL     1      40.465 -16.800   2.814  1.00  0.00     0.176 C 
BRANCH  26  27
HETATM   27  O   UNL     1      40.403 -17.263   1.468  1.00  0.00    -0.400 OA
HETATM   28  H   UNL     1      40.576 -16.502   0.886  1.00  0.00     0.209 HD
ENDBRANCH  26  27
ENDBRANCH  11  26
BRANCH   7  29
HETATM   29  N   UNL     1      39.897 -11.645   0.452  1.00  0.00    -0.305 N 
HETATM   30  C   UNL     1      38.905 -11.979  -0.443  1.00  0.00     0.232 C 
HETATM   31  O   UNL     1      38.516 -13.109  -0.726  1.00  0.00    -0.272 OA
HETATM   32  H   UNL     1      40.178 -10.673   0.503  1.00  0.00     0.171 HD
BRANCH  30  33
HETATM   33  C   UNL     1      38.210 -10.762  -1.041  1.00  0.00     0.176 C 
BRANCH  33  34
HETATM   34  S   UNL     1      36.406 -10.780  -0.769  1.00  0.00    -0.164 SA
HETATM   35  C   UNL     1      36.398 -10.860   1.041  1.00  0.00     0.090 C 
ENDBRANCH  33  34
ENDBRANCH  30  33
ENDBRANCH   7  29
BRANCH  13  36
HETATM   36  O   UNL     1      42.731 -18.494   5.346  1.00  0.00    -0.395 OA
HETATM   37  H   UNL     1      42.653 -18.537   6.314  1.00  0.00     0.210 HD
ENDBRANCH  13  36
TORSDOF 9
ENDMDL
MODEL 9
REMARK VINA RESULT:      -6.8      3.272      6.576
REMARK  9 active torsions:
REMARK  status: ('A' for Active; 'I' for Inactive)
REMARK    1  A    between atoms: C_3  and  C_4 
REMARK    2  A    between atoms: C_4  and  C_5 
REMARK       I    between atoms: C_5  and  N_6 
REMARK    3  A    between atoms: N_6  and  C_7 
REMARK    4  A    between atoms: C_16  and  N_17 
REMARK       I    between atoms: N_17  and  C_18 
REMARK    5  A    between atoms: C_18  and  C_19 
REMARK    6  A    between atoms: C_19  and  S_20 
REMARK    7  A    between atoms: C_26  and  C_27 
REMARK    8  A    between atoms: C_27  and  O_28 
REMARK    9  A    between atoms: C_30  and  O_31 
ROOT
HETATM    1  C   UNL     1      44.363 -14.242   3.210  1.00  0.00     0.016 C 
HETATM    2  C   UNL     1      42.947 -14.914   3.149  1.00  0.00    -0.030 C 
HETATM    3  C   UNL     1      42.432 -14.928   4.680  1.00  0.00     0.056 C 
HETATM    4  C   UNL     1      41.559 -13.722   4.973  1.00  0.00     0.056 A 
HETATM    5  C   UNL     1      41.297 -12.710   4.076  1.00  0.00     0.012 A 
HETATM    6  S   UNL     1      40.323 -11.511   4.789  1.00  0.00    -0.055 SA
HETATM    7  C   UNL     1      40.285 -12.417   6.229  1.00  0.00     0.173 A 
HETATM    8  N   UNL     1      40.945 -13.554   6.205  1.00  0.00    -0.227 NA
HETATM    9  C   UNL     1      41.775 -12.631   2.676  1.00  0.00     0.055 C 
HETATM   10  C   UNL     1      42.073 -14.048   2.125  1.00  0.00     0.012 C 
HETATM   11  C   UNL     1      40.821 -14.772   1.471  1.00  0.00     0.008 C 
HETATM   12  C   UNL     1      40.313 -13.936   0.261  1.00  0.00     0.020 C 
HETATM   13  C   UNL     1      41.255 -16.167   0.931  1.00  0.00     0.128 C 
HETATM   14  C   UNL     1      41.959 -17.013   1.986  1.00  0.00     0.033 C 
HETATM   15  C   UNL     1      43.202 -16.317   2.539  1.00  0.00     0.013 C 
ENDROOT
BRANCH   3  16
HETATM   16  C   UNL     1      41.810 -16.237   5.202  1.00  0.00     0.114 C 
BRANCH  16  17
HETATM   17  C   UNL     1      42.828 -17.185   5.816  1.00  0.00     0.218 C 
HETATM   18  N   UNL     1      43.006 -18.346   5.103  1.00  0.00    -0.356 N 
HETATM   19  H   UNL     1      42.174 -18.657   4.604  1.00  0.00     0.162 HD
HETATM   20  O   UNL     1      43.456 -16.899   6.831  1.00  0.00    -0.274 OA
BRANCH  18  21
HETATM   21  C   UNL     1      43.964 -19.348   5.505  1.00  0.00     0.084 C 
HETATM   22  C   UNL     1      43.384 -20.413   6.428  1.00  0.00     0.025 C 
HETATM   23  C   UNL     1      44.408 -21.538   6.346  1.00  0.00     0.002 C 
HETATM   24  C   UNL     1      45.002 -21.456   4.939  1.00  0.00     0.002 C 
HETATM   25  C   UNL     1      44.464 -20.169   4.321  1.00  0.00     0.025 C 
ENDBRANCH  18  21
ENDBRANCH  16  17
ENDBRANCH   3  16
BRANCH  11  26
HETATM   26  C   UNL     1      39.623 -14.931   2.438  1.00  0.00     0.176 C 
BRANCH  26  27
HETATM   27  O   UNL     1      38.675 -15.877   1.952  1.00  0.00    -0.400 OA
HETATM   28  H   UNL     1      37.899 -15.382   1.637  1.00  0.00     0.209 HD
ENDBRANCH  26  27
ENDBRANCH  11  26
BRANCH   7  29
HETATM   29  N   UNL     1      39.590 -12.026   7.341  1.00  0.00    -0.305 N 
HETATM   30  C   UNL     1      39.954 -11.079   8.271  1.00  0.00     0.232 C 
HETATM   31  O   UNL     1      40.988 -10.417   8.285  1.00  0.00    -0.272 OA
HETATM   32  H   UNL     1      38.750 -12.564   7.520  1.00  0.00     0.171 HD
BRANCH  30  33
HETATM   33  C   UNL     1      38.874 -10.824   9.316  1.00  0.00     0.176 C 
BRANCH  33  34
HETATM   34  S   UNL     1      39.450  -9.751  10.674  1.00  0.00    -0.164 SA
HETATM   35  C   UNL     1      40.276 -11.005  11.688  1.00  0.00     0.090 C 
ENDBRANCH  33  34
ENDBRANCH  30  33
ENDBRANCH   7  29
BRANCH  13  36
HETATM   36  O   UNL     1      42.164 -16.015  -0.166  1.00  0.00    -0.395 OA
HETATM   37  H   UNL     1      41.673 -15.595  -0.892  1.00  0.00     0.210 HD
ENDBRANCH  13  36
TORSDOF 9
ENDMDL
MODEL 10
REMARK VINA RESULT:      -6.8      3.983      6.991
REMARK  9 active torsions:
REMARK  status: ('A' for Active; 'I' for Inactive)
REMARK    1  A    between atoms: C_3  and  C_4 
REMARK    2  A    between atoms: C_4  and  C_5 
REMARK       I    between atoms: C_5  and  N_6 
REMARK    3  A    between atoms: N_6  and  C_7 
REMARK    4  A    between atoms: C_16  and  N_17 
REMARK       I    between atoms: N_17  and  C_18 
REMARK    5  A    between atoms: C_18  and  C_19 
REMARK    6  A    between atoms: C_19  and  S_20 
REMARK    7  A    between atoms: C_26  and  C_27 
REMARK    8  A    between atoms: C_27  and  O_28 
REMARK    9  A    between atoms: C_30  and  O_31 
ROOT
HETATM    1  C   UNL     1      42.090 -11.984   0.645  1.00  0.00     0.016 C 
HETATM    2  C   UNL     1      40.965 -12.995   0.229  1.00  0.00    -0.030 C 
HETATM    3  C   UNL     1      39.839 -12.851   1.379  1.00  0.00     0.056 C 
HETATM    4  C   UNL     1      38.754 -11.876   0.961  1.00  0.00     0.056 A 
HETATM    5  C   UNL     1      38.762 -11.153  -0.212  1.00  0.00     0.012 A 
HETATM    6  S   UNL     1      37.405 -10.131  -0.298  1.00  0.00    -0.055 SA
HETATM    7  C   UNL     1      36.877 -10.728   1.206  1.00  0.00     0.173 A 
HETATM    8  N   UNL     1      37.644 -11.641   1.758  1.00  0.00    -0.227 NA
HETATM    9  C   UNL     1      39.788 -11.220  -1.278  1.00  0.00     0.055 C 
HETATM   10  C   UNL     1      40.509 -12.591  -1.250  1.00  0.00     0.012 C 
HETATM   11  C   UNL     1      39.797 -13.722  -2.108  1.00  0.00     0.008 C 
HETATM   12  C   UNL     1      39.752 -13.287  -3.601  1.00  0.00     0.020 C 
HETATM   13  C   UNL     1      40.630 -15.035  -2.024  1.00  0.00     0.128 C 
HETATM   14  C   UNL     1      40.918 -15.458  -0.588  1.00  0.00     0.033 C 
HETATM   15  C   UNL     1      41.671 -14.376   0.185  1.00  0.00     0.013 C 
ENDROOT
BRANCH   3  16
HETATM   16  C   UNL     1      39.256 -14.153   1.963  1.00  0.00     0.114 C 
BRANCH  16  17
HETATM   17  C   UNL     1      39.843 -14.521   3.316  1.00  0.00     0.218 C 
HETATM   18  N   UNL     1      40.545 -15.702   3.315  1.00  0.00    -0.356 N 
HETATM   19  H   UNL     1      40.202 -16.387   2.642  1.00  0.00     0.162 HD
HETATM   20  O   UNL     1      39.727 -13.792   4.297  1.00  0.00    -0.274 OA
BRANCH  18  21
HETATM   21  C   UNL     1      41.212 -16.194   4.497  1.00  0.00     0.084 C 
HETATM   22  C   UNL     1      41.274 -17.715   4.575  1.00  0.00     0.025 C 
HETATM   23  C   UNL     1      42.359 -17.964   5.616  1.00  0.00     0.002 C 
HETATM   24  C   UNL     1      43.334 -16.793   5.487  1.00  0.00     0.002 C 
HETATM   25  C   UNL     1      42.684 -15.798   4.530  1.00  0.00     0.025 C 
ENDBRANCH  18  21
ENDBRANCH  16  17
ENDBRANCH   3  16
BRANCH  11  26
HETATM   26  C   UNL     1      38.336 -13.995  -1.678  1.00  0.00     0.176 C 
BRANCH  26  27
HETATM   27  O   UNL     1      37.752 -15.049  -2.440  1.00  0.00    -0.400 OA
HETATM   28  H   UNL     1      37.380 -15.695  -1.814  1.00  0.00     0.209 HD
ENDBRANCH  26  27
ENDBRANCH  11  26
BRANCH   7  29
HETATM   29  N   UNL     1      35.714 -10.324   1.803  1.00  0.00    -0.305 N 
HETATM   30  C   UNL     1      34.433 -10.433   1.311  1.00  0.00     0.232 C 
HETATM   31  O   UNL     1      34.095 -10.901   0.227  1.00  0.00    -0.272 OA
HETATM   32  H   UNL     1      35.843  -9.821   2.673  1.00  0.00     0.171 HD
BRANCH  30  33
HETATM   33  C   UNL     1      33.372  -9.981   2.307  1.00  0.00     0.176 C 
BRANCH  33  34
HETATM   34  S   UNL     1      31.676 -10.333   1.736  1.00  0.00    -0.164 SA
HETATM   35  C   UNL     1      31.235 -11.612   2.942  1.00  0.00     0.090 C 
ENDBRANCH  33  34
ENDBRANCH  30  33
ENDBRANCH   7  29
BRANCH  13  36
HETATM   36  O   UNL     1      41.894 -14.865  -2.677  1.00  0.00    -0.395 OA
HETATM   37  H   UNL     1      42.471 -15.590  -2.382  1.00  0.00     0.210 HD
ENDBRANCH  13  36
TORSDOF 9
ENDMDL
