MODEL 1
REMARK VINA RESULT:      -8.7      0.000      0.000
REMARK  7 active torsions:
REMARK  status: ('A' for Active; 'I' for Inactive)
REMARK    1  A    between atoms: O_2  and  C_3 
REMARK    2  A    between atoms: C_4  and  C_5 
REMARK    3  A    between atoms: C_5  and  N_6 
REMARK    4  A    between atoms: C_5  and  C_12 
REMARK    5  A    between atoms: C_12  and  N_13 
REMARK       I    between atoms: N_13  and  C_14 
REMARK       I    between atoms: C_14  and  N_15 
REMARK    6  A    between atoms: N_15  and  C_16 
REMARK    7  A    between atoms: C_17  and  O_18 
ROOT
HETATM    1  N   UNL     1      41.522 -16.974   0.986  1.00  0.00    -0.341 N 
HETATM    2  C   UNL     1      42.727 -17.475   1.371  1.00  0.00     0.316 C 
HETATM    3  N   UNL     1      42.701 -18.049   2.600  1.00  0.00    -0.332 N 
HETATM    4  O   UNL     1      43.719 -17.406   0.653  1.00  0.00    -0.247 OA
HETATM    5  H   UNL     1      40.749 -17.082   1.632  1.00  0.00     0.164 HD
HETATM    6  H   UNL     1      41.986 -17.745   3.248  1.00  0.00     0.165 HD
ENDROOT
BRANCH   1   7
HETATM    7  C   UNL     1      41.348 -16.070  -0.150  1.00  0.00     0.162 C 
BRANCH   7   8
HETATM    8  C   UNL     1      40.769 -14.654   0.184  1.00  0.00     0.241 C 
BRANCH   8   9
HETATM    9  C   UNL     1      41.534 -13.538  -0.526  1.00  0.00     0.007 A 
HETATM   10  C   UNL     1      41.716 -12.283   0.094  1.00  0.00     0.076 A 
HETATM   11  C   UNL     1      42.377 -11.253  -0.586  1.00  0.00     0.037 A 
HETATM   12  C   UNL     1      42.892 -11.464  -1.864  1.00  0.00     0.003 A 
HETATM   13  C   UNL     1      42.760 -12.707  -2.470  1.00  0.00     0.001 A 
HETATM   14  C   UNL     1      42.092 -13.735  -1.806  1.00  0.00     0.012 A 
BRANCH  10  15
HETATM   15  O   UNL     1      41.202 -12.151   1.359  1.00  0.00    -0.355 OA
HETATM   16  C   UNL     1      40.460 -10.963   1.634  1.00  0.00     0.210 C 
ENDBRANCH  10  15
ENDBRANCH   8   9
BRANCH   8  17
HETATM   17  N   UNL     1      39.250 -14.617  -0.024  1.00  0.00    -0.061 N 
HETATM   18  H   UNL     1      38.999 -15.598  -0.264  1.00  0.00     0.280 HD
HETATM   19  C   UNL     1      38.682 -13.810  -1.163  1.00  0.00     0.236 C 
HETATM   20  C   UNL     1      37.889 -12.714  -0.487  1.00  0.00     0.029 C 
HETATM   21  C   UNL     1      37.300 -13.429   0.712  1.00  0.00     0.029 C 
HETATM   22  C   UNL     1      38.460 -14.267   1.218  1.00  0.00     0.236 C 
ENDBRANCH   8  17
ENDBRANCH   7   8
ENDBRANCH   1   7
BRANCH   3  23
HETATM   23  C   UNL     1      43.937 -18.457   3.250  1.00  0.00     0.149 C 
HETATM   24  C   UNL     1      43.933 -18.173   4.785  1.00  0.00     0.149 C 
HETATM   25  C   UNL     1      44.732 -19.309   5.447  1.00  0.00     0.073 C 
HETATM   26  C   UNL     1      44.578 -20.422   4.453  1.00  0.00    -0.047 A 
HETATM   27  C   UNL     1      44.138 -19.946   3.213  1.00  0.00    -0.026 A 
HETATM   28  C   UNL     1      44.871 -21.762   4.645  1.00  0.00     0.008 A 
HETATM   29  C   UNL     1      43.993 -20.808   2.135  1.00  0.00     0.010 A 
HETATM   30  C   UNL     1      44.277 -22.163   2.322  1.00  0.00     0.001 A 
HETATM   31  C   UNL     1      44.710 -22.636   3.570  1.00  0.00     0.001 A 
BRANCH  24  32
HETATM   32  O   UNL     1      42.595 -18.175   5.317  1.00  0.00    -0.393 OA
HETATM   33  H   UNL     1      42.650 -17.793   6.208  1.00  0.00     0.210 HD
ENDBRANCH  24  32
ENDBRANCH   3  23
TORSDOF 7
ENDMDL
MODEL 2
REMARK VINA RESULT:      -8.5      1.754      3.514
REMARK  7 active torsions:
REMARK  status: ('A' for Active; 'I' for Inactive)
REMARK    1  A    between atoms: O_2  and  C_3 
REMARK    2  A    between atoms: C_4  and  C_5 
REMARK    3  A    between atoms: C_5  and  N_6 
REMARK    4  A    between atoms: C_5  and  C_12 
REMARK    5  A    between atoms: C_12  and  N_13 
REMARK       I    between atoms: N_13  and  C_14 
REMARK       I    between atoms: C_14  and  N_15 
REMARK    6  A    between atoms: N_15  and  C_16 
REMARK    7  A    between atoms: C_17  and  O_18 
ROOT
HETATM    1  N   UNL     1      40.809 -16.470   1.039  1.00  0.00    -0.341 N 
HETATM    2  C   UNL     1      42.098 -16.675   1.422  1.00  0.00     0.316 C 
HETATM    3  N   UNL     1      42.298 -17.884   2.004  1.00  0.00    -0.332 N 
HETATM    4  O   UNL     1      42.971 -15.834   1.239  1.00  0.00    -0.247 OA
HETATM    5  H   UNL     1      40.150 -17.220   1.215  1.00  0.00     0.164 HD
HETATM    6  H   UNL     1      41.505 -18.337   2.439  1.00  0.00     0.165 HD
ENDROOT
BRANCH   1   7
HETATM    7  C   UNL     1      40.277 -15.164   0.653  1.00  0.00     0.162 C 
BRANCH   7   8
HETATM    8  C   UNL     1      40.613 -14.690  -0.802  1.00  0.00     0.241 C 
BRANCH   8   9
HETATM    9  C   UNL     1      39.420 -14.015  -1.476  1.00  0.00     0.007 A 
HETATM   10  C   UNL     1      38.975 -14.440  -2.747  1.00  0.00     0.076 A 
HETATM   11  C   UNL     1      37.912 -13.783  -3.375  1.00  0.00     0.037 A 
HETATM   12  C   UNL     1      37.258 -12.727  -2.742  1.00  0.00     0.003 A 
HETATM   13  C   UNL     1      37.654 -12.326  -1.473  1.00  0.00     0.001 A 
HETATM   14  C   UNL     1      38.720 -12.966  -0.844  1.00  0.00     0.012 A 
BRANCH  10  15
HETATM   15  O   UNL     1      39.651 -15.497  -3.302  1.00  0.00    -0.355 OA
HETATM   16  C   UNL     1      38.966 -16.244  -4.308  1.00  0.00     0.210 C 
ENDBRANCH  10  15
ENDBRANCH   8   9
BRANCH   8  17
HETATM   17  N   UNL     1      41.907 -13.869  -0.828  1.00  0.00    -0.061 N 
HETATM   18  H   UNL     1      42.653 -14.556  -0.595  1.00  0.00     0.280 HD
HETATM   19  C   UNL     1      42.102 -12.769   0.184  1.00  0.00     0.236 C 
HETATM   20  C   UNL     1      42.136 -11.502  -0.642  1.00  0.00     0.029 C 
HETATM   21  C   UNL     1      42.869 -11.946  -1.891  1.00  0.00     0.029 C 
HETATM   22  C   UNL     1      42.259 -13.303  -2.186  1.00  0.00     0.236 C 
ENDBRANCH   8  17
ENDBRANCH   7   8
ENDBRANCH   1   7
BRANCH   3  23
HETATM   23  C   UNL     1      43.565 -18.190   2.650  1.00  0.00     0.149 C 
HETATM   24  C   UNL     1      43.575 -17.815   4.166  1.00  0.00     0.149 C 
HETATM   25  C   UNL     1      44.442 -18.869   4.877  1.00  0.00     0.073 C 
HETATM   26  C   UNL     1      44.327 -20.045   3.953  1.00  0.00    -0.047 A 
HETATM   27  C   UNL     1      43.841 -19.667   2.697  1.00  0.00    -0.026 A 
HETATM   28  C   UNL     1      44.692 -21.356   4.217  1.00  0.00     0.008 A 
HETATM   29  C   UNL     1      43.721 -20.598   1.675  1.00  0.00     0.010 A 
HETATM   30  C   UNL     1      44.077 -21.923   1.935  1.00  0.00     0.001 A 
HETATM   31  C   UNL     1      44.556 -22.299   3.200  1.00  0.00     0.001 A 
BRANCH  24  32
HETATM   32  O   UNL     1      42.249 -17.852   4.725  1.00  0.00    -0.393 OA
HETATM   33  H   UNL     1      42.328 -18.254   5.605  1.00  0.00     0.210 HD
ENDBRANCH  24  32
ENDBRANCH   3  23
TORSDOF 7
ENDMDL
MODEL 3
REMARK VINA RESULT:      -8.5      1.398      1.936
REMARK  7 active torsions:
REMARK  status: ('A' for Active; 'I' for Inactive)
REMARK    1  A    between atoms: O_2  and  C_3 
REMARK    2  A    between atoms: C_4  and  C_5 
REMARK    3  A    between atoms: C_5  and  N_6 
REMARK    4  A    between atoms: C_5  and  C_12 
REMARK    5  A    between atoms: C_12  and  N_13 
REMARK       I    between atoms: N_13  and  C_14 
REMARK       I    between atoms: C_14  and  N_15 
REMARK    6  A    between atoms: N_15  and  C_16 
REMARK    7  A    between atoms: C_17  and  O_18 
ROOT
HETATM    1  N   UNL     1      41.024 -16.336   1.528  1.00  0.00    -0.341 N 
HETATM    2  C   UNL     1      42.248 -16.916   1.657  1.00  0.00     0.316 C 
HETATM    3  N   UNL     1      42.429 -17.524   2.856  1.00  0.00    -0.332 N 
HETATM    4  O   UNL     1      43.081 -16.882   0.757  1.00  0.00    -0.247 OA
HETATM    5  H   UNL     1      40.389 -16.418   2.313  1.00  0.00     0.164 HD
HETATM    6  H   UNL     1      41.877 -17.199   3.639  1.00  0.00     0.165 HD
ENDROOT
BRANCH   1   7
HETATM    7  C   UNL     1      40.685 -15.390   0.466  1.00  0.00     0.162 C 
BRANCH   7   8
HETATM    8  C   UNL     1      41.547 -14.084   0.410  1.00  0.00     0.241 C 
BRANCH   8   9
HETATM    9  C   UNL     1      41.719 -13.569  -1.018  1.00  0.00     0.007 A 
HETATM   10  C   UNL     1      42.370 -12.341  -1.268  1.00  0.00     0.076 A 
HETATM   11  C   UNL     1      42.478 -11.857  -2.576  1.00  0.00     0.037 A 
HETATM   12  C   UNL     1      41.979 -12.594  -3.649  1.00  0.00     0.003 A 
HETATM   13  C   UNL     1      41.375 -13.825  -3.424  1.00  0.00     0.001 A 
HETATM   14  C   UNL     1      41.251 -14.310  -2.123  1.00  0.00     0.012 A 
BRANCH  10  15
HETATM   15  O   UNL     1      42.855 -11.679  -0.169  1.00  0.00    -0.355 OA
HETATM   16  C   UNL     1      42.751 -10.255  -0.176  1.00  0.00     0.210 C 
ENDBRANCH  10  15
ENDBRANCH   8   9
BRANCH   8  17
HETATM   17  N   UNL     1      41.029 -13.040   1.406  1.00  0.00    -0.061 N 
HETATM   18  H   UNL     1      41.353 -12.130   1.018  1.00  0.00     0.280 HD
HETATM   19  C   UNL     1      41.561 -13.040   2.816  1.00  0.00     0.236 C 
HETATM   20  C   UNL     1      40.362 -13.391   3.669  1.00  0.00     0.029 C 
HETATM   21  C   UNL     1      39.234 -12.676   2.954  1.00  0.00     0.029 C 
HETATM   22  C   UNL     1      39.521 -12.954   1.490  1.00  0.00     0.236 C 
ENDBRANCH   8  17
ENDBRANCH   7   8
ENDBRANCH   1   7
BRANCH   3  23
HETATM   23  C   UNL     1      43.742 -18.020   3.240  1.00  0.00     0.149 C 
HETATM   24  C   UNL     1      43.998 -17.922   4.776  1.00  0.00     0.149 C 
HETATM   25  C   UNL     1      44.859 -19.139   5.161  1.00  0.00     0.073 C 
HETATM   26  C   UNL     1      44.510 -20.123   4.083  1.00  0.00    -0.047 A 
HETATM   27  C   UNL     1      43.887 -19.496   2.997  1.00  0.00    -0.026 A 
HETATM   28  C   UNL     1      44.788 -21.480   4.067  1.00  0.00     0.008 A 
HETATM   29  C   UNL     1      43.542 -20.222   1.865  1.00  0.00     0.010 A 
HETATM   30  C   UNL     1      43.810 -21.592   1.845  1.00  0.00     0.001 A 
HETATM   31  C   UNL     1      44.427 -22.217   2.940  1.00  0.00     0.001 A 
BRANCH  24  32
HETATM   32  O   UNL     1      42.766 -17.972   5.520  1.00  0.00    -0.393 OA
HETATM   33  H   UNL     1      42.591 -17.069   5.830  1.00  0.00     0.210 HD
ENDBRANCH  24  32
ENDBRANCH   3  23
TORSDOF 7
ENDMDL
MODEL 4
REMARK VINA RESULT:      -8.3      2.192      8.581
REMARK  7 active torsions:
REMARK  status: ('A' for Active; 'I' for Inactive)
REMARK    1  A    between atoms: O_2  and  C_3 
REMARK    2  A    between atoms: C_4  and  C_5 
REMARK    3  A    between atoms: C_5  and  N_6 
REMARK    4  A    between atoms: C_5  and  C_12 
REMARK    5  A    between atoms: C_12  and  N_13 
REMARK       I    between atoms: N_13  and  C_14 
REMARK       I    between atoms: C_14  and  N_15 
REMARK    6  A    between atoms: N_15  and  C_16 
REMARK    7  A    between atoms: C_17  and  O_18 
ROOT
HETATM    1  N   UNL     1      42.595 -16.139   0.856  1.00  0.00    -0.341 N 
HETATM    2  C   UNL     1      42.181 -14.905   0.461  1.00  0.00     0.316 C 
HETATM    3  N   UNL     1      41.822 -14.854  -0.847  1.00  0.00    -0.332 N 
HETATM    4  O   UNL     1      42.139 -13.955   1.235  1.00  0.00    -0.247 OA
HETATM    5  H   UNL     1      42.589 -16.874   0.158  1.00  0.00     0.164 HD
HETATM    6  H   UNL     1      42.223 -15.539  -1.474  1.00  0.00     0.165 HD
ENDROOT
BRANCH   1   7
HETATM    7  C   UNL     1      43.292 -16.393   2.116  1.00  0.00     0.162 C 
BRANCH   7   8
HETATM    8  C   UNL     1      42.622 -17.439   3.071  1.00  0.00     0.241 C 
BRANCH   8   9
HETATM    9  C   UNL     1      43.288 -18.811   2.980  1.00  0.00     0.007 A 
HETATM   10  C   UNL     1      44.256 -19.206   3.929  1.00  0.00     0.076 A 
HETATM   11  C   UNL     1      44.893 -20.445   3.807  1.00  0.00     0.037 A 
HETATM   12  C   UNL     1      44.557 -21.317   2.772  1.00  0.00     0.003 A 
HETATM   13  C   UNL     1      43.576 -20.962   1.857  1.00  0.00     0.001 A 
HETATM   14  C   UNL     1      42.943 -19.724   1.962  1.00  0.00     0.012 A 
BRANCH  10  15
HETATM   15  O   UNL     1      44.523 -18.308   4.931  1.00  0.00    -0.355 OA
HETATM   16  C   UNL     1      44.772 -18.846   6.230  1.00  0.00     0.210 C 
ENDBRANCH  10  15
ENDBRANCH   8   9
BRANCH   8  17
HETATM   17  N   UNL     1      42.499 -16.884   4.494  1.00  0.00    -0.061 N 
HETATM   18  H   UNL     1      43.239 -17.380   5.030  1.00  0.00     0.280 HD
HETATM   19  C   UNL     1      41.243 -17.152   5.283  1.00  0.00     0.236 C 
HETATM   20  C   UNL     1      40.619 -15.786   5.473  1.00  0.00     0.029 C 
HETATM   21  C   UNL     1      41.832 -14.899   5.666  1.00  0.00     0.029 C 
HETATM   22  C   UNL     1      42.803 -15.406   4.615  1.00  0.00     0.236 C 
ENDBRANCH   8  17
ENDBRANCH   7   8
ENDBRANCH   1   7
BRANCH   3  23
HETATM   23  C   UNL     1      41.545 -13.576  -1.485  1.00  0.00     0.149 C 
HETATM   24  C   UNL     1      42.105 -13.495  -2.940  1.00  0.00     0.149 C 
HETATM   25  C   UNL     1      41.112 -12.643  -3.750  1.00  0.00     0.073 C 
HETATM   26  C   UNL     1      39.835 -12.839  -2.987  1.00  0.00    -0.047 A 
HETATM   27  C   UNL     1      40.075 -13.357  -1.709  1.00  0.00    -0.026 A 
HETATM   28  C   UNL     1      38.554 -12.516  -3.402  1.00  0.00     0.008 A 
HETATM   29  C   UNL     1      39.029 -13.551  -0.817  1.00  0.00     0.010 A 
HETATM   30  C   UNL     1      37.732 -13.238  -1.232  1.00  0.00     0.001 A 
HETATM   31  C   UNL     1      37.497 -12.726  -2.517  1.00  0.00     0.001 A 
BRANCH  24  32
HETATM   32  O   UNL     1      42.196 -14.799  -3.542  1.00  0.00    -0.393 OA
HETATM   33  H   UNL     1      42.919 -15.264  -3.092  1.00  0.00     0.210 HD
ENDBRANCH  24  32
ENDBRANCH   3  23
TORSDOF 7
ENDMDL
MODEL 5
REMARK VINA RESULT:      -8.3      1.415      2.681
REMARK  7 active torsions:
REMARK  status: ('A' for Active; 'I' for Inactive)
REMARK    1  A    between atoms: O_2  and  C_3 
REMARK    2  A    between atoms: C_4  and  C_5 
REMARK    3  A    between atoms: C_5  and  N_6 
REMARK    4  A    between atoms: C_5  and  C_12 
REMARK    5  A    between atoms: C_12  and  N_13 
REMARK       I    between atoms: N_13  and  C_14 
REMARK       I    between atoms: C_14  and  N_15 
REMARK    6  A    between atoms: N_15  and  C_16 
REMARK    7  A    between atoms: C_17  and  O_18 
ROOT
HETATM    1  N   UNL     1      41.619 -16.902   1.039  1.00  0.00    -0.341 N 
HETATM    2  C   UNL     1      42.806 -17.427   1.444  1.00  0.00     0.316 C 
HETATM    3  N   UNL     1      42.751 -17.988   2.678  1.00  0.00    -0.332 N 
HETATM    4  O   UNL     1      43.808 -17.390   0.738  1.00  0.00    -0.247 OA
HETATM    5  H   UNL     1      40.836 -16.984   1.676  1.00  0.00     0.164 HD
HETATM    6  H   UNL     1      42.036 -17.660   3.315  1.00  0.00     0.165 HD
ENDROOT
BRANCH   1   7
HETATM    7  C   UNL     1      41.480 -16.006  -0.108  1.00  0.00     0.162 C 
BRANCH   7   8
HETATM    8  C   UNL     1      40.450 -14.838   0.054  1.00  0.00     0.241 C 
BRANCH   8   9
HETATM    9  C   UNL     1      40.724 -13.998   1.301  1.00  0.00     0.007 A 
HETATM   10  C   UNL     1      39.660 -13.444   2.045  1.00  0.00     0.076 A 
HETATM   11  C   UNL     1      39.926 -12.637   3.156  1.00  0.00     0.037 A 
HETATM   12  C   UNL     1      41.238 -12.401   3.563  1.00  0.00     0.003 A 
HETATM   13  C   UNL     1      42.294 -12.975   2.869  1.00  0.00     0.001 A 
HETATM   14  C   UNL     1      42.041 -13.770   1.753  1.00  0.00     0.012 A 
BRANCH  10  15
HETATM   15  O   UNL     1      38.395 -13.734   1.600  1.00  0.00    -0.355 OA
HETATM   16  C   UNL     1      37.649 -12.659   1.029  1.00  0.00     0.210 C 
ENDBRANCH  10  15
ENDBRANCH   8   9
BRANCH   8  17
HETATM   17  N   UNL     1      40.324 -14.030  -1.242  1.00  0.00    -0.061 N 
HETATM   18  H   UNL     1      40.046 -13.078  -0.928  1.00  0.00     0.280 HD
HETATM   19  C   UNL     1      39.261 -14.404  -2.243  1.00  0.00     0.236 C 
HETATM   20  C   UNL     1      40.035 -14.867  -3.458  1.00  0.00     0.029 C 
HETATM   21  C   UNL     1      41.223 -13.927  -3.464  1.00  0.00     0.029 C 
HETATM   22  C   UNL     1      41.623 -13.865  -2.002  1.00  0.00     0.236 C 
ENDBRANCH   8  17
ENDBRANCH   7   8
ENDBRANCH   1   7
BRANCH   3  23
HETATM   23  C   UNL     1      43.969 -18.418   3.348  1.00  0.00     0.149 C 
HETATM   24  C   UNL     1      43.935 -18.161   4.887  1.00  0.00     0.149 C 
HETATM   25  C   UNL     1      44.708 -19.316   5.547  1.00  0.00     0.073 C 
HETATM   26  C   UNL     1      44.565 -20.410   4.530  1.00  0.00    -0.047 A 
HETATM   27  C   UNL     1      44.156 -19.908   3.289  1.00  0.00    -0.026 A 
HETATM   28  C   UNL     1      44.841 -21.756   4.705  1.00  0.00     0.008 A 
HETATM   29  C   UNL     1      44.027 -20.751   2.194  1.00  0.00     0.010 A 
HETATM   30  C   UNL     1      44.294 -22.111   2.364  1.00  0.00     0.001 A 
HETATM   31  C   UNL     1      44.696 -22.610   3.613  1.00  0.00     0.001 A 
BRANCH  24  32
HETATM   32  O   UNL     1      42.585 -18.158   5.390  1.00  0.00    -0.393 OA
HETATM   33  H   UNL     1      42.015 -17.875   4.657  1.00  0.00     0.210 HD
ENDBRANCH  24  32
ENDBRANCH   3  23
TORSDOF 7
ENDMDL
MODEL 6
REMARK VINA RESULT:      -8.2      1.748      2.520
REMARK  7 active torsions:
REMARK  status: ('A' for Active; 'I' for Inactive)
REMARK    1  A    between atoms: O_2  and  C_3 
REMARK    2  A    between atoms: C_4  and  C_5 
REMARK    3  A    between atoms: C_5  and  N_6 
REMARK    4  A    between atoms: C_5  and  C_12 
REMARK    5  A    between atoms: C_12  and  N_13 
REMARK       I    between atoms: N_13  and  C_14 
REMARK       I    between atoms: C_14  and  N_15 
REMARK    6  A    between atoms: N_15  and  C_16 
REMARK    7  A    between atoms: C_17  and  O_18 
ROOT
HETATM    1  N   UNL     1      41.102 -16.905   0.435  1.00  0.00    -0.341 N 
HETATM    2  C   UNL     1      42.113 -16.910   1.344  1.00  0.00     0.316 C 
HETATM    3  N   UNL     1      41.745 -17.402   2.554  1.00  0.00    -0.332 N 
HETATM    4  O   UNL     1      43.239 -16.511   1.066  1.00  0.00    -0.247 OA
HETATM    5  H   UNL     1      40.204 -17.264   0.740  1.00  0.00     0.164 HD
HETATM    6  H   UNL     1      40.766 -17.356   2.804  1.00  0.00     0.165 HD
ENDROOT
BRANCH   1   7
HETATM    7  C   UNL     1      41.156 -16.178  -0.832  1.00  0.00     0.162 C 
BRANCH   7   8
HETATM    8  C   UNL     1      40.212 -14.934  -0.950  1.00  0.00     0.241 C 
BRANCH   8   9
HETATM    9  C   UNL     1      40.800 -13.699  -0.269  1.00  0.00     0.007 A 
HETATM   10  C   UNL     1      40.489 -13.399   1.075  1.00  0.00     0.076 A 
HETATM   11  C   UNL     1      40.995 -12.240   1.671  1.00  0.00     0.037 A 
HETATM   12  C   UNL     1      41.839 -11.387   0.960  1.00  0.00     0.003 A 
HETATM   13  C   UNL     1      42.191 -11.691  -0.348  1.00  0.00     0.001 A 
HETATM   14  C   UNL     1      41.682 -12.838  -0.956  1.00  0.00     0.012 A 
BRANCH  10  15
HETATM   15  O   UNL     1      39.670 -14.291   1.720  1.00  0.00    -0.355 OA
HETATM   16  C   UNL     1      39.833 -14.412   3.133  1.00  0.00     0.210 C 
ENDBRANCH  10  15
ENDBRANCH   8   9
BRANCH   8  17
HETATM   17  N   UNL     1      39.771 -14.713  -2.401  1.00  0.00    -0.061 N 
HETATM   18  H   UNL     1      40.376 -13.937  -2.739  1.00  0.00     0.280 HD
HETATM   19  C   UNL     1      38.372 -14.226  -2.680  1.00  0.00     0.236 C 
HETATM   20  C   UNL     1      37.716 -15.373  -3.417  1.00  0.00     0.029 C 
HETATM   21  C   UNL     1      38.851 -15.905  -4.268  1.00  0.00     0.029 C 
HETATM   22  C   UNL     1      40.033 -15.888  -3.318  1.00  0.00     0.236 C 
ENDBRANCH   8  17
ENDBRANCH   7   8
ENDBRANCH   1   7
BRANCH   3  23
HETATM   23  C   UNL     1      42.640 -17.298   3.696  1.00  0.00     0.149 C 
HETATM   24  C   UNL     1      41.877 -17.119   5.046  1.00  0.00     0.149 C 
HETATM   25  C   UNL     1      42.696 -17.859   6.118  1.00  0.00     0.073 C 
HETATM   26  C   UNL     1      43.427 -18.884   5.303  1.00  0.00    -0.047 A 
HETATM   27  C   UNL     1      43.404 -18.569   3.940  1.00  0.00    -0.026 A 
HETATM   28  C   UNL     1      44.112 -19.993   5.773  1.00  0.00     0.008 A 
HETATM   29  C   UNL     1      44.080 -19.358   3.020  1.00  0.00     0.010 A 
HETATM   30  C   UNL     1      44.765 -20.484   3.484  1.00  0.00     0.001 A 
HETATM   31  C   UNL     1      44.777 -20.800   4.851  1.00  0.00     0.001 A 
BRANCH  24  32
HETATM   32  O   UNL     1      40.560 -17.698   4.986  1.00  0.00    -0.393 OA
HETATM   33  H   UNL     1      40.331 -17.964   5.891  1.00  0.00     0.210 HD
ENDBRANCH  24  32
ENDBRANCH   3  23
TORSDOF 7
ENDMDL
MODEL 7
REMARK VINA RESULT:      -8.1      2.029      3.501
REMARK  7 active torsions:
REMARK  status: ('A' for Active; 'I' for Inactive)
REMARK    1  A    between atoms: O_2  and  C_3 
REMARK    2  A    between atoms: C_4  and  C_5 
REMARK    3  A    between atoms: C_5  and  N_6 
REMARK    4  A    between atoms: C_5  and  C_12 
REMARK    5  A    between atoms: C_12  and  N_13 
REMARK       I    between atoms: N_13  and  C_14 
REMARK       I    between atoms: C_14  and  N_15 
REMARK    6  A    between atoms: N_15  and  C_16 
REMARK    7  A    between atoms: C_17  and  O_18 
ROOT
HETATM    1  N   UNL     1      40.458 -15.666   1.093  1.00  0.00    -0.341 N 
HETATM    2  C   UNL     1      41.549 -15.709   1.905  1.00  0.00     0.316 C 
HETATM    3  N   UNL     1      41.664 -16.877   2.586  1.00  0.00    -0.332 N 
HETATM    4  O   UNL     1      42.337 -14.773   1.985  1.00  0.00    -0.247 OA
HETATM    5  H   UNL     1      39.863 -16.486   1.075  1.00  0.00     0.164 HD
HETATM    6  H   UNL     1      40.823 -17.414   2.748  1.00  0.00     0.165 HD
ENDROOT
BRANCH   1   7
HETATM    7  C   UNL     1      39.956 -14.439   0.478  1.00  0.00     0.162 C 
BRANCH   7   8
HETATM    8  C   UNL     1      40.578 -14.064  -0.910  1.00  0.00     0.241 C 
BRANCH   8   9
HETATM    9  C   UNL     1      39.770 -14.632  -2.075  1.00  0.00     0.007 A 
HETATM   10  C   UNL     1      38.500 -14.105  -2.397  1.00  0.00     0.076 A 
HETATM   11  C   UNL     1      37.750 -14.666  -3.436  1.00  0.00     0.037 A 
HETATM   12  C   UNL     1      38.258 -15.725  -4.186  1.00  0.00     0.003 A 
HETATM   13  C   UNL     1      39.524 -16.226  -3.912  1.00  0.00     0.001 A 
HETATM   14  C   UNL     1      40.275 -15.682  -2.870  1.00  0.00     0.012 A 
BRANCH  10  15
HETATM   15  O   UNL     1      38.071 -13.051  -1.631  1.00  0.00    -0.355 OA
HETATM   16  C   UNL     1      37.423 -11.979  -2.315  1.00  0.00     0.210 C 
ENDBRANCH  10  15
ENDBRANCH   8   9
BRANCH   8  17
HETATM   17  N   UNL     1      40.854 -12.559  -1.001  1.00  0.00    -0.061 N 
HETATM   18  H   UNL     1      39.915 -12.132  -1.140  1.00  0.00     0.280 HD
HETATM   19  C   UNL     1      41.665 -12.027  -2.154  1.00  0.00     0.236 C 
HETATM   20  C   UNL     1      42.923 -11.484  -1.510  1.00  0.00     0.029 C 
HETATM   21  C   UNL     1      42.398 -10.900  -0.214  1.00  0.00     0.029 C 
HETATM   22  C   UNL     1      41.415 -11.950   0.267  1.00  0.00     0.236 C 
ENDBRANCH   8  17
ENDBRANCH   7   8
ENDBRANCH   1   7
BRANCH   3  23
HETATM   23  C   UNL     1      42.655 -17.019   3.642  1.00  0.00     0.149 C 
HETATM   24  C   UNL     1      42.014 -17.104   5.063  1.00  0.00     0.149 C 
HETATM   25  C   UNL     1      42.894 -18.058   5.890  1.00  0.00     0.073 C 
HETATM   26  C   UNL     1      43.520 -18.909   4.825  1.00  0.00    -0.047 A 
HETATM   27  C   UNL     1      43.394 -18.325   3.559  1.00  0.00    -0.026 A 
HETATM   28  C   UNL     1      44.204 -20.101   5.001  1.00  0.00     0.008 A 
HETATM   29  C   UNL     1      43.964 -18.924   2.444  1.00  0.00     0.010 A 
HETATM   30  C   UNL     1      44.647 -20.131   2.612  1.00  0.00     0.001 A 
HETATM   31  C   UNL     1      44.762 -20.717   3.882  1.00  0.00     0.001 A 
BRANCH  24  32
HETATM   32  O   UNL     1      40.678 -17.638   5.006  1.00  0.00    -0.393 OA
HETATM   33  H   UNL     1      40.643 -18.221   4.231  1.00  0.00     0.210 HD
ENDBRANCH  24  32
ENDBRANCH   3  23
TORSDOF 7
ENDMDL
MODEL 8
REMARK VINA RESULT:      -8.1      2.375      8.261
REMARK  7 active torsions:
REMARK  status: ('A' for Active; 'I' for Inactive)
REMARK    1  A    between atoms: O_2  and  C_3 
REMARK    2  A    between atoms: C_4  and  C_5 
REMARK    3  A    between atoms: C_5  and  N_6 
REMARK    4  A    between atoms: C_5  and  C_12 
REMARK    5  A    between atoms: C_12  and  N_13 
REMARK       I    between atoms: N_13  and  C_14 
REMARK       I    between atoms: C_14  and  N_15 
REMARK    6  A    between atoms: N_15  and  C_16 
REMARK    7  A    between atoms: C_17  and  O_18 
ROOT
HETATM    1  N   UNL     1      40.374 -16.226   1.698  1.00  0.00    -0.341 N 
HETATM    2  C   UNL     1      41.071 -16.051   0.543  1.00  0.00     0.316 C 
HETATM    3  N   UNL     1      40.537 -15.102  -0.267  1.00  0.00    -0.332 N 
HETATM    4  O   UNL     1      42.083 -16.696   0.291  1.00  0.00    -0.247 OA
HETATM    5  H   UNL     1      39.555 -15.644   1.836  1.00  0.00     0.164 HD
HETATM    6  H   UNL     1      39.551 -14.899  -0.171  1.00  0.00     0.165 HD
ENDROOT
BRANCH   1   7
HETATM    7  C   UNL     1      40.569 -17.362   2.596  1.00  0.00     0.162 C 
BRANCH   7   8
HETATM    8  C   UNL     1      41.328 -17.057   3.932  1.00  0.00     0.241 C 
BRANCH   8   9
HETATM    9  C   UNL     1      42.481 -18.030   4.174  1.00  0.00     0.007 A 
HETATM   10  C   UNL     1      42.918 -18.318   5.485  1.00  0.00     0.076 A 
HETATM   11  C   UNL     1      44.006 -19.173   5.690  1.00  0.00     0.037 A 
HETATM   12  C   UNL     1      44.647 -19.777   4.610  1.00  0.00     0.003 A 
HETATM   13  C   UNL     1      44.201 -19.540   3.316  1.00  0.00     0.001 A 
HETATM   14  C   UNL     1      43.125 -18.680   3.100  1.00  0.00     0.012 A 
BRANCH  10  15
HETATM   15  O   UNL     1      42.230 -17.705   6.501  1.00  0.00    -0.355 OA
HETATM   16  C   UNL     1      42.972 -17.373   7.675  1.00  0.00     0.210 C 
ENDBRANCH  10  15
ENDBRANCH   8   9
BRANCH   8  17
HETATM   17  N   UNL     1      41.715 -15.577   4.019  1.00  0.00    -0.061 N 
HETATM   18  H   UNL     1      41.272 -15.144   3.183  1.00  0.00     0.280 HD
HETATM   19  C   UNL     1      43.166 -15.187   3.900  1.00  0.00     0.236 C 
HETATM   20  C   UNL     1      43.513 -14.611   5.256  1.00  0.00     0.029 C 
HETATM   21  C   UNL     1      42.239 -13.883   5.635  1.00  0.00     0.029 C 
HETATM   22  C   UNL     1      41.149 -14.854   5.223  1.00  0.00     0.236 C 
ENDBRANCH   8  17
ENDBRANCH   7   8
ENDBRANCH   1   7
BRANCH   3  23
HETATM   23  C   UNL     1      41.036 -14.925  -1.622  1.00  0.00     0.149 C 
HETATM   24  C   UNL     1      39.904 -14.996  -2.695  1.00  0.00     0.149 C 
HETATM   25  C   UNL     1      40.290 -14.010  -3.812  1.00  0.00     0.073 C 
HETATM   26  C   UNL     1      41.162 -13.033  -3.081  1.00  0.00    -0.047 A 
HETATM   27  C   UNL     1      41.590 -13.547  -1.851  1.00  0.00    -0.026 A 
HETATM   28  C   UNL     1      41.582 -11.791  -3.526  1.00  0.00     0.008 A 
HETATM   29  C   UNL     1      42.460 -12.823  -1.047  1.00  0.00     0.010 A 
HETATM   30  C   UNL     1      42.881 -11.565  -1.484  1.00  0.00     0.001 A 
HETATM   31  C   UNL     1      42.442 -11.052  -2.714  1.00  0.00     0.001 A 
BRANCH  24  32
HETATM   32  O   UNL     1      38.633 -14.601  -2.146  1.00  0.00    -0.393 OA
HETATM   33  H   UNL     1      38.331 -15.335  -1.587  1.00  0.00     0.210 HD
ENDBRANCH  24  32
ENDBRANCH   3  23
TORSDOF 7
ENDMDL
MODEL 9
REMARK VINA RESULT:      -8.1      2.496      3.154
REMARK  7 active torsions:
REMARK  status: ('A' for Active; 'I' for Inactive)
REMARK    1  A    between atoms: O_2  and  C_3 
REMARK    2  A    between atoms: C_4  and  C_5 
REMARK    3  A    between atoms: C_5  and  N_6 
REMARK    4  A    between atoms: C_5  and  C_12 
REMARK    5  A    between atoms: C_12  and  N_13 
REMARK       I    between atoms: N_13  and  C_14 
REMARK       I    between atoms: C_14  and  N_15 
REMARK    6  A    between atoms: N_15  and  C_16 
REMARK    7  A    between atoms: C_17  and  O_18 
ROOT
HETATM    1  N   UNL     1      40.248 -16.728   2.770  1.00  0.00    -0.341 N 
HETATM    2  C   UNL     1      41.523 -17.157   2.566  1.00  0.00     0.316 C 
HETATM    3  N   UNL     1      42.014 -17.888   3.598  1.00  0.00    -0.332 N 
HETATM    4  O   UNL     1      42.138 -16.899   1.538  1.00  0.00    -0.247 OA
HETATM    5  H   UNL     1      39.805 -16.994   3.642  1.00  0.00     0.164 HD
HETATM    6  H   UNL     1      41.611 -17.742   4.514  1.00  0.00     0.165 HD
ENDROOT
BRANCH   1   7
HETATM    7  C   UNL     1      39.599 -15.704   1.954  1.00  0.00     0.162 C 
BRANCH   7   8
HETATM    8  C   UNL     1      39.601 -14.253   2.544  1.00  0.00     0.241 C 
BRANCH   8   9
HETATM    9  C   UNL     1      40.872 -13.956   3.337  1.00  0.00     0.007 A 
HETATM   10  C   UNL     1      40.831 -13.825   4.742  1.00  0.00     0.076 A 
HETATM   11  C   UNL     1      41.994 -13.505   5.452  1.00  0.00     0.037 A 
HETATM   12  C   UNL     1      43.210 -13.348   4.787  1.00  0.00     0.003 A 
HETATM   13  C   UNL     1      43.276 -13.518   3.411  1.00  0.00     0.001 A 
HETATM   14  C   UNL     1      42.120 -13.824   2.693  1.00  0.00     0.012 A 
BRANCH  10  15
HETATM   15  O   UNL     1      39.607 -14.012   5.332  1.00  0.00    -0.355 OA
HETATM   16  C   UNL     1      39.078 -12.919   6.082  1.00  0.00     0.210 C 
ENDBRANCH  10  15
ENDBRANCH   8   9
BRANCH   8  17
HETATM   17  N   UNL     1      39.267 -13.219   1.464  1.00  0.00    -0.061 N 
HETATM   18  H   UNL     1      40.090 -12.582   1.453  1.00  0.00     0.280 HD
HETATM   19  C   UNL     1      38.097 -12.291   1.668  1.00  0.00     0.236 C 
HETATM   20  C   UNL     1      37.119 -12.675   0.580  1.00  0.00     0.029 C 
HETATM   21  C   UNL     1      38.036 -12.997  -0.583  1.00  0.00     0.029 C 
HETATM   22  C   UNL     1      39.153 -13.791   0.067  1.00  0.00     0.236 C 
ENDBRANCH   8  17
ENDBRANCH   7   8
ENDBRANCH   1   7
BRANCH   3  23
HETATM   23  C   UNL     1      43.421 -18.256   3.637  1.00  0.00     0.149 C 
HETATM   24  C   UNL     1      43.980 -18.352   5.091  1.00  0.00     0.149 C 
HETATM   25  C   UNL     1      45.020 -19.486   5.092  1.00  0.00     0.073 C 
HETATM   26  C   UNL     1      44.555 -20.339   3.949  1.00  0.00    -0.047 A 
HETATM   27  C   UNL     1      43.661 -19.648   3.123  1.00  0.00    -0.026 A 
HETATM   28  C   UNL     1      44.960 -21.629   3.648  1.00  0.00     0.008 A 
HETATM   29  C   UNL     1      43.163 -20.239   1.970  1.00  0.00     0.010 A 
HETATM   30  C   UNL     1      43.558 -21.543   1.665  1.00  0.00     0.001 A 
HETATM   31  C   UNL     1      44.448 -22.234   2.501  1.00  0.00     0.001 A 
BRANCH  24  32
HETATM   32  O   UNL     1      42.941 -18.674   6.034  1.00  0.00    -0.393 OA
HETATM   33  H   UNL     1      42.127 -18.802   5.519  1.00  0.00     0.210 HD
ENDBRANCH  24  32
ENDBRANCH   3  23
TORSDOF 7
ENDMDL
MODEL 10
REMARK VINA RESULT:      -7.8      1.954      3.288
REMARK  7 active torsions:
REMARK  status: ('A' for Active; 'I' for Inactive)
REMARK    1  A    between atoms: O_2  and  C_3 
REMARK    2  A    between atoms: C_4  and  C_5 
REMARK    3  A    between atoms: C_5  and  N_6 
REMARK    4  A    between atoms: C_5  and  C_12 
REMARK    5  A    between atoms: C_12  and  N_13 
REMARK       I    between atoms: N_13  and  C_14 
REMARK       I    between atoms: C_14  and  N_15 
REMARK    6  A    between atoms: N_15  and  C_16 
REMARK    7  A    between atoms: C_17  and  O_18 
ROOT
HETATM    1  N   UNL     1      39.357 -15.478   1.387  1.00  0.00    -0.341 N 
HETATM    2  C   UNL     1      40.522 -15.367   2.081  1.00  0.00     0.316 C 
HETATM    3  N   UNL     1      41.015 -16.562   2.494  1.00  0.00    -0.332 N 
HETATM    4  O   UNL     1      41.054 -14.282   2.288  1.00  0.00    -0.247 OA
HETATM    5  H   UNL     1      38.989 -16.411   1.249  1.00  0.00     0.164 HD
HETATM    6  H   UNL     1      40.364 -17.327   2.610  1.00  0.00     0.165 HD
ENDROOT
BRANCH   1   7
HETATM    7  C   UNL     1      38.487 -14.343   1.082  1.00  0.00     0.162 C 
BRANCH   7   8
HETATM    8  C   UNL     1      38.988 -13.380  -0.047  1.00  0.00     0.241 C 
BRANCH   8   9
HETATM    9  C   UNL     1      39.097 -14.085  -1.398  1.00  0.00     0.007 A 
HETATM   10  C   UNL     1      40.356 -14.459  -1.916  1.00  0.00     0.076 A 
HETATM   11  C   UNL     1      40.446 -15.060  -3.176  1.00  0.00     0.037 A 
HETATM   12  C   UNL     1      39.297 -15.329  -3.918  1.00  0.00     0.003 A 
HETATM   13  C   UNL     1      38.048 -15.008  -3.403  1.00  0.00     0.001 A 
HETATM   14  C   UNL     1      37.948 -14.397  -2.154  1.00  0.00     0.012 A 
BRANCH  10  15
HETATM   15  O   UNL     1      41.442 -14.183  -1.125  1.00  0.00    -0.355 OA
HETATM   16  C   UNL     1      42.282 -13.103  -1.535  1.00  0.00     0.210 C 
ENDBRANCH  10  15
ENDBRANCH   8   9
BRANCH   8  17
HETATM   17  N   UNL     1      38.169 -12.085  -0.069  1.00  0.00    -0.061 N 
HETATM   18  H   UNL     1      38.026 -11.886  -1.080  1.00  0.00     0.280 HD
HETATM   19  C   UNL     1      38.783 -10.816   0.463  1.00  0.00     0.236 C 
HETATM   20  C   UNL     1      37.945 -10.472   1.676  1.00  0.00     0.029 C 
HETATM   21  C   UNL     1      36.555 -10.882   1.237  1.00  0.00     0.029 C 
HETATM   22  C   UNL     1      36.789 -12.210   0.540  1.00  0.00     0.236 C 
ENDBRANCH   8  17
ENDBRANCH   7   8
ENDBRANCH   1   7
BRANCH   3  23
HETATM   23  C   UNL     1      42.141 -16.616   3.414  1.00  0.00     0.149 C 
HETATM   24  C   UNL     1      41.697 -16.692   4.908  1.00  0.00     0.149 C 
HETATM   25  C   UNL     1      42.731 -17.569   5.635  1.00  0.00     0.073 C 
HETATM   26  C   UNL     1      43.263 -18.417   4.517  1.00  0.00    -0.047 A 
HETATM   27  C   UNL     1      42.939 -17.881   3.266  1.00  0.00    -0.026 A 
HETATM   28  C   UNL     1      44.033 -19.563   4.630  1.00  0.00     0.008 A 
HETATM   29  C   UNL     1      43.394 -18.482   2.100  1.00  0.00     0.010 A 
HETATM   30  C   UNL     1      44.163 -19.643   2.205  1.00  0.00     0.001 A 
HETATM   31  C   UNL     1      44.477 -20.181   3.462  1.00  0.00     0.001 A 
BRANCH  24  32
HETATM   32  O   UNL     1      40.398 -17.300   5.041  1.00  0.00    -0.393 OA
HETATM   33  H   UNL     1      39.818 -16.634   5.444  1.00  0.00     0.210 HD
ENDBRANCH  24  32
ENDBRANCH   3  23
TORSDOF 7
ENDMDL
