MODEL 1
REMARK VINA RESULT:      -7.4      0.000      0.000
REMARK  5 active torsions:
REMARK  status: ('A' for Active; 'I' for Inactive)
REMARK    1  A    between atoms: C_3  and  N_4 
REMARK       I    between atoms: N_4  and  C_5 
REMARK       I    between atoms: C_5  and  N_6 
REMARK    2  A    between atoms: N_6  and  C_7 
REMARK    3  A    between atoms: C_7  and  C_8 
REMARK    4  A    between atoms: C_8  and  O_9 
REMARK    5  A    between atoms: O_9  and  C_10 
ROOT
HETATM    1  N   UNL     1      42.287 -15.718   4.117  1.00  0.00    -0.307 N 
HETATM    2  C   UNL     1      41.563 -15.819   5.266  1.00  0.00     0.320 C 
HETATM    3  N   UNL     1      41.964 -16.805   6.119  1.00  0.00    -0.340 N 
HETATM    4  O   UNL     1      40.648 -15.083   5.617  1.00  0.00    -0.247 OA
HETATM    5  H   UNL     1      43.271 -15.863   4.306  1.00  0.00     0.170 HD
HETATM    6  H   UNL     1      41.390 -16.768   6.953  1.00  0.00     0.164 HD
ENDROOT
BRANCH   3   7
HETATM    7  C   UNL     1      42.477 -18.137   5.795  1.00  0.00     0.156 C 
BRANCH   7   8
HETATM    8  C   UNL     1      43.987 -18.411   5.971  1.00  0.00     0.142 C 
HETATM    9  C   UNL     1      44.636 -17.208   6.659  1.00  0.00     0.042 C 
BRANCH   8  10
HETATM   10  O   UNL     1      44.553 -18.600   4.669  1.00  0.00    -0.343 OA
BRANCH  10  11
HETATM   11  C   UNL     1      44.517 -19.828   4.067  1.00  0.00     0.086 A 
HETATM   12  C   UNL     1      44.118 -19.855   2.720  1.00  0.00     0.044 A 
HETATM   13 BR   UNL     1      43.676 -18.260   1.785  1.00  0.00    -0.048 Br
HETATM   14  C   UNL     1      44.040 -21.062   2.020  1.00  0.00     0.022 A 
HETATM   15  C   UNL     1      44.351 -22.257   2.661  1.00  0.00     0.002 A 
HETATM   16  C   UNL     1      44.736 -22.244   4.000  1.00  0.00     0.003 A 
HETATM   17  C   UNL     1      44.816 -21.036   4.701  1.00  0.00     0.038 A 
ENDBRANCH  10  11
ENDBRANCH   8  10
ENDBRANCH   7   8
ENDBRANCH   3   7
BRANCH   1  18
HETATM   18  C   UNL     1      41.992 -14.903   2.999  1.00  0.00     0.059 A 
HETATM   19  C   UNL     1      41.056 -15.188   1.993  1.00  0.00    -0.032 A 
HETATM   20  C   UNL     1      40.228 -16.440   1.922  1.00  0.00     0.050 C 
HETATM   21  C   UNL     1      40.880 -14.246   0.964  1.00  0.00     0.028 A 
HETATM   22  C   UNL     1      41.667 -13.106   0.935  1.00  0.00     0.117 A 
HETATM   23  N   UNL     1      42.617 -12.835   1.849  1.00  0.00    -0.271 NA
HETATM   24  C   UNL     1      42.750 -13.734   2.852  1.00  0.00     0.146 A 
ENDBRANCH   1  18
TORSDOF 5
ENDMDL
MODEL 2
REMARK VINA RESULT:      -7.2      2.489      6.385
REMARK  5 active torsions:
REMARK  status: ('A' for Active; 'I' for Inactive)
REMARK    1  A    between atoms: C_3  and  N_4 
REMARK       I    between atoms: N_4  and  C_5 
REMARK       I    between atoms: C_5  and  N_6 
REMARK    2  A    between atoms: N_6  and  C_7 
REMARK    3  A    between atoms: C_7  and  C_8 
REMARK    4  A    between atoms: C_8  and  O_9 
REMARK    5  A    between atoms: O_9  and  C_10 
ROOT
HETATM    1  N   UNL     1      43.001 -18.463   2.531  1.00  0.00    -0.307 N 
HETATM    2  C   UNL     1      43.486 -17.508   1.691  1.00  0.00     0.320 C 
HETATM    3  N   UNL     1      42.637 -16.471   1.440  1.00  0.00    -0.340 N 
HETATM    4  O   UNL     1      44.611 -17.469   1.206  1.00  0.00    -0.247 OA
HETATM    5  H   UNL     1      42.475 -18.037   3.285  1.00  0.00     0.170 HD
HETATM    6  H   UNL     1      43.107 -15.802   0.841  1.00  0.00     0.164 HD
ENDROOT
BRANCH   3   7
HETATM    7  C   UNL     1      41.181 -16.502   1.287  1.00  0.00     0.156 C 
BRANCH   7   8
HETATM    8  C   UNL     1      40.303 -16.054   2.477  1.00  0.00     0.142 C 
HETATM    9  C   UNL     1      39.107 -15.262   1.944  1.00  0.00     0.042 C 
BRANCH   8  10
HETATM   10  O   UNL     1      41.105 -15.224   3.326  1.00  0.00    -0.343 OA
BRANCH  10  11
HETATM   11  C   UNL     1      41.564 -15.696   4.525  1.00  0.00     0.086 A 
HETATM   12  C   UNL     1      42.800 -15.194   4.966  1.00  0.00     0.044 A 
HETATM   13 BR   UNL     1      43.767 -13.909   3.951  1.00  0.00    -0.048 Br
HETATM   14  C   UNL     1      43.357 -15.621   6.174  1.00  0.00     0.022 A 
HETATM   15  C   UNL     1      42.689 -16.563   6.952  1.00  0.00     0.002 A 
HETATM   16  C   UNL     1      41.469 -17.077   6.519  1.00  0.00     0.003 A 
HETATM   17  C   UNL     1      40.909 -16.648   5.311  1.00  0.00     0.038 A 
ENDBRANCH  10  11
ENDBRANCH   8  10
ENDBRANCH   7   8
ENDBRANCH   3   7
BRANCH   1  18
HETATM   18  C   UNL     1      43.597 -19.711   2.830  1.00  0.00     0.059 A 
HETATM   19  C   UNL     1      44.341 -20.016   3.980  1.00  0.00    -0.032 A 
HETATM   20  C   UNL     1      44.658 -19.042   5.080  1.00  0.00     0.050 C 
HETATM   21  C   UNL     1      44.842 -21.322   4.119  1.00  0.00     0.028 A 
HETATM   22  C   UNL     1      44.646 -22.245   3.103  1.00  0.00     0.117 A 
HETATM   23  N   UNL     1      43.992 -21.964   1.961  1.00  0.00    -0.271 NA
HETATM   24  C   UNL     1      43.486 -20.713   1.858  1.00  0.00     0.146 A 
ENDBRANCH   1  18
TORSDOF 5
ENDMDL
MODEL 3
REMARK VINA RESULT:      -7.0      1.811      2.341
REMARK  5 active torsions:
REMARK  status: ('A' for Active; 'I' for Inactive)
REMARK    1  A    between atoms: C_3  and  N_4 
REMARK       I    between atoms: N_4  and  C_5 
REMARK       I    between atoms: C_5  and  N_6 
REMARK    2  A    between atoms: N_6  and  C_7 
REMARK    3  A    between atoms: C_7  and  C_8 
REMARK    4  A    between atoms: C_8  and  O_9 
REMARK    5  A    between atoms: O_9  and  C_10 
ROOT
HETATM    1  N   UNL     1      43.598 -16.064   4.642  1.00  0.00    -0.307 N 
HETATM    2  C   UNL     1      43.537 -15.722   5.959  1.00  0.00     0.320 C 
HETATM    3  N   UNL     1      44.502 -16.276   6.747  1.00  0.00    -0.340 N 
HETATM    4  O   UNL     1      42.750 -14.934   6.470  1.00  0.00    -0.247 OA
HETATM    5  H   UNL     1      44.561 -16.093   4.329  1.00  0.00     0.170 HD
HETATM    6  H   UNL     1      44.391 -15.927   7.692  1.00  0.00     0.164 HD
ENDROOT
BRANCH   3   7
HETATM    7  C   UNL     1      45.095 -17.611   6.659  1.00  0.00     0.156 C 
BRANCH   7   8
HETATM    8  C   UNL     1      44.241 -18.763   6.084  1.00  0.00     0.142 C 
HETATM    9  C   UNL     1      43.760 -19.651   7.233  1.00  0.00     0.042 C 
BRANCH   8  10
HETATM   10  O   UNL     1      45.068 -19.517   5.189  1.00  0.00    -0.343 OA
BRANCH  10  11
HETATM   11  C   UNL     1      44.564 -19.988   4.008  1.00  0.00     0.086 A 
HETATM   12  C   UNL     1      44.593 -21.380   3.824  1.00  0.00     0.044 A 
HETATM   13 BR   UNL     1      45.278 -22.543   5.163  1.00  0.00    -0.048 Br
HETATM   14  C   UNL     1      44.110 -21.957   2.646  1.00  0.00     0.022 A 
HETATM   15  C   UNL     1      43.600 -21.148   1.635  1.00  0.00     0.002 A 
HETATM   16  C   UNL     1      43.578 -19.765   1.801  1.00  0.00     0.003 A 
HETATM   17  C   UNL     1      44.059 -19.186   2.980  1.00  0.00     0.038 A 
ENDBRANCH  10  11
ENDBRANCH   8  10
ENDBRANCH   7   8
ENDBRANCH   3   7
BRANCH   1  18
HETATM   18  C   UNL     1      42.639 -15.769   3.645  1.00  0.00     0.059 A 
HETATM   19  C   UNL     1      41.425 -16.444   3.441  1.00  0.00    -0.032 A 
HETATM   20  C   UNL     1      40.958 -17.627   4.239  1.00  0.00     0.050 C 
HETATM   21  C   UNL     1      40.583 -15.995   2.408  1.00  0.00     0.028 A 
HETATM   22  C   UNL     1      40.992 -14.955   1.590  1.00  0.00     0.117 A 
HETATM   23  N   UNL     1      42.177 -14.330   1.720  1.00  0.00    -0.271 NA
HETATM   24  C   UNL     1      42.961 -14.750   2.740  1.00  0.00     0.146 A 
ENDBRANCH   1  18
TORSDOF 5
ENDMDL
MODEL 4
REMARK VINA RESULT:      -6.9      2.561      3.496
REMARK  5 active torsions:
REMARK  status: ('A' for Active; 'I' for Inactive)
REMARK    1  A    between atoms: C_3  and  N_4 
REMARK       I    between atoms: N_4  and  C_5 
REMARK       I    between atoms: C_5  and  N_6 
REMARK    2  A    between atoms: N_6  and  C_7 
REMARK    3  A    between atoms: C_7  and  C_8 
REMARK    4  A    between atoms: C_8  and  O_9 
REMARK    5  A    between atoms: O_9  and  C_10 
ROOT
HETATM    1  N   UNL     1      41.054 -14.908   1.041  1.00  0.00    -0.307 N 
HETATM    2  C   UNL     1      41.947 -14.167   1.754  1.00  0.00     0.320 C 
HETATM    3  N   UNL     1      42.376 -14.736   2.917  1.00  0.00    -0.340 N 
HETATM    4  O   UNL     1      42.432 -13.093   1.418  1.00  0.00    -0.247 OA
HETATM    5  H   UNL     1      41.306 -15.889   1.070  1.00  0.00     0.170 HD
HETATM    6  H   UNL     1      43.062 -14.126   3.344  1.00  0.00     0.164 HD
ENDROOT
BRANCH   3   7
HETATM    7  C   UNL     1      41.617 -15.553   3.865  1.00  0.00     0.156 C 
BRANCH   7   8
HETATM    8  C   UNL     1      41.742 -17.091   3.782  1.00  0.00     0.142 C 
HETATM    9  C   UNL     1      41.186 -17.708   5.068  1.00  0.00     0.042 C 
BRANCH   8  10
HETATM   10  O   UNL     1      43.132 -17.410   3.642  1.00  0.00    -0.343 OA
BRANCH  10  11
HETATM   11  C   UNL     1      43.523 -18.678   3.307  1.00  0.00     0.086 A 
HETATM   12  C   UNL     1      44.362 -19.338   4.220  1.00  0.00     0.044 A 
HETATM   13 BR   UNL     1      44.902 -18.513   5.846  1.00  0.00    -0.048 Br
HETATM   14  C   UNL     1      44.824 -20.632   3.963  1.00  0.00     0.022 A 
HETATM   15  C   UNL     1      44.458 -21.277   2.785  1.00  0.00     0.002 A 
HETATM   16  C   UNL     1      43.637 -20.628   1.867  1.00  0.00     0.003 A 
HETATM   17  C   UNL     1      43.173 -19.334   2.124  1.00  0.00     0.038 A 
ENDBRANCH  10  11
ENDBRANCH   8  10
ENDBRANCH   7   8
ENDBRANCH   3   7
BRANCH   1  18
HETATM   18  C   UNL     1      40.332 -14.495  -0.102  1.00  0.00     0.059 A 
HETATM   19  C   UNL     1      38.999 -14.057  -0.124  1.00  0.00    -0.032 A 
HETATM   20  C   UNL     1      38.100 -13.987   1.077  1.00  0.00     0.050 C 
HETATM   21  C   UNL     1      38.450 -13.663  -1.358  1.00  0.00     0.028 A 
HETATM   22  C   UNL     1      39.206 -13.774  -2.513  1.00  0.00     0.117 A 
HETATM   23  N   UNL     1      40.465 -14.250  -2.534  1.00  0.00    -0.271 NA
HETATM   24  C   UNL     1      40.991 -14.592  -1.335  1.00  0.00     0.146 A 
ENDBRANCH   1  18
TORSDOF 5
ENDMDL
MODEL 5
REMARK VINA RESULT:      -6.9      2.594      3.607
REMARK  5 active torsions:
REMARK  status: ('A' for Active; 'I' for Inactive)
REMARK    1  A    between atoms: C_3  and  N_4 
REMARK       I    between atoms: N_4  and  C_5 
REMARK       I    between atoms: C_5  and  N_6 
REMARK    2  A    between atoms: N_6  and  C_7 
REMARK    3  A    between atoms: C_7  and  C_8 
REMARK    4  A    between atoms: C_8  and  O_9 
REMARK    5  A    between atoms: O_9  and  C_10 
ROOT
HETATM    1  N   UNL     1      40.561 -14.454   1.223  1.00  0.00    -0.307 N 
HETATM    2  C   UNL     1      39.585 -14.956   2.029  1.00  0.00     0.320 C 
HETATM    3  N   UNL     1      39.953 -15.166   3.325  1.00  0.00    -0.340 N 
HETATM    4  O   UNL     1      38.420 -15.172   1.713  1.00  0.00    -0.247 OA
HETATM    5  H   UNL     1      41.106 -13.759   1.720  1.00  0.00     0.170 HD
HETATM    6  H   UNL     1      39.149 -15.500   3.842  1.00  0.00     0.164 HD
ENDROOT
BRANCH   3   7
HETATM    7  C   UNL     1      41.241 -15.630   3.842  1.00  0.00     0.156 C 
BRANCH   7   8
HETATM    8  C   UNL     1      41.482 -17.151   3.973  1.00  0.00     0.142 C 
HETATM    9  C   UNL     1      40.982 -17.619   5.342  1.00  0.00     0.042 C 
BRANCH   8  10
HETATM   10  O   UNL     1      42.890 -17.384   3.855  1.00  0.00    -0.343 OA
BRANCH  10  11
HETATM   11  C   UNL     1      43.360 -18.594   3.424  1.00  0.00     0.086 A 
HETATM   12  C   UNL     1      44.297 -19.234   4.251  1.00  0.00     0.044 A 
HETATM   13 BR   UNL     1      44.860 -18.462   5.895  1.00  0.00    -0.048 Br
HETATM   14  C   UNL     1      44.844 -20.470   3.892  1.00  0.00     0.022 A 
HETATM   15  C   UNL     1      44.466 -21.075   2.697  1.00  0.00     0.002 A 
HETATM   16  C   UNL     1      43.547 -20.443   1.862  1.00  0.00     0.003 A 
HETATM   17  C   UNL     1      42.998 -19.208   2.221  1.00  0.00     0.038 A 
ENDBRANCH  10  11
ENDBRANCH   8  10
ENDBRANCH   7   8
ENDBRANCH   3   7
BRANCH   1  18
HETATM   18  C   UNL     1      40.503 -14.296  -0.181  1.00  0.00     0.059 A 
HETATM   19  C   UNL     1      39.937 -13.211  -0.867  1.00  0.00    -0.032 A 
HETATM   20  C   UNL     1      39.261 -12.040  -0.212  1.00  0.00     0.050 C 
HETATM   21  C   UNL     1      39.990 -13.214  -2.273  1.00  0.00     0.028 A 
HETATM   22  C   UNL     1      40.535 -14.301  -2.937  1.00  0.00     0.117 A 
HETATM   23  N   UNL     1      41.028 -15.385  -2.310  1.00  0.00    -0.271 NA
HETATM   24  C   UNL     1      41.002 -15.351  -0.956  1.00  0.00     0.146 A 
ENDBRANCH   1  18
TORSDOF 5
ENDMDL
MODEL 6
REMARK VINA RESULT:      -6.9      4.699      6.370
REMARK  5 active torsions:
REMARK  status: ('A' for Active; 'I' for Inactive)
REMARK    1  A    between atoms: C_3  and  N_4 
REMARK       I    between atoms: N_4  and  C_5 
REMARK       I    between atoms: C_5  and  N_6 
REMARK    2  A    between atoms: N_6  and  C_7 
REMARK    3  A    between atoms: C_7  and  C_8 
REMARK    4  A    between atoms: C_8  and  O_9 
REMARK    5  A    between atoms: O_9  and  C_10 
ROOT
HETATM    1  N   UNL     1      39.270 -14.859  -2.079  1.00  0.00    -0.307 N 
HETATM    2  C   UNL     1      40.542 -15.182  -2.444  1.00  0.00     0.320 C 
HETATM    3  N   UNL     1      41.363 -15.551  -1.419  1.00  0.00    -0.340 N 
HETATM    4  O   UNL     1      40.981 -15.227  -3.587  1.00  0.00    -0.247 OA
HETATM    5  H   UNL     1      38.939 -15.489  -1.358  1.00  0.00     0.170 HD
HETATM    6  H   UNL     1      42.266 -15.807  -1.801  1.00  0.00     0.164 HD
ENDROOT
BRANCH   3   7
HETATM    7  C   UNL     1      41.410 -15.025  -0.054  1.00  0.00     0.156 C 
BRANCH   7   8
HETATM    8  C   UNL     1      40.968 -15.942   1.108  1.00  0.00     0.142 C 
HETATM    9  C   UNL     1      39.665 -15.402   1.702  1.00  0.00     0.042 C 
BRANCH   8  10
HETATM   10  O   UNL     1      42.005 -15.928   2.096  1.00  0.00    -0.343 OA
BRANCH  10  11
HETATM   11  C   UNL     1      42.658 -17.081   2.435  1.00  0.00     0.086 A 
HETATM   12  C   UNL     1      42.476 -17.542   3.749  1.00  0.00     0.044 A 
HETATM   13 BR   UNL     1      41.360 -16.618   4.979  1.00  0.00    -0.048 Br
HETATM   14  C   UNL     1      43.110 -18.707   4.193  1.00  0.00     0.022 A 
HETATM   15  C   UNL     1      43.939 -19.418   3.331  1.00  0.00     0.002 A 
HETATM   16  C   UNL     1      44.137 -18.962   2.030  1.00  0.00     0.003 A 
HETATM   17  C   UNL     1      43.502 -17.798   1.583  1.00  0.00     0.038 A 
ENDBRANCH  10  11
ENDBRANCH   8  10
ENDBRANCH   7   8
ENDBRANCH   3   7
BRANCH   1  18
HETATM   18  C   UNL     1      38.270 -14.293  -2.903  1.00  0.00     0.059 A 
HETATM   19  C   UNL     1      37.946 -12.930  -2.990  1.00  0.00    -0.032 A 
HETATM   20  C   UNL     1      38.595 -11.841  -2.185  1.00  0.00     0.050 C 
HETATM   21  C   UNL     1      36.931 -12.546  -3.886  1.00  0.00     0.028 A 
HETATM   22  C   UNL     1      36.244 -13.513  -4.602  1.00  0.00     0.117 A 
HETATM   23  N   UNL     1      36.489 -14.832  -4.493  1.00  0.00    -0.271 NA
HETATM   24  C   UNL     1      37.491 -15.183  -3.653  1.00  0.00     0.146 A 
ENDBRANCH   1  18
TORSDOF 5
ENDMDL
MODEL 7
REMARK VINA RESULT:      -6.8      1.936      2.478
REMARK  5 active torsions:
REMARK  status: ('A' for Active; 'I' for Inactive)
REMARK    1  A    between atoms: C_3  and  N_4 
REMARK       I    between atoms: N_4  and  C_5 
REMARK       I    between atoms: C_5  and  N_6 
REMARK    2  A    between atoms: N_6  and  C_7 
REMARK    3  A    between atoms: C_7  and  C_8 
REMARK    4  A    between atoms: C_8  and  O_9 
REMARK    5  A    between atoms: O_9  and  C_10 
ROOT
HETATM    1  N   UNL     1      40.520 -14.847   4.041  1.00  0.00    -0.307 N 
HETATM    2  C   UNL     1      40.057 -14.540   5.285  1.00  0.00     0.320 C 
HETATM    3  N   UNL     1      40.503 -15.352   6.286  1.00  0.00    -0.340 N 
HETATM    4  O   UNL     1      39.345 -13.587   5.582  1.00  0.00    -0.247 OA
HETATM    5  H   UNL     1      41.495 -15.120   4.085  1.00  0.00     0.170 HD
HETATM    6  H   UNL     1      40.134 -15.015   7.167  1.00  0.00     0.164 HD
ENDROOT
BRANCH   3   7
HETATM    7  C   UNL     1      40.754 -16.794   6.246  1.00  0.00     0.156 C 
BRANCH   7   8
HETATM    8  C   UNL     1      42.199 -17.286   6.009  1.00  0.00     0.142 C 
HETATM    9  C   UNL     1      43.175 -16.307   6.666  1.00  0.00     0.042 C 
BRANCH   8  10
HETATM   10  O   UNL     1      42.421 -17.329   4.594  1.00  0.00    -0.343 OA
BRANCH  10  11
HETATM   11  C   UNL     1      43.103 -18.372   4.030  1.00  0.00     0.086 A 
HETATM   12  C   UNL     1      42.863 -18.615   2.668  1.00  0.00     0.044 A 
HETATM   13 BR   UNL     1      41.668 -17.530   1.662  1.00  0.00    -0.048 Br
HETATM   14  C   UNL     1      43.504 -19.664   2.002  1.00  0.00     0.022 A 
HETATM   15  C   UNL     1      44.386 -20.488   2.695  1.00  0.00     0.002 A 
HETATM   16  C   UNL     1      44.622 -20.265   4.050  1.00  0.00     0.003 A 
HETATM   17  C   UNL     1      43.982 -19.214   4.716  1.00  0.00     0.038 A 
ENDBRANCH  10  11
ENDBRANCH   8  10
ENDBRANCH   7   8
ENDBRANCH   3   7
BRANCH   1  18
HETATM   18  C   UNL     1      40.097 -14.280   2.817  1.00  0.00     0.059 A 
HETATM   19  C   UNL     1      40.635 -13.136   2.206  1.00  0.00    -0.032 A 
HETATM   20  C   UNL     1      41.741 -12.298   2.781  1.00  0.00     0.050 C 
HETATM   21  C   UNL     1      40.099 -12.729   0.971  1.00  0.00     0.028 A 
HETATM   22  C   UNL     1      39.028 -13.419   0.426  1.00  0.00     0.117 A 
HETATM   23  N   UNL     1      38.449 -14.480   1.017  1.00  0.00    -0.271 NA
HETATM   24  C   UNL     1      38.999 -14.881   2.188  1.00  0.00     0.146 A 
ENDBRANCH   1  18
TORSDOF 5
ENDMDL
MODEL 8
REMARK VINA RESULT:      -6.8      2.352      4.067
REMARK  5 active torsions:
REMARK  status: ('A' for Active; 'I' for Inactive)
REMARK    1  A    between atoms: C_3  and  N_4 
REMARK       I    between atoms: N_4  and  C_5 
REMARK       I    between atoms: C_5  and  N_6 
REMARK    2  A    between atoms: N_6  and  C_7 
REMARK    3  A    between atoms: C_7  and  C_8 
REMARK    4  A    between atoms: C_8  and  O_9 
REMARK    5  A    between atoms: O_9  and  C_10 
ROOT
HETATM    1  N   UNL     1      40.759 -15.637   3.293  1.00  0.00    -0.307 N 
HETATM    2  C   UNL     1      39.942 -15.718   2.206  1.00  0.00     0.320 C 
HETATM    3  N   UNL     1      40.125 -16.820   1.424  1.00  0.00    -0.340 N 
HETATM    4  O   UNL     1      39.041 -14.940   1.914  1.00  0.00    -0.247 OA
HETATM    5  H   UNL     1      40.877 -16.551   3.715  1.00  0.00     0.170 HD
HETATM    6  H   UNL     1      39.446 -16.803   0.673  1.00  0.00     0.164 HD
ENDROOT
BRANCH   3   7
HETATM    7  C   UNL     1      41.375 -17.507   1.095  1.00  0.00     0.156 C 
BRANCH   7   8
HETATM    8  C   UNL     1      42.600 -17.293   2.013  1.00  0.00     0.142 C 
HETATM    9  C   UNL     1      43.877 -17.423   1.180  1.00  0.00     0.042 C 
BRANCH   8  10
HETATM   10  O   UNL     1      42.568 -18.302   3.029  1.00  0.00    -0.343 OA
BRANCH  10  11
HETATM   11  C   UNL     1      43.368 -18.201   4.134  1.00  0.00     0.086 A 
HETATM   12  C   UNL     1      44.302 -19.232   4.329  1.00  0.00     0.044 A 
HETATM   13 BR   UNL     1      44.454 -20.677   3.103  1.00  0.00    -0.048 Br
HETATM   14  C   UNL     1      45.157 -19.224   5.435  1.00  0.00     0.022 A 
HETATM   15  C   UNL     1      45.083 -18.189   6.362  1.00  0.00     0.002 A 
HETATM   16  C   UNL     1      44.152 -17.167   6.186  1.00  0.00     0.003 A 
HETATM   17  C   UNL     1      43.296 -17.174   5.079  1.00  0.00     0.038 A 
ENDBRANCH  10  11
ENDBRANCH   8  10
ENDBRANCH   7   8
ENDBRANCH   3   7
BRANCH   1  18
HETATM   18  C   UNL     1      40.894 -14.537   4.171  1.00  0.00     0.059 A 
HETATM   19  C   UNL     1      41.983 -13.652   4.224  1.00  0.00    -0.032 A 
HETATM   20  C   UNL     1      43.212 -13.753   3.367  1.00  0.00     0.050 C 
HETATM   21  C   UNL     1      41.934 -12.596   5.152  1.00  0.00     0.028 A 
HETATM   22  C   UNL     1      40.860 -12.493   6.021  1.00  0.00     0.117 A 
HETATM   23  N   UNL     1      39.832 -13.362   6.038  1.00  0.00    -0.271 NA
HETATM   24  C   UNL     1      39.876 -14.352   5.115  1.00  0.00     0.146 A 
ENDBRANCH   1  18
TORSDOF 5
ENDMDL
MODEL 9
REMARK VINA RESULT:      -6.8      2.773      3.347
REMARK  5 active torsions:
REMARK  status: ('A' for Active; 'I' for Inactive)
REMARK    1  A    between atoms: C_3  and  N_4 
REMARK       I    between atoms: N_4  and  C_5 
REMARK       I    between atoms: C_5  and  N_6 
REMARK    2  A    between atoms: N_6  and  C_7 
REMARK    3  A    between atoms: C_7  and  C_8 
REMARK    4  A    between atoms: C_8  and  O_9 
REMARK    5  A    between atoms: O_9  and  C_10 
ROOT
HETATM    1  N   UNL     1      40.450 -14.339   6.265  1.00  0.00    -0.307 N 
HETATM    2  C   UNL     1      40.314 -15.270   5.280  1.00  0.00     0.320 C 
HETATM    3  N   UNL     1      40.583 -16.554   5.655  1.00  0.00    -0.340 N 
HETATM    4  O   UNL     1      39.923 -15.068   4.137  1.00  0.00    -0.247 OA
HETATM    5  H   UNL     1      40.099 -14.701   7.144  1.00  0.00     0.170 HD
HETATM    6  H   UNL     1      40.414 -17.166   4.866  1.00  0.00     0.164 HD
ENDROOT
BRANCH   3   7
HETATM    7  C   UNL     1      41.602 -17.036   6.588  1.00  0.00     0.156 C 
BRANCH   7   8
HETATM    8  C   UNL     1      43.027 -17.301   6.055  1.00  0.00     0.142 C 
HETATM    9  C   UNL     1      43.923 -16.113   6.411  1.00  0.00     0.042 C 
BRANCH   8  10
HETATM   10  O   UNL     1      42.943 -17.446   4.632  1.00  0.00    -0.343 OA
BRANCH  10  11
HETATM   11  C   UNL     1      43.473 -18.545   4.013  1.00  0.00     0.086 A 
HETATM   12  C   UNL     1      43.040 -18.796   2.701  1.00  0.00     0.044 A 
HETATM   13 BR   UNL     1      41.798 -17.650   1.830  1.00  0.00    -0.048 Br
HETATM   14  C   UNL     1      43.517 -19.900   1.988  1.00  0.00     0.022 A 
HETATM   15  C   UNL     1      44.425 -20.771   2.582  1.00  0.00     0.002 A 
HETATM   16  C   UNL     1      44.852 -20.539   3.888  1.00  0.00     0.003 A 
HETATM   17  C   UNL     1      44.377 -19.433   4.602  1.00  0.00     0.038 A 
ENDBRANCH  10  11
ENDBRANCH   8  10
ENDBRANCH   7   8
ENDBRANCH   3   7
BRANCH   1  18
HETATM   18  C   UNL     1      40.394 -12.934   6.115  1.00  0.00     0.059 A 
HETATM   19  C   UNL     1      41.278 -12.148   5.359  1.00  0.00    -0.032 A 
HETATM   20  C   UNL     1      42.463 -12.677   4.603  1.00  0.00     0.050 C 
HETATM   21  C   UNL     1      41.053 -10.761   5.308  1.00  0.00     0.028 A 
HETATM   22  C   UNL     1      40.020 -10.204   6.045  1.00  0.00     0.117 A 
HETATM   23  N   UNL     1      39.196 -10.922   6.829  1.00  0.00    -0.271 NA
HETATM   24  C   UNL     1      39.403 -12.261   6.840  1.00  0.00     0.146 A 
ENDBRANCH   1  18
TORSDOF 5
ENDMDL
MODEL 10
REMARK VINA RESULT:      -6.7      1.679      1.850
REMARK  5 active torsions:
REMARK  status: ('A' for Active; 'I' for Inactive)
REMARK    1  A    between atoms: C_3  and  N_4 
REMARK       I    between atoms: N_4  and  C_5 
REMARK       I    between atoms: C_5  and  N_6 
REMARK    2  A    between atoms: N_6  and  C_7 
REMARK    3  A    between atoms: C_7  and  C_8 
REMARK    4  A    between atoms: C_8  and  O_9 
REMARK    5  A    between atoms: O_9  and  C_10 
ROOT
HETATM    1  N   UNL     1      42.694 -15.167   4.612  1.00  0.00    -0.307 N 
HETATM    2  C   UNL     1      43.532 -15.137   5.685  1.00  0.00     0.320 C 
HETATM    3  N   UNL     1      43.798 -16.352   6.247  1.00  0.00    -0.340 N 
HETATM    4  O   UNL     1      44.100 -14.150   6.138  1.00  0.00    -0.247 OA
HETATM    5  H   UNL     1      42.898 -15.968   4.027  1.00  0.00     0.170 HD
HETATM    6  H   UNL     1      44.457 -16.223   7.005  1.00  0.00     0.164 HD
ENDROOT
BRANCH   3   7
HETATM    7  C   UNL     1      42.899 -17.495   6.413  1.00  0.00     0.156 C 
BRANCH   7   8
HETATM    8  C   UNL     1      43.510 -18.912   6.476  1.00  0.00     0.142 C 
HETATM    9  C   UNL     1      44.169 -19.111   7.844  1.00  0.00     0.042 C 
BRANCH   8  10
HETATM   10  O   UNL     1      44.490 -19.015   5.437  1.00  0.00    -0.343 OA
BRANCH  10  11
HETATM   11  C   UNL     1      44.495 -20.089   4.590  1.00  0.00     0.086 A 
HETATM   12  C   UNL     1      44.158 -19.833   3.250  1.00  0.00     0.044 A 
HETATM   13 BR   UNL     1      43.741 -18.078   2.650  1.00  0.00    -0.048 Br
HETATM   14  C   UNL     1      44.125 -20.867   2.310  1.00  0.00     0.022 A 
HETATM   15  C   UNL     1      44.420 -22.170   2.700  1.00  0.00     0.002 A 
HETATM   16  C   UNL     1      44.743 -22.438   4.029  1.00  0.00     0.003 A 
HETATM   17  C   UNL     1      44.778 -21.403   4.970  1.00  0.00     0.038 A 
ENDBRANCH  10  11
ENDBRANCH   8  10
ENDBRANCH   7   8
ENDBRANCH   3   7
BRANCH   1  18
HETATM   18  C   UNL     1      42.128 -14.053   3.949  1.00  0.00     0.059 A 
HETATM   19  C   UNL     1      40.933 -13.404   4.297  1.00  0.00    -0.032 A 
HETATM   20  C   UNL     1      40.033 -13.814   5.427  1.00  0.00     0.050 C 
HETATM   21  C   UNL     1      40.534 -12.294   3.532  1.00  0.00     0.028 A 
HETATM   22  C   UNL     1      41.285 -11.912   2.431  1.00  0.00     0.117 A 
HETATM   23  N   UNL     1      42.399 -12.553   2.034  1.00  0.00    -0.271 NA
HETATM   24  C   UNL     1      42.790 -13.598   2.801  1.00  0.00     0.146 A 
ENDBRANCH   1  18
TORSDOF 5
ENDMDL
