MODEL 1
REMARK VINA RESULT:      -7.4      0.000      0.000
REMARK  4 active torsions:
REMARK  status: ('A' for Active; 'I' for Inactive)
REMARK    1  A    between atoms: C_8  and  C_9 
REMARK    2  A    between atoms: C_9  and  N_10 
REMARK    3  A    between atoms: N_10  and  C_13 
REMARK    4  A    between atoms: C_13  and  C_14 
ROOT
HETATM    1  N   UNL     1      43.803 -18.727   7.469  1.00  0.00    -0.067 N 
HETATM    2  H   UNL     1      43.023 -19.162   6.962  1.00  0.00     0.277 HD
HETATM    3  H   UNL     1      44.059 -19.411   8.193  1.00  0.00     0.277 HD
ENDROOT
BRANCH   1   4
HETATM    4  C   UNL     1      44.946 -18.577   6.535  1.00  0.00     0.273 C 
BRANCH   4   5
HETATM    5  C   UNL     1      44.672 -19.347   5.296  1.00  0.00    -0.005 A 
HETATM    6  C   UNL     1      44.169 -18.821   4.062  1.00  0.00    -0.000 A 
HETATM    7  C   UNL     1      43.772 -17.540   3.624  1.00  0.00     0.014 A 
HETATM    8  C   UNL     1      44.093 -19.883   3.161  1.00  0.00     0.043 A 
HETATM    9  C   UNL     1      43.322 -17.371   2.309  1.00  0.00     0.001 A 
HETATM   10  C   UNL     1      43.261 -18.452   1.434  1.00  0.00     0.002 A 
HETATM   11  C   UNL     1      43.644 -19.730   1.844  1.00  0.00     0.030 A 
HETATM   12  N   UNL     1      44.514 -21.014   3.820  1.00  0.00    -0.365 N 
HETATM   13  H   UNL     1      44.545 -21.938   3.405  1.00  0.00     0.165 HD
HETATM   14  C   UNL     1      44.881 -20.700   5.103  1.00  0.00     0.098 A 
ENDBRANCH   4   5
ENDBRANCH   1   4
BRANCH   1  15
HETATM   15  C   UNL     1      43.345 -17.470   8.107  1.00  0.00     0.271 C 
BRANCH  15  16
HETATM   16  C   UNL     1      42.743 -16.546   7.089  1.00  0.00    -0.030 A 
HETATM   17  C   UNL     1      43.460 -15.418   6.650  1.00  0.00     0.048 A 
HETATM   18  C   UNL     1      42.885 -14.618   5.684  1.00  0.00     0.105 A 
HETATM   19  C   UNL     1      41.652 -14.897   5.148  1.00  0.00     0.105 A 
HETATM   20  O   UNL     1      43.440 -13.498   5.153  1.00  0.00    -0.323 OA
HETATM   21  O   UNL     1      41.274 -13.985   4.215  1.00  0.00    -0.323 OA
HETATM   22  C   UNL     1      40.922 -15.995   5.547  1.00  0.00     0.040 A 
HETATM   23  C   UNL     1      42.402 -13.084   4.236  1.00  0.00     0.352 A 
HETATM   24  C   UNL     1      41.476 -16.828   6.525  1.00  0.00     0.012 A 
ENDBRANCH  15  16
ENDBRANCH   1  15
TORSDOF 4
ENDMDL
MODEL 2
REMARK VINA RESULT:      -7.4      2.897      5.514
REMARK  4 active torsions:
REMARK  status: ('A' for Active; 'I' for Inactive)
REMARK    1  A    between atoms: C_8  and  C_9 
REMARK    2  A    between atoms: C_9  and  N_10 
REMARK    3  A    between atoms: N_10  and  C_13 
REMARK    4  A    between atoms: C_13  and  C_14 
ROOT
HETATM    1  N   UNL     1      43.660 -18.382   7.323  1.00  0.00    -0.067 N 
HETATM    2  H   UNL     1      43.902 -18.965   8.133  1.00  0.00     0.277 HD
HETATM    3  H   UNL     1      42.913 -18.900   6.841  1.00  0.00     0.277 HD
ENDROOT
BRANCH   1   4
HETATM    4  C   UNL     1      43.101 -17.099   7.818  1.00  0.00     0.273 C 
BRANCH   4   5
HETATM    5  C   UNL     1      42.194 -16.530   6.790  1.00  0.00    -0.005 A 
HETATM    6  C   UNL     1      42.515 -15.499   5.848  1.00  0.00    -0.000 A 
HETATM    7  C   UNL     1      43.663 -14.720   5.592  1.00  0.00     0.014 A 
HETATM    8  C   UNL     1      41.386 -15.297   5.056  1.00  0.00     0.043 A 
HETATM    9  C   UNL     1      43.638 -13.777   4.557  1.00  0.00     0.001 A 
HETATM   10  C   UNL     1      42.494 -13.602   3.783  1.00  0.00     0.002 A 
HETATM   11  C   UNL     1      41.344 -14.358   4.019  1.00  0.00     0.030 A 
HETATM   12  N   UNL     1      40.408 -16.153   5.504  1.00  0.00    -0.365 N 
HETATM   13  H   UNL     1      39.473 -16.206   5.117  1.00  0.00     0.165 HD
HETATM   14  C   UNL     1      40.889 -16.913   6.539  1.00  0.00     0.098 A 
ENDBRANCH   4   5
ENDBRANCH   1   4
BRANCH   1  15
HETATM   15  C   UNL     1      44.836 -18.252   6.431  1.00  0.00     0.271 C 
BRANCH  15  16
HETATM   16  C   UNL     1      44.560 -18.871   5.092  1.00  0.00    -0.030 A 
HETATM   17  C   UNL     1      44.819 -20.237   4.880  1.00  0.00     0.048 A 
HETATM   18  C   UNL     1      44.513 -20.772   3.646  1.00  0.00     0.105 A 
HETATM   19  C   UNL     1      43.965 -20.015   2.640  1.00  0.00     0.105 A 
HETATM   20  O   UNL     1      44.699 -22.066   3.278  1.00  0.00    -0.323 OA
HETATM   21  O   UNL     1      43.742 -20.736   1.511  1.00  0.00    -0.323 OA
HETATM   22  C   UNL     1      43.691 -18.676   2.811  1.00  0.00     0.040 A 
HETATM   23  C   UNL     1      44.230 -22.034   1.910  1.00  0.00     0.352 A 
HETATM   24  C   UNL     1      43.989 -18.100   4.051  1.00  0.00     0.012 A 
ENDBRANCH  15  16
ENDBRANCH   1  15
TORSDOF 4
ENDMDL
MODEL 3
REMARK VINA RESULT:      -7.4      1.274      2.452
REMARK  4 active torsions:
REMARK  status: ('A' for Active; 'I' for Inactive)
REMARK    1  A    between atoms: C_8  and  C_9 
REMARK    2  A    between atoms: C_9  and  N_10 
REMARK    3  A    between atoms: N_10  and  C_13 
REMARK    4  A    between atoms: C_13  and  C_14 
ROOT
HETATM    1  N   UNL     1      43.458 -18.633   7.077  1.00  0.00    -0.067 N 
HETATM    2  H   UNL     1      42.662 -18.641   6.429  1.00  0.00     0.277 HD
HETATM    3  H   UNL     1      43.332 -19.471   7.658  1.00  0.00     0.277 HD
ENDROOT
BRANCH   1   4
HETATM    4  C   UNL     1      44.706 -18.789   6.289  1.00  0.00     0.273 C 
BRANCH   4   5
HETATM    5  C   UNL     1      44.365 -18.930   4.852  1.00  0.00    -0.005 A 
HETATM    6  C   UNL     1      44.391 -20.141   4.086  1.00  0.00    -0.000 A 
HETATM    7  C   UNL     1      44.730 -21.481   4.370  1.00  0.00     0.014 A 
HETATM    8  C   UNL     1      43.970 -19.824   2.795  1.00  0.00     0.043 A 
HETATM    9  C   UNL     1      44.632 -22.445   3.360  1.00  0.00     0.001 A 
HETATM   10  C   UNL     1      44.205 -22.095   2.082  1.00  0.00     0.002 A 
HETATM   11  C   UNL     1      43.867 -20.775   1.774  1.00  0.00     0.030 A 
HETATM   12  N   UNL     1      43.714 -18.473   2.766  1.00  0.00    -0.365 N 
HETATM   13  H   UNL     1      43.408 -17.967   1.942  1.00  0.00     0.165 HD
HETATM   14  C   UNL     1      43.934 -17.926   4.004  1.00  0.00     0.098 A 
ENDBRANCH   4   5
ENDBRANCH   1   4
BRANCH   1  15
HETATM   15  C   UNL     1      43.400 -17.420   7.926  1.00  0.00     0.271 C 
BRANCH  15  16
HETATM   16  C   UNL     1      43.203 -16.191   7.086  1.00  0.00    -0.030 A 
HETATM   17  C   UNL     1      42.000 -16.003   6.383  1.00  0.00     0.048 A 
HETATM   18  C   UNL     1      41.847 -14.841   5.655  1.00  0.00     0.105 A 
HETATM   19  C   UNL     1      42.825 -13.878   5.608  1.00  0.00     0.105 A 
HETATM   20  O   UNL     1      40.754 -14.505   4.924  1.00  0.00    -0.323 OA
HETATM   21  O   UNL     1      42.473 -12.818   4.838  1.00  0.00    -0.323 OA
HETATM   22  C   UNL     1      44.015 -14.023   6.288  1.00  0.00     0.040 A 
HETATM   23  C   UNL     1      41.165 -13.227   4.385  1.00  0.00     0.352 A 
HETATM   24  C   UNL     1      44.203 -15.190   7.037  1.00  0.00     0.012 A 
ENDBRANCH  15  16
ENDBRANCH   1  15
TORSDOF 4
ENDMDL
MODEL 4
REMARK VINA RESULT:      -7.3      3.216      5.432
REMARK  4 active torsions:
REMARK  status: ('A' for Active; 'I' for Inactive)
REMARK    1  A    between atoms: C_8  and  C_9 
REMARK    2  A    between atoms: C_9  and  N_10 
REMARK    3  A    between atoms: N_10  and  C_13 
REMARK    4  A    between atoms: C_13  and  C_14 
ROOT
HETATM    1  N   UNL     1      44.772 -17.733   6.092  1.00  0.00    -0.067 N 
HETATM    2  H   UNL     1      44.953 -17.819   5.085  1.00  0.00     0.277 HD
HETATM    3  H   UNL     1      45.692 -17.537   6.508  1.00  0.00     0.277 HD
ENDROOT
BRANCH   1   4
HETATM    4  C   UNL     1      43.894 -16.558   6.313  1.00  0.00     0.273 C 
BRANCH   4   5
HETATM    5  C   UNL     1      42.658 -16.709   5.505  1.00  0.00    -0.005 A 
HETATM    6  C   UNL     1      42.563 -16.656   4.077  1.00  0.00    -0.000 A 
HETATM    7  C   UNL     1      43.489 -16.445   3.033  1.00  0.00     0.014 A 
HETATM    8  C   UNL     1      41.227 -16.878   3.742  1.00  0.00     0.043 A 
HETATM    9  C   UNL     1      43.047 -16.466   1.706  1.00  0.00     0.001 A 
HETATM   10  C   UNL     1      41.707 -16.692   1.406  1.00  0.00     0.002 A 
HETATM   11  C   UNL     1      40.769 -16.901   2.420  1.00  0.00     0.030 A 
HETATM   12  N   UNL     1      40.530 -17.040   4.916  1.00  0.00    -0.365 N 
HETATM   13  H   UNL     1      39.531 -17.199   4.969  1.00  0.00     0.165 HD
HETATM   14  C   UNL     1      41.385 -16.957   5.985  1.00  0.00     0.098 A 
ENDBRANCH   4   5
ENDBRANCH   1   4
BRANCH   1  15
HETATM   15  C   UNL     1      44.247 -19.016   6.617  1.00  0.00     0.271 C 
BRANCH  15  16
HETATM   16  C   UNL     1      44.326 -20.091   5.572  1.00  0.00    -0.030 A 
HETATM   17  C   UNL     1      44.182 -19.764   4.212  1.00  0.00     0.048 A 
HETATM   18  C   UNL     1      44.300 -20.778   3.284  1.00  0.00     0.105 A 
HETATM   19  C   UNL     1      44.558 -22.075   3.652  1.00  0.00     0.105 A 
HETATM   20  O   UNL     1      44.189 -20.633   1.938  1.00  0.00    -0.323 OA
HETATM   21  O   UNL     1      44.637 -22.911   2.586  1.00  0.00    -0.323 OA
HETATM   22  C   UNL     1      44.712 -22.434   4.973  1.00  0.00     0.040 A 
HETATM   23  C   UNL     1      44.380 -21.998   1.498  1.00  0.00     0.352 A 
HETATM   24  C   UNL     1      44.598 -21.430   5.941  1.00  0.00     0.012 A 
ENDBRANCH  15  16
ENDBRANCH   1  15
TORSDOF 4
ENDMDL
MODEL 5
REMARK VINA RESULT:      -7.3      3.463      6.561
REMARK  4 active torsions:
REMARK  status: ('A' for Active; 'I' for Inactive)
REMARK    1  A    between atoms: C_8  and  C_9 
REMARK    2  A    between atoms: C_9  and  N_10 
REMARK    3  A    between atoms: N_10  and  C_13 
REMARK    4  A    between atoms: C_13  and  C_14 
ROOT
HETATM    1  N   UNL     1      42.161 -17.567   1.865  1.00  0.00    -0.067 N 
HETATM    2  H   UNL     1      41.689 -18.417   1.534  1.00  0.00     0.277 HD
HETATM    3  H   UNL     1      41.953 -16.856   1.153  1.00  0.00     0.277 HD
ENDROOT
BRANCH   1   4
HETATM    4  C   UNL     1      41.535 -17.151   3.145  1.00  0.00     0.273 C 
BRANCH   4   5
HETATM    5  C   UNL     1      42.190 -15.912   3.632  1.00  0.00    -0.005 A 
HETATM    6  C   UNL     1      42.958 -15.771   4.832  1.00  0.00    -0.000 A 
HETATM    7  C   UNL     1      43.317 -16.642   5.883  1.00  0.00     0.014 A 
HETATM    8  C   UNL     1      43.410 -14.452   4.882  1.00  0.00     0.043 A 
HETATM    9  C   UNL     1      44.110 -16.165   6.933  1.00  0.00     0.001 A 
HETATM   10  C   UNL     1      44.546 -14.843   6.950  1.00  0.00     0.002 A 
HETATM   11  C   UNL     1      44.203 -13.960   5.925  1.00  0.00     0.030 A 
HETATM   12  N   UNL     1      42.924 -13.808   3.769  1.00  0.00    -0.365 N 
HETATM   13  H   UNL     1      43.085 -12.829   3.560  1.00  0.00     0.165 HD
HETATM   14  C   UNL     1      42.200 -14.682   3.000  1.00  0.00     0.098 A 
ENDBRANCH   4   5
ENDBRANCH   1   4
BRANCH   1  15
HETATM   15  C   UNL     1      43.623 -17.800   1.929  1.00  0.00     0.271 C 
BRANCH  15  16
HETATM   16  C   UNL     1      43.920 -19.211   2.348  1.00  0.00    -0.030 A 
HETATM   17  C   UNL     1      44.393 -19.477   3.645  1.00  0.00     0.048 A 
HETATM   18  C   UNL     1      44.614 -20.792   3.999  1.00  0.00     0.105 A 
HETATM   19  C   UNL     1      44.382 -21.828   3.130  1.00  0.00     0.105 A 
HETATM   20  O   UNL     1      45.068 -21.219   5.206  1.00  0.00    -0.323 OA
HETATM   21  O   UNL     1      44.664 -23.038   3.677  1.00  0.00    -0.323 OA
HETATM   22  C   UNL     1      43.913 -21.609   1.853  1.00  0.00     0.040 A 
HETATM   23  C   UNL     1      45.121 -22.648   4.990  1.00  0.00     0.352 A 
HETATM   24  C   UNL     1      43.677 -20.287   1.461  1.00  0.00     0.012 A 
ENDBRANCH  15  16
ENDBRANCH   1  15
TORSDOF 4
ENDMDL
MODEL 6
REMARK VINA RESULT:      -7.2      3.598      6.645
REMARK  4 active torsions:
REMARK  status: ('A' for Active; 'I' for Inactive)
REMARK    1  A    between atoms: C_8  and  C_9 
REMARK    2  A    between atoms: C_9  and  N_10 
REMARK    3  A    between atoms: N_10  and  C_13 
REMARK    4  A    between atoms: C_13  and  C_14 
ROOT
HETATM    1  N   UNL     1      42.791 -17.566   0.838  1.00  0.00    -0.067 N 
HETATM    2  H   UNL     1      42.997 -18.310   0.160  1.00  0.00     0.277 HD
HETATM    3  H   UNL     1      42.890 -16.692   0.307  1.00  0.00     0.277 HD
ENDROOT
BRANCH   1   4
HETATM    4  C   UNL     1      41.377 -17.701   1.269  1.00  0.00     0.273 C 
BRANCH   4   5
HETATM    5  C   UNL     1      41.004 -16.530   2.100  1.00  0.00    -0.005 A 
HETATM    6  C   UNL     1      40.949 -16.485   3.531  1.00  0.00    -0.000 A 
HETATM    7  C   UNL     1      41.179 -17.426   4.557  1.00  0.00     0.014 A 
HETATM    8  C   UNL     1      40.585 -15.188   3.891  1.00  0.00     0.043 A 
HETATM    9  C   UNL     1      41.040 -17.034   5.894  1.00  0.00     0.001 A 
HETATM   10  C   UNL     1      40.677 -15.730   6.219  1.00  0.00     0.002 A 
HETATM   11  C   UNL     1      40.441 -14.781   5.222  1.00  0.00     0.030 A 
HETATM   12  N   UNL     1      40.406 -14.473   2.730  1.00  0.00    -0.365 N 
HETATM   13  H   UNL     1      40.120 -13.501   2.696  1.00  0.00     0.165 HD
HETATM   14  C   UNL     1      40.671 -15.267   1.644  1.00  0.00     0.098 A 
ENDBRANCH   4   5
ENDBRANCH   1   4
BRANCH   1  15
HETATM   15  C   UNL     1      43.787 -17.601   1.936  1.00  0.00     0.271 C 
BRANCH  15  16
HETATM   16  C   UNL     1      44.036 -19.012   2.384  1.00  0.00    -0.030 A 
HETATM   17  C   UNL     1      44.405 -19.273   3.716  1.00  0.00     0.048 A 
HETATM   18  C   UNL     1      44.586 -20.588   4.093  1.00  0.00     0.105 A 
HETATM   19  C   UNL     1      44.410 -21.628   3.215  1.00  0.00     0.105 A 
HETATM   20  O   UNL     1      44.941 -21.012   5.334  1.00  0.00    -0.323 OA
HETATM   21  O   UNL     1      44.636 -22.837   3.790  1.00  0.00    -0.323 OA
HETATM   22  C   UNL     1      44.042 -21.413   1.904  1.00  0.00     0.040 A 
HETATM   23  C   UNL     1      44.996 -22.443   5.131  1.00  0.00     0.352 A 
HETATM   24  C   UNL     1      43.850 -20.091   1.488  1.00  0.00     0.012 A 
ENDBRANCH  15  16
ENDBRANCH   1  15
TORSDOF 4
ENDMDL
MODEL 7
REMARK VINA RESULT:      -7.1      3.479      6.546
REMARK  4 active torsions:
REMARK  status: ('A' for Active; 'I' for Inactive)
REMARK    1  A    between atoms: C_8  and  C_9 
REMARK    2  A    between atoms: C_9  and  N_10 
REMARK    3  A    between atoms: N_10  and  C_13 
REMARK    4  A    between atoms: C_13  and  C_14 
ROOT
HETATM    1  N   UNL     1      42.177 -17.464   0.977  1.00  0.00    -0.067 N 
HETATM    2  H   UNL     1      41.679 -17.811   1.805  1.00  0.00     0.277 HD
HETATM    3  H   UNL     1      41.757 -17.970   0.187  1.00  0.00     0.277 HD
ENDROOT
BRANCH   1   4
HETATM    4  C   UNL     1      41.882 -16.018   0.823  1.00  0.00     0.273 C 
BRANCH   4   5
HETATM    5  C   UNL     1      41.288 -15.501   2.081  1.00  0.00    -0.005 A 
HETATM    6  C   UNL     1      41.987 -14.842   3.144  1.00  0.00    -0.000 A 
HETATM    7  C   UNL     1      43.337 -14.501   3.375  1.00  0.00     0.014 A 
HETATM    8  C   UNL     1      41.042 -14.500   4.111  1.00  0.00     0.043 A 
HETATM    9  C   UNL     1      43.686 -13.832   4.554  1.00  0.00     0.001 A 
HETATM   10  C   UNL     1      42.717 -13.502   5.498  1.00  0.00     0.002 A 
HETATM   11  C   UNL     1      41.375 -13.832   5.295  1.00  0.00     0.030 A 
HETATM   12  N   UNL     1      39.819 -14.945   3.668  1.00  0.00    -0.365 N 
HETATM   13  H   UNL     1      38.953 -14.844   4.185  1.00  0.00     0.165 HD
HETATM   14  C   UNL     1      39.953 -15.537   2.438  1.00  0.00     0.098 A 
ENDBRANCH   4   5
ENDBRANCH   1   4
BRANCH   1  15
HETATM   15  C   UNL     1      43.616 -17.803   1.081  1.00  0.00     0.271 C 
BRANCH  15  16
HETATM   16  C   UNL     1      43.878 -18.645   2.296  1.00  0.00    -0.030 A 
HETATM   17  C   UNL     1      44.111 -20.025   2.160  1.00  0.00     0.048 A 
HETATM   18  C   UNL     1      44.387 -20.754   3.299  1.00  0.00     0.105 A 
HETATM   19  C   UNL     1      44.443 -20.169   4.540  1.00  0.00     0.105 A 
HETATM   20  O   UNL     1      44.634 -22.088   3.342  1.00  0.00    -0.323 OA
HETATM   21  O   UNL     1      44.728 -21.063   5.521  1.00  0.00    -0.323 OA
HETATM   22  C   UNL     1      44.227 -18.820   4.714  1.00  0.00     0.040 A 
HETATM   23  C   UNL     1      44.827 -22.286   4.762  1.00  0.00     0.352 A 
HETATM   24  C   UNL     1      43.945 -18.051   3.579  1.00  0.00     0.012 A 
ENDBRANCH  15  16
ENDBRANCH   1  15
TORSDOF 4
ENDMDL
MODEL 8
REMARK VINA RESULT:      -7.1      3.069      4.915
REMARK  4 active torsions:
REMARK  status: ('A' for Active; 'I' for Inactive)
REMARK    1  A    between atoms: C_8  and  C_9 
REMARK    2  A    between atoms: C_9  and  N_10 
REMARK    3  A    between atoms: N_10  and  C_13 
REMARK    4  A    between atoms: C_13  and  C_14 
ROOT
HETATM    1  N   UNL     1      42.962 -15.329   6.580  1.00  0.00    -0.067 N 
HETATM    2  H   UNL     1      42.695 -14.734   7.373  1.00  0.00     0.277 HD
HETATM    3  H   UNL     1      42.236 -16.056   6.542  1.00  0.00     0.277 HD
ENDROOT
BRANCH   1   4
HETATM    4  C   UNL     1      42.885 -14.519   5.339  1.00  0.00     0.273 C 
BRANCH   4   5
HETATM    5  C   UNL     1      42.016 -15.210   4.355  1.00  0.00    -0.005 A 
HETATM    6  C   UNL     1      42.450 -15.959   3.214  1.00  0.00    -0.000 A 
HETATM    7  C   UNL     1      43.709 -16.264   2.654  1.00  0.00     0.014 A 
HETATM    8  C   UNL     1      41.308 -16.459   2.587  1.00  0.00     0.043 A 
HETATM    9  C   UNL     1      43.777 -17.053   1.500  1.00  0.00     0.001 A 
HETATM   10  C   UNL     1      42.618 -17.538   0.901  1.00  0.00     0.002 A 
HETATM   11  C   UNL     1      41.359 -17.248   1.433  1.00  0.00     0.030 A 
HETATM   12  N   UNL     1      40.220 -16.019   3.303  1.00  0.00    -0.365 N 
HETATM   13  H   UNL     1      39.257 -16.221   3.059  1.00  0.00     0.165 HD
HETATM   14  C   UNL     1      40.635 -15.278   4.380  1.00  0.00     0.098 A 
ENDBRANCH   4   5
ENDBRANCH   1   4
BRANCH   1  15
HETATM   15  C   UNL     1      44.281 -15.951   6.843  1.00  0.00     0.271 C 
BRANCH  15  16
HETATM   16  C   UNL     1      44.209 -17.441   6.678  1.00  0.00    -0.030 A 
HETATM   17  C   UNL     1      44.749 -18.050   5.532  1.00  0.00     0.048 A 
HETATM   18  C   UNL     1      44.696 -19.426   5.440  1.00  0.00     0.105 A 
HETATM   19  C   UNL     1      44.142 -20.200   6.430  1.00  0.00     0.105 A 
HETATM   20  O   UNL     1      45.169 -20.168   4.406  1.00  0.00    -0.323 OA
HETATM   21  O   UNL     1      44.192 -21.525   6.141  1.00  0.00    -0.323 OA
HETATM   22  C   UNL     1      43.608 -19.641   7.571  1.00  0.00     0.040 A 
HETATM   23  C   UNL     1      44.825 -21.502   4.845  1.00  0.00     0.352 A 
HETATM   24  C   UNL     1      43.646 -18.248   7.696  1.00  0.00     0.012 A 
ENDBRANCH  15  16
ENDBRANCH   1  15
TORSDOF 4
ENDMDL
MODEL 9
REMARK VINA RESULT:      -7.0      3.032      4.400
REMARK  4 active torsions:
REMARK  status: ('A' for Active; 'I' for Inactive)
REMARK    1  A    between atoms: C_8  and  C_9 
REMARK    2  A    between atoms: C_9  and  N_10 
REMARK    3  A    between atoms: N_10  and  C_13 
REMARK    4  A    between atoms: C_13  and  C_14 
ROOT
HETATM    1  N   UNL     1      42.095 -16.621   4.171  1.00  0.00    -0.067 N 
HETATM    2  H   UNL     1      42.019 -17.010   5.118  1.00  0.00     0.277 HD
HETATM    3  H   UNL     1      41.951 -15.610   4.291  1.00  0.00     0.277 HD
ENDROOT
BRANCH   1   4
HETATM    4  C   UNL     1      43.477 -16.845   3.680  1.00  0.00     0.273 C 
BRANCH   4   5
HETATM    5  C   UNL     1      43.966 -18.157   4.173  1.00  0.00    -0.005 A 
HETATM    6  C   UNL     1      43.987 -19.388   3.440  1.00  0.00    -0.000 A 
HETATM    7  C   UNL     1      43.579 -19.772   2.145  1.00  0.00     0.014 A 
HETATM    8  C   UNL     1      44.553 -20.355   4.270  1.00  0.00     0.043 A 
HETATM    9  C   UNL     1      43.756 -21.098   1.732  1.00  0.00     0.001 A 
HETATM   10  C   UNL     1      44.327 -22.037   2.586  1.00  0.00     0.002 A 
HETATM   11  C   UNL     1      44.736 -21.684   3.873  1.00  0.00     0.030 A 
HETATM   12  N   UNL     1      44.850 -19.746   5.467  1.00  0.00    -0.365 N 
HETATM   13  H   UNL     1      45.258 -20.223   6.264  1.00  0.00     0.165 HD
HETATM   14  C   UNL     1      44.516 -18.418   5.415  1.00  0.00     0.098 A 
ENDBRANCH   4   5
ENDBRANCH   1   4
BRANCH   1  15
HETATM   15  C   UNL     1      41.025 -17.182   3.313  1.00  0.00     0.271 C 
BRANCH  15  16
HETATM   16  C   UNL     1      40.908 -16.406   2.033  1.00  0.00    -0.030 A 
HETATM   17  C   UNL     1      40.326 -15.126   2.036  1.00  0.00     0.048 A 
HETATM   18  C   UNL     1      40.274 -14.432   0.844  1.00  0.00     0.105 A 
HETATM   19  C   UNL     1      40.776 -14.954  -0.323  1.00  0.00     0.105 A 
HETATM   20  O   UNL     1      39.748 -13.192   0.674  1.00  0.00    -0.323 OA
HETATM   21  O   UNL     1      40.624 -14.109  -1.375  1.00  0.00    -0.323 OA
HETATM   22  C   UNL     1      41.359 -16.201  -0.365  1.00  0.00     0.040 A 
HETATM   23  C   UNL     1      39.951 -12.999  -0.745  1.00  0.00     0.352 A 
HETATM   24  C   UNL     1      41.428 -16.932   0.826  1.00  0.00     0.012 A 
ENDBRANCH  15  16
ENDBRANCH   1  15
TORSDOF 4
ENDMDL
MODEL 10
REMARK VINA RESULT:      -6.9      3.495      6.768
REMARK  4 active torsions:
REMARK  status: ('A' for Active; 'I' for Inactive)
REMARK    1  A    between atoms: C_8  and  C_9 
REMARK    2  A    between atoms: C_9  and  N_10 
REMARK    3  A    between atoms: N_10  and  C_13 
REMARK    4  A    between atoms: C_13  and  C_14 
ROOT
HETATM    1  N   UNL     1      43.070 -16.898   3.438  1.00  0.00    -0.067 N 
HETATM    2  H   UNL     1      43.154 -15.880   3.339  1.00  0.00     0.277 HD
HETATM    3  H   UNL     1      43.620 -17.127   4.276  1.00  0.00     0.277 HD
ENDROOT
BRANCH   1   4
HETATM    4  C   UNL     1      41.647 -17.228   3.703  1.00  0.00     0.273 C 
BRANCH   4   5
HETATM    5  C   UNL     1      41.067 -16.206   4.609  1.00  0.00    -0.005 A 
HETATM    6  C   UNL     1      40.566 -14.919   4.230  1.00  0.00    -0.000 A 
HETATM    7  C   UNL     1      40.470 -14.218   3.009  1.00  0.00     0.014 A 
HETATM    8  C   UNL     1      40.089 -14.303   5.387  1.00  0.00     0.043 A 
HETATM    9  C   UNL     1      39.901 -12.939   2.993  1.00  0.00     0.001 A 
HETATM   10  C   UNL     1      39.432 -12.354   4.165  1.00  0.00     0.002 A 
HETATM   11  C   UNL     1      39.518 -13.025   5.387  1.00  0.00     0.030 A 
HETATM   12  N   UNL     1      40.305 -15.169   6.433  1.00  0.00    -0.365 N 
HETATM   13  H   UNL     1      40.068 -14.968   7.398  1.00  0.00     0.165 HD
HETATM   14  C   UNL     1      40.879 -16.326   5.974  1.00  0.00     0.098 A 
ENDBRANCH   4   5
ENDBRANCH   1   4
BRANCH   1  15
HETATM   15  C   UNL     1      43.658 -17.566   2.253  1.00  0.00     0.271 C 
BRANCH  15  16
HETATM   16  C   UNL     1      43.931 -19.014   2.540  1.00  0.00    -0.030 A 
HETATM   17  C   UNL     1      44.426 -19.402   3.798  1.00  0.00     0.048 A 
HETATM   18  C   UNL     1      44.626 -20.748   4.031  1.00  0.00     0.105 A 
HETATM   19  C   UNL     1      44.350 -21.699   3.080  1.00  0.00     0.105 A 
HETATM   20  O   UNL     1      45.096 -21.288   5.185  1.00  0.00    -0.323 OA
HETATM   21  O   UNL     1      44.617 -22.958   3.514  1.00  0.00    -0.323 OA
HETATM   22  C   UNL     1      43.859 -21.360   1.839  1.00  0.00     0.040 A 
HETATM   23  C   UNL     1      45.111 -22.694   4.844  1.00  0.00     0.352 A 
HETATM   24  C   UNL     1      43.644 -20.003   1.569  1.00  0.00     0.012 A 
ENDBRANCH  15  16
ENDBRANCH   1  15
TORSDOF 4
ENDMDL
