MODEL 1
REMARK VINA RESULT:      -9.4      0.000      0.000
REMARK  6 active torsions:
REMARK  status: ('A' for Active; 'I' for Inactive)
REMARK    1  A    between atoms: O_2  and  C_3 
REMARK    2  A    between atoms: C_5  and  O_6 
REMARK    3  A    between atoms: C_9  and  N_10 
REMARK       I    between atoms: N_10  and  C_11 
REMARK    4  A    between atoms: C_11  and  C_12 
REMARK    5  A    between atoms: C_12  and  N_13 
REMARK    6  A    between atoms: C_19  and  C_20 
ROOT
HETATM    1  N   UNL     1      40.879 -12.771   6.459  1.00  0.00    -0.063 N 
HETATM    2  H   UNL     1      40.837 -13.211   7.398  1.00  0.00     0.280 HD
HETATM    3  C   UNL     1      39.931 -13.549   5.578  1.00  0.00     0.240 C 
HETATM    4  C   UNL     1      40.426 -14.972   5.394  1.00  0.00     0.083 C 
HETATM    5  C   UNL     1      41.860 -15.011   4.869  1.00  0.00     0.131 A 
HETATM    6  N   UNL     1      42.310 -16.425   4.890  1.00  0.00    -0.251 NA
HETATM    7  C   UNL     1      42.604 -16.755   3.660  1.00  0.00     0.132 A 
HETATM    8  C   UNL     1      42.372 -15.607   2.705  1.00  0.00     0.272 A 
HETATM    9  O   UNL     1      42.502 -15.585   1.506  1.00  0.00    -0.266 OA
HETATM   10  N   UNL     1      41.952 -14.589   3.506  1.00  0.00    -0.327 N 
HETATM   11  C   UNL     1      42.788 -14.210   5.783  1.00  0.00     0.083 C 
HETATM   12  C   UNL     1      42.302 -12.785   5.973  1.00  0.00     0.240 C 
HETATM   13  H   UNL     1      41.693 -13.708   3.082  1.00  0.00     0.165 HD
ENDROOT
BRANCH   1  14
HETATM   14  C   UNL     1      40.378 -11.337   6.709  1.00  0.00     0.337 C 
BRANCH  14  15
HETATM   15  C   UNL     1      41.255 -10.619   7.738  1.00  0.00     0.248 C 
HETATM   16  N   UNL     1      41.275 -11.222   8.978  1.00  0.00    -0.326 N 
HETATM   17  H   UNL     1      40.748 -12.077   9.116  1.00  0.00     0.169 HD
HETATM   18  O   UNL     1      41.891  -9.634   7.368  1.00  0.00    -0.271 OA
BRANCH  16  19
HETATM   19  C   UNL     1      42.011 -10.811  10.114  1.00  0.00     0.040 A 
HETATM   20  C   UNL     1      41.444 -10.228  11.250  1.00  0.00     0.066 A 
HETATM   21  C   UNL     1      42.254  -9.854  12.328  1.00  0.00     0.073 A 
HETATM   22  C   UNL     1      43.638 -10.050  12.262  1.00  0.00     0.073 A 
HETATM   23  C   UNL     1      44.216 -10.627  11.136  1.00  0.00     0.073 A 
HETATM   24  C   UNL     1      43.396 -11.016  10.074  1.00  0.00     0.066 A 
BRANCH  21  25
HETATM   25  O   UNL     1      41.823  -9.287  13.497  1.00  0.00    -0.356 OA
HETATM   26  C   UNL     1      42.226  -9.906  14.712  1.00  0.00     0.210 C 
ENDBRANCH  21  25
BRANCH  23  27
HETATM   27  O   UNL     1      45.546 -10.867  10.941  1.00  0.00    -0.356 OA
HETATM   28  C   UNL     1      45.964 -11.127   9.605  1.00  0.00     0.210 C 
ENDBRANCH  23  27
ENDBRANCH  16  19
ENDBRANCH  14  15
ENDBRANCH   1  14
BRANCH   7  29
HETATM   29  C   UNL     1      43.091 -18.091   3.262  1.00  0.00    -0.002 A 
HETATM   30  C   UNL     1      44.061 -18.715   4.061  1.00  0.00     0.016 A 
HETATM   31  C   UNL     1      44.550 -19.981   3.725  1.00  0.00     0.024 A 
HETATM   32  C   UNL     1      44.076 -20.627   2.587  1.00  0.00     0.034 A 
HETATM   33 CL   UNL     1      44.676 -22.183   2.171  1.00  0.00    -0.084 Cl
HETATM   34  C   UNL     1      43.118 -20.014   1.781  1.00  0.00     0.024 A 
HETATM   35  C   UNL     1      42.626 -18.748   2.117  1.00  0.00     0.016 A 
ENDBRANCH   7  29
TORSDOF 6
ENDMDL
MODEL 2
REMARK VINA RESULT:      -9.3      1.327      1.936
REMARK  6 active torsions:
REMARK  status: ('A' for Active; 'I' for Inactive)
REMARK    1  A    between atoms: O_2  and  C_3 
REMARK    2  A    between atoms: C_5  and  O_6 
REMARK    3  A    between atoms: C_9  and  N_10 
REMARK       I    between atoms: N_10  and  C_11 
REMARK    4  A    between atoms: C_11  and  C_12 
REMARK    5  A    between atoms: C_12  and  N_13 
REMARK    6  A    between atoms: C_19  and  C_20 
ROOT
HETATM    1  N   UNL     1      40.652 -12.143   5.772  1.00  0.00    -0.063 N 
HETATM    2  H   UNL     1      40.719 -11.729   4.823  1.00  0.00     0.280 HD
HETATM    3  C   UNL     1      42.061 -12.501   6.183  1.00  0.00     0.240 C 
HETATM    4  C   UNL     1      42.611 -13.597   5.288  1.00  0.00     0.083 C 
HETATM    5  C   UNL     1      41.693 -14.819   5.256  1.00  0.00     0.131 A 
HETATM    6  N   UNL     1      42.220 -15.752   4.230  1.00  0.00    -0.251 NA
HETATM    7  C   UNL     1      42.512 -16.871   4.839  1.00  0.00     0.132 A 
HETATM    8  C   UNL     1      42.220 -16.792   6.320  1.00  0.00     0.272 A 
HETATM    9  O   UNL     1      42.409 -17.624   7.172  1.00  0.00    -0.266 OA
HETATM   10  N   UNL     1      41.707 -15.542   6.490  1.00  0.00    -0.327 N 
HETATM   11  C   UNL     1      40.278 -14.416   4.842  1.00  0.00     0.083 C 
HETATM   12  C   UNL     1      39.719 -13.320   5.731  1.00  0.00     0.240 C 
HETATM   13  H   UNL     1      41.467 -15.234   7.423  1.00  0.00     0.165 HD
ENDROOT
BRANCH   1  14
HETATM   14  C   UNL     1      40.084 -10.996   6.628  1.00  0.00     0.337 C 
BRANCH  14  15
HETATM   15  C   UNL     1      41.154 -10.424   7.561  1.00  0.00     0.248 C 
HETATM   16  N   UNL     1      41.163 -10.986   8.819  1.00  0.00    -0.326 N 
HETATM   17  H   UNL     1      40.502 -11.727   9.030  1.00  0.00     0.169 HD
HETATM   18  O   UNL     1      41.927  -9.582   7.106  1.00  0.00    -0.271 OA
BRANCH  16  19
HETATM   19  C   UNL     1      42.047 -10.687   9.882  1.00  0.00     0.040 A 
HETATM   20  C   UNL     1      41.671 -10.034  11.058  1.00  0.00     0.066 A 
HETATM   21  C   UNL     1      42.619  -9.781  12.056  1.00  0.00     0.073 A 
HETATM   22  C   UNL     1      43.951 -10.168  11.869  1.00  0.00     0.073 A 
HETATM   23  C   UNL     1      44.339 -10.817  10.701  1.00  0.00     0.073 A 
HETATM   24  C   UNL     1      43.381 -11.083   9.720  1.00  0.00     0.066 A 
BRANCH  21  25
HETATM   25  O   UNL     1      42.379  -9.164  13.253  1.00  0.00    -0.356 OA
HETATM   26  C   UNL     1      42.500  -9.949  14.432  1.00  0.00     0.210 C 
ENDBRANCH  21  25
BRANCH  23  27
HETATM   27  O   UNL     1      45.600 -11.240  10.390  1.00  0.00    -0.356 OA
HETATM   28  C   UNL     1      45.826 -11.660   9.048  1.00  0.00     0.210 C 
ENDBRANCH  23  27
ENDBRANCH  16  19
ENDBRANCH  14  15
ENDBRANCH   1  14
BRANCH   7  29
HETATM   29  C   UNL     1      43.068 -18.057   4.157  1.00  0.00    -0.002 A 
HETATM   30  C   UNL     1      42.606 -18.366   2.870  1.00  0.00     0.016 A 
HETATM   31  C   UNL     1      43.105 -19.477   2.184  1.00  0.00     0.024 A 
HETATM   32  C   UNL     1      44.065 -20.288   2.785  1.00  0.00     0.034 A 
HETATM   33 CL   UNL     1      44.680 -21.655   1.944  1.00  0.00    -0.084 Cl
HETATM   34  C   UNL     1      44.526 -19.995   4.067  1.00  0.00     0.024 A 
HETATM   35  C   UNL     1      44.029 -18.883   4.753  1.00  0.00     0.016 A 
ENDBRANCH   7  29
TORSDOF 6
ENDMDL
MODEL 3
REMARK VINA RESULT:      -8.6      1.411      2.945
REMARK  6 active torsions:
REMARK  status: ('A' for Active; 'I' for Inactive)
REMARK    1  A    between atoms: O_2  and  C_3 
REMARK    2  A    between atoms: C_5  and  O_6 
REMARK    3  A    between atoms: C_9  and  N_10 
REMARK       I    between atoms: N_10  and  C_11 
REMARK    4  A    between atoms: C_11  and  C_12 
REMARK    5  A    between atoms: C_12  and  N_13 
REMARK    6  A    between atoms: C_19  and  C_20 
ROOT
HETATM    1  N   UNL     1      40.550 -11.961   5.525  1.00  0.00    -0.063 N 
HETATM    2  H   UNL     1      40.618 -11.574   4.565  1.00  0.00     0.280 HD
HETATM    3  C   UNL     1      41.958 -12.306   5.948  1.00  0.00     0.240 C 
HETATM    4  C   UNL     1      42.512 -13.425   5.086  1.00  0.00     0.083 C 
HETATM    5  C   UNL     1      41.596 -14.648   5.085  1.00  0.00     0.131 A 
HETATM    6  N   UNL     1      42.126 -15.609   4.086  1.00  0.00    -0.251 NA
HETATM    7  C   UNL     1      42.419 -16.711   4.727  1.00  0.00     0.132 A 
HETATM    8  C   UNL     1      42.123 -16.591   6.204  1.00  0.00     0.272 A 
HETATM    9  O   UNL     1      42.312 -17.399   7.078  1.00  0.00    -0.266 OA
HETATM   10  N   UNL     1      41.608 -15.337   6.339  1.00  0.00    -0.327 N 
HETATM   11  C   UNL     1      40.181 -14.259   4.657  1.00  0.00     0.083 C 
HETATM   12  C   UNL     1      39.618 -13.141   5.514  1.00  0.00     0.240 C 
HETATM   13  H   UNL     1      41.365 -15.005   7.263  1.00  0.00     0.165 HD
ENDROOT
BRANCH   1  14
HETATM   14  C   UNL     1      39.978 -10.792   6.348  1.00  0.00     0.337 C 
BRANCH  14  15
HETATM   15  C   UNL     1      41.026 -10.236   7.315  1.00  0.00     0.248 C 
HETATM   16  N   UNL     1      41.036 -10.851   8.549  1.00  0.00    -0.326 N 
HETATM   17  H   UNL     1      40.390 -11.614   8.721  1.00  0.00     0.169 HD
HETATM   18  O   UNL     1      41.784  -9.359   6.904  1.00  0.00    -0.271 OA
BRANCH  16  19
HETATM   19  C   UNL     1      41.903 -10.577   9.632  1.00  0.00     0.040 A 
HETATM   20  C   UNL     1      43.245 -10.962   9.683  1.00  0.00     0.066 A 
HETATM   21  C   UNL     1      44.026 -10.645  10.800  1.00  0.00     0.073 A 
HETATM   22  C   UNL     1      43.458  -9.953  11.876  1.00  0.00     0.073 A 
HETATM   23  C   UNL     1      42.123  -9.565  11.839  1.00  0.00     0.073 A 
HETATM   24  C   UNL     1      41.357  -9.869  10.711  1.00  0.00     0.066 A 
BRANCH  21  25
HETATM   25  O   UNL     1      45.348 -10.954  10.968  1.00  0.00    -0.356 OA
HETATM   26  C   UNL     1      46.138 -11.111   9.796  1.00  0.00     0.210 C 
ENDBRANCH  21  25
BRANCH  23  27
HETATM   27  O   UNL     1      41.447  -8.894  12.818  1.00  0.00    -0.356 OA
HETATM   28  C   UNL     1      40.176  -8.355  12.469  1.00  0.00     0.210 C 
ENDBRANCH  23  27
ENDBRANCH  16  19
ENDBRANCH  14  15
ENDBRANCH   1  14
BRANCH   7  29
HETATM   29  C   UNL     1      42.978 -17.913   4.079  1.00  0.00    -0.002 A 
HETATM   30  C   UNL     1      42.476 -18.292   2.824  1.00  0.00     0.016 A 
HETATM   31  C   UNL     1      42.977 -19.423   2.172  1.00  0.00     0.024 A 
HETATM   32  C   UNL     1      43.978 -20.182   2.772  1.00  0.00     0.034 A 
HETATM   33 CL   UNL     1      44.595 -21.572   1.972  1.00  0.00    -0.084 Cl
HETATM   34  C   UNL     1      44.479 -19.821   4.021  1.00  0.00     0.024 A 
HETATM   35  C   UNL     1      43.980 -18.689   4.674  1.00  0.00     0.016 A 
ENDBRANCH   7  29
TORSDOF 6
ENDMDL
MODEL 4
REMARK VINA RESULT:      -8.5      1.322      2.463
REMARK  6 active torsions:
REMARK  status: ('A' for Active; 'I' for Inactive)
REMARK    1  A    between atoms: O_2  and  C_3 
REMARK    2  A    between atoms: C_5  and  O_6 
REMARK    3  A    between atoms: C_9  and  N_10 
REMARK       I    between atoms: N_10  and  C_11 
REMARK    4  A    between atoms: C_11  and  C_12 
REMARK    5  A    between atoms: C_12  and  N_13 
REMARK    6  A    between atoms: C_19  and  C_20 
ROOT
HETATM    1  N   UNL     1      41.020 -12.629   5.740  1.00  0.00    -0.063 N 
HETATM    2  H   UNL     1      41.329 -12.814   6.713  1.00  0.00     0.280 HD
HETATM    3  C   UNL     1      40.007 -13.697   5.401  1.00  0.00     0.240 C 
HETATM    4  C   UNL     1      40.666 -15.063   5.377  1.00  0.00     0.083 C 
HETATM    5  C   UNL     1      41.871 -15.096   4.438  1.00  0.00     0.131 A 
HETATM    6  N   UNL     1      42.547 -16.405   4.615  1.00  0.00    -0.251 NA
HETATM    7  C   UNL     1      42.524 -17.012   3.456  1.00  0.00     0.132 A 
HETATM    8  C   UNL     1      41.829 -16.177   2.405  1.00  0.00     0.272 A 
HETATM    9  O   UNL     1      41.601 -16.453   1.254  1.00  0.00    -0.266 OA
HETATM   10  N   UNL     1      41.489 -15.033   3.061  1.00  0.00    -0.327 N 
HETATM   11  C   UNL     1      42.871 -14.000   4.808  1.00  0.00     0.083 C 
HETATM   12  C   UNL     1      42.221 -12.628   4.835  1.00  0.00     0.240 C 
HETATM   13  H   UNL     1      40.969 -14.321   2.565  1.00  0.00     0.165 HD
ENDROOT
BRANCH   1  14
HETATM   14  C   UNL     1      40.372 -11.235   5.825  1.00  0.00     0.337 C 
BRANCH  14  15
HETATM   15  C   UNL     1      40.807 -10.502   7.096  1.00  0.00     0.248 C 
HETATM   16  N   UNL     1      40.442 -11.138   8.265  1.00  0.00    -0.326 N 
HETATM   17  H   UNL     1      39.949 -12.022   8.208  1.00  0.00     0.169 HD
HETATM   18  O   UNL     1      41.473  -9.476   6.973  1.00  0.00    -0.271 OA
BRANCH  16  19
HETATM   19  C   UNL     1      40.726 -10.722   9.586  1.00  0.00     0.040 A 
HETATM   20  C   UNL     1      42.006 -10.695  10.145  1.00  0.00     0.066 A 
HETATM   21  C   UNL     1      42.189 -10.267  11.465  1.00  0.00     0.073 A 
HETATM   22  C   UNL     1      41.085  -9.879  12.233  1.00  0.00     0.073 A 
HETATM   23  C   UNL     1      39.805  -9.903  11.689  1.00  0.00     0.073 A 
HETATM   24  C   UNL     1      39.635 -10.312  10.364  1.00  0.00     0.066 A 
BRANCH  21  25
HETATM   25  O   UNL     1      43.386 -10.184  12.123  1.00  0.00    -0.356 OA
HETATM   26  C   UNL     1      43.383  -9.593  13.416  1.00  0.00     0.210 C 
ENDBRANCH  21  25
BRANCH  23  27
HETATM   27  O   UNL     1      38.647  -9.559  12.327  1.00  0.00    -0.356 OA
HETATM   28  C   UNL     1      37.631  -8.952  11.535  1.00  0.00     0.210 C 
ENDBRANCH  23  27
ENDBRANCH  16  19
ENDBRANCH  14  15
ENDBRANCH   1  14
BRANCH   7  29
HETATM   29  C   UNL     1      43.098 -18.351   3.219  1.00  0.00    -0.002 A 
HETATM   30  C   UNL     1      43.886 -18.929   4.225  1.00  0.00     0.016 A 
HETATM   31  C   UNL     1      44.450 -20.195   4.046  1.00  0.00     0.024 A 
HETATM   32  C   UNL     1      44.232 -20.888   2.858  1.00  0.00     0.034 A 
HETATM   33 CL   UNL     1      44.923 -22.446   2.635  1.00  0.00    -0.084 Cl
HETATM   34  C   UNL     1      43.457 -20.322   1.848  1.00  0.00     0.024 A 
HETATM   35  C   UNL     1      42.891 -19.055   2.027  1.00  0.00     0.016 A 
ENDBRANCH   7  29
TORSDOF 6
ENDMDL
MODEL 5
REMARK VINA RESULT:      -8.3      4.122     10.370
REMARK  6 active torsions:
REMARK  status: ('A' for Active; 'I' for Inactive)
REMARK    1  A    between atoms: O_2  and  C_3 
REMARK    2  A    between atoms: C_5  and  O_6 
REMARK    3  A    between atoms: C_9  and  N_10 
REMARK       I    between atoms: N_10  and  C_11 
REMARK    4  A    between atoms: C_11  and  C_12 
REMARK    5  A    between atoms: C_12  and  N_13 
REMARK    6  A    between atoms: C_19  and  C_20 
ROOT
HETATM    1  N   UNL     1      40.164 -13.993   3.653  1.00  0.00    -0.063 N 
HETATM    2  H   UNL     1      39.224 -14.428   3.698  1.00  0.00     0.280 HD
HETATM    3  C   UNL     1      40.912 -14.460   4.879  1.00  0.00     0.240 C 
HETATM    4  C   UNL     1      40.261 -13.914   6.137  1.00  0.00     0.083 C 
HETATM    5  C   UNL     1      40.125 -12.393   6.091  1.00  0.00     0.131 A 
HETATM    6  N   UNL     1      39.327 -11.976   7.270  1.00  0.00    -0.251 NA
HETATM    7  C   UNL     1      40.078 -11.177   7.983  1.00  0.00     0.132 A 
HETATM    8  C   UNL     1      41.442 -10.993   7.359  1.00  0.00     0.272 A 
HETATM    9  O   UNL     1      42.382 -10.361   7.773  1.00  0.00    -0.266 OA
HETATM   10  N   UNL     1      41.386 -11.730   6.215  1.00  0.00    -0.327 N 
HETATM   11  C   UNL     1      39.368 -11.959   4.836  1.00  0.00     0.083 C 
HETATM   12  C   UNL     1      40.012 -12.500   3.572  1.00  0.00     0.240 C 
HETATM   13  H   UNL     1      42.211 -11.795   5.633  1.00  0.00     0.165 HD
ENDROOT
BRANCH   1  14
HETATM   14  C   UNL     1      40.769 -14.573   2.361  1.00  0.00     0.337 C 
BRANCH  14  15
HETATM   15  C   UNL     1      41.111 -16.056   2.532  1.00  0.00     0.248 C 
HETATM   16  N   UNL     1      42.449 -16.304   2.750  1.00  0.00    -0.326 N 
HETATM   17  H   UNL     1      43.091 -15.520   2.803  1.00  0.00     0.169 HD
HETATM   18  O   UNL     1      40.186 -16.867   2.520  1.00  0.00    -0.271 OA
BRANCH  16  19
HETATM   19  C   UNL     1      43.059 -17.561   2.971  1.00  0.00     0.040 A 
HETATM   20  C   UNL     1      43.007 -18.630   2.074  1.00  0.00     0.066 A 
HETATM   21  C   UNL     1      43.644 -19.838   2.381  1.00  0.00     0.073 A 
HETATM   22  C   UNL     1      44.321 -19.981   3.597  1.00  0.00     0.073 A 
HETATM   23  C   UNL     1      44.379 -18.925   4.500  1.00  0.00     0.073 A 
HETATM   24  C   UNL     1      43.758 -17.717   4.176  1.00  0.00     0.066 A 
BRANCH  21  25
HETATM   25  O   UNL     1      43.677 -20.951   1.586  1.00  0.00    -0.356 OA
HETATM   26  C   UNL     1      44.408 -22.074   2.062  1.00  0.00     0.210 C 
ENDBRANCH  21  25
BRANCH  23  27
HETATM   27  O   UNL     1      44.998 -18.934   5.718  1.00  0.00    -0.356 OA
HETATM   28  C   UNL     1      44.833 -17.777   6.532  1.00  0.00     0.210 C 
ENDBRANCH  23  27
ENDBRANCH  16  19
ENDBRANCH  14  15
ENDBRANCH   1  14
BRANCH   7  29
HETATM   29  C   UNL     1      39.642 -10.548   9.245  1.00  0.00    -0.002 A 
HETATM   30  C   UNL     1      38.678  -9.531   9.188  1.00  0.00     0.016 A 
HETATM   31  C   UNL     1      38.233  -8.907  10.357  1.00  0.00     0.024 A 
HETATM   32  C   UNL     1      38.754  -9.294  11.589  1.00  0.00     0.034 A 
HETATM   33 CL   UNL     1      38.208  -8.530  13.028  1.00  0.00    -0.084 Cl
HETATM   34  C   UNL     1      39.717 -10.299  11.659  1.00  0.00     0.024 A 
HETATM   35  C   UNL     1      40.162 -10.925  10.489  1.00  0.00     0.016 A 
ENDBRANCH   7  29
TORSDOF 6
ENDMDL
MODEL 6
REMARK VINA RESULT:      -8.0      6.038     10.350
REMARK  6 active torsions:
REMARK  status: ('A' for Active; 'I' for Inactive)
REMARK    1  A    between atoms: O_2  and  C_3 
REMARK    2  A    between atoms: C_5  and  O_6 
REMARK    3  A    between atoms: C_9  and  N_10 
REMARK       I    between atoms: N_10  and  C_11 
REMARK    4  A    between atoms: C_11  and  C_12 
REMARK    5  A    between atoms: C_12  and  N_13 
REMARK    6  A    between atoms: C_19  and  C_20 
ROOT
HETATM    1  N   UNL     1      39.961 -13.524   1.584  1.00  0.00    -0.063 N 
HETATM    2  H   UNL     1      40.410 -13.608   0.652  1.00  0.00     0.280 HD
HETATM    3  C   UNL     1      41.074 -13.271   2.574  1.00  0.00     0.240 C 
HETATM    4  C   UNL     1      41.990 -14.477   2.660  1.00  0.00     0.083 C 
HETATM    5  C   UNL     1      41.217 -15.756   2.979  1.00  0.00     0.131 A 
HETATM    6  N   UNL     1      42.163 -16.894   2.868  1.00  0.00    -0.251 NA
HETATM    7  C   UNL     1      42.208 -17.474   4.039  1.00  0.00     0.132 A 
HETATM    8  C   UNL     1      41.311 -16.780   5.039  1.00  0.00     0.272 A 
HETATM    9  O   UNL     1      41.151 -17.029   6.208  1.00  0.00    -0.266 OA
HETATM   10  N   UNL     1      40.731 -15.777   4.324  1.00  0.00    -0.327 N 
HETATM   11  C   UNL     1      40.099 -15.976   1.959  1.00  0.00     0.083 C 
HETATM   12  C   UNL     1      39.176 -14.774   1.866  1.00  0.00     0.240 C 
HETATM   13  H   UNL     1      40.106 -15.138   4.796  1.00  0.00     0.165 HD
ENDROOT
BRANCH   1  14
HETATM   14  C   UNL     1      39.042 -12.297   1.433  1.00  0.00     0.337 C 
BRANCH  14  15
HETATM   15  C   UNL     1      37.992 -12.528   0.344  1.00  0.00     0.248 C 
HETATM   16  N   UNL     1      38.518 -12.693  -0.920  1.00  0.00    -0.326 N 
HETATM   17  H   UNL     1      39.526 -12.673  -1.037  1.00  0.00     0.169 HD
HETATM   18  O   UNL     1      36.813 -12.603   0.685  1.00  0.00    -0.271 OA
BRANCH  16  19
HETATM   19  C   UNL     1      37.806 -12.948  -2.114  1.00  0.00     0.040 A 
HETATM   20  C   UNL     1      36.837 -12.097  -2.651  1.00  0.00     0.066 A 
HETATM   21  C   UNL     1      36.184 -12.435  -3.841  1.00  0.00     0.073 A 
HETATM   22  C   UNL     1      36.489 -13.638  -4.488  1.00  0.00     0.073 A 
HETATM   23  C   UNL     1      37.451 -14.496  -3.963  1.00  0.00     0.073 A 
HETATM   24  C   UNL     1      38.111 -14.139  -2.786  1.00  0.00     0.066 A 
BRANCH  21  25
HETATM   25  O   UNL     1      35.229 -11.686  -4.473  1.00  0.00    -0.356 OA
HETATM   26  C   UNL     1      34.092 -12.369  -4.983  1.00  0.00     0.210 C 
ENDBRANCH  21  25
BRANCH  23  27
HETATM   27  O   UNL     1      37.837 -15.697  -4.488  1.00  0.00    -0.356 OA
HETATM   28  C   UNL     1      39.095 -16.210  -4.061  1.00  0.00     0.210 C 
ENDBRANCH  23  27
ENDBRANCH  16  19
ENDBRANCH  14  15
ENDBRANCH   1  14
BRANCH   7  29
HETATM   29  C   UNL     1      43.043 -18.654   4.340  1.00  0.00    -0.002 A 
HETATM   30  C   UNL     1      43.564 -19.396   3.269  1.00  0.00     0.016 A 
HETATM   31  C   UNL     1      44.362 -20.519   3.505  1.00  0.00     0.024 A 
HETATM   32  C   UNL     1      44.638 -20.909   4.813  1.00  0.00     0.034 A 
HETATM   33 CL   UNL     1      45.619 -22.290   5.106  1.00  0.00    -0.084 Cl
HETATM   34  C   UNL     1      44.121 -20.185   5.885  1.00  0.00     0.024 A 
HETATM   35  C   UNL     1      43.324 -19.060   5.650  1.00  0.00     0.016 A 
ENDBRANCH   7  29
TORSDOF 6
ENDMDL
MODEL 7
REMARK VINA RESULT:      -8.0      2.214      2.920
REMARK  6 active torsions:
REMARK  status: ('A' for Active; 'I' for Inactive)
REMARK    1  A    between atoms: O_2  and  C_3 
REMARK    2  A    between atoms: C_5  and  O_6 
REMARK    3  A    between atoms: C_9  and  N_10 
REMARK       I    between atoms: N_10  and  C_11 
REMARK    4  A    between atoms: C_11  and  C_12 
REMARK    5  A    between atoms: C_12  and  N_13 
REMARK    6  A    between atoms: C_19  and  C_20 
ROOT
HETATM    1  N   UNL     1      40.830 -12.620   3.751  1.00  0.00    -0.063 N 
HETATM    2  H   UNL     1      40.771 -12.790   2.729  1.00  0.00     0.280 HD
HETATM    3  C   UNL     1      42.295 -12.681   4.112  1.00  0.00     0.240 C 
HETATM    4  C   UNL     1      42.838 -14.081   3.891  1.00  0.00     0.083 C 
HETATM    5  C   UNL     1      42.017 -15.132   4.637  1.00  0.00     0.131 A 
HETATM    6  N   UNL     1      42.511 -16.468   4.222  1.00  0.00    -0.251 NA
HETATM    7  C   UNL     1      42.946 -17.071   5.298  1.00  0.00     0.132 A 
HETATM    8  C   UNL     1      42.795 -16.200   6.523  1.00  0.00     0.272 A 
HETATM    9  O   UNL     1      43.130 -16.431   7.658  1.00  0.00    -0.266 OA
HETATM   10  N   UNL     1      42.207 -15.065   6.053  1.00  0.00    -0.327 N 
HETATM   11  C   UNL     1      40.542 -15.037   4.250  1.00  0.00     0.083 C 
HETATM   12  C   UNL     1      39.989 -13.640   4.467  1.00  0.00     0.240 C 
HETATM   13  H   UNL     1      42.035 -14.301   6.694  1.00  0.00     0.165 HD
ENDROOT
BRANCH   1  14
HETATM   14  C   UNL     1      40.261 -11.198   3.914  1.00  0.00     0.337 C 
BRANCH  14  15
HETATM   15  C   UNL     1      40.828 -10.520   5.163  1.00  0.00     0.248 C 
HETATM   16  N   UNL     1      40.443 -11.110   6.348  1.00  0.00    -0.326 N 
HETATM   17  H   UNL     1      39.853 -11.935   6.316  1.00  0.00     0.169 HD
HETATM   18  O   UNL     1      41.599  -9.574   5.008  1.00  0.00    -0.271 OA
BRANCH  16  19
HETATM   19  C   UNL     1      40.826 -10.730   7.655  1.00  0.00     0.040 A 
HETATM   20  C   UNL     1      39.944 -10.244   8.624  1.00  0.00     0.066 A 
HETATM   21  C   UNL     1      40.417  -9.892   9.893  1.00  0.00     0.073 A 
HETATM   22  C   UNL     1      41.780 -10.012  10.189  1.00  0.00     0.073 A 
HETATM   23  C   UNL     1      42.669 -10.493   9.233  1.00  0.00     0.073 A 
HETATM   24  C   UNL     1      42.184 -10.860   7.976  1.00  0.00     0.066 A 
BRANCH  21  25
HETATM   25  O   UNL     1      39.659  -9.417  10.928  1.00  0.00    -0.356 OA
HETATM   26  C   UNL     1      39.905  -9.955  12.221  1.00  0.00     0.210 C 
ENDBRANCH  21  25
BRANCH  23  27
HETATM   27  O   UNL     1      44.017 -10.652   9.388  1.00  0.00    -0.356 OA
HETATM   28  C   UNL     1      44.458 -11.886   9.946  1.00  0.00     0.210 C 
ENDBRANCH  23  27
ENDBRANCH  16  19
ENDBRANCH  14  15
ENDBRANCH   1  14
BRANCH   7  29
HETATM   29  C   UNL     1      43.522 -18.430   5.301  1.00  0.00    -0.002 A 
HETATM   30  C   UNL     1      44.162 -18.889   4.140  1.00  0.00     0.016 A 
HETATM   31  C   UNL     1      44.724 -20.168   4.097  1.00  0.00     0.024 A 
HETATM   32  C   UNL     1      44.646 -20.997   5.214  1.00  0.00     0.034 A 
HETATM   33 CL   UNL     1      45.336 -22.570   5.164  1.00  0.00    -0.084 Cl
HETATM   34  C   UNL     1      44.007 -20.555   6.371  1.00  0.00     0.024 A 
HETATM   35  C   UNL     1      43.445 -19.275   6.415  1.00  0.00     0.016 A 
ENDBRANCH   7  29
TORSDOF 6
ENDMDL
MODEL 8
REMARK VINA RESULT:      -7.8      5.968      9.380
REMARK  6 active torsions:
REMARK  status: ('A' for Active; 'I' for Inactive)
REMARK    1  A    between atoms: O_2  and  C_3 
REMARK    2  A    between atoms: C_5  and  O_6 
REMARK    3  A    between atoms: C_9  and  N_10 
REMARK       I    between atoms: N_10  and  C_11 
REMARK    4  A    between atoms: C_11  and  C_12 
REMARK    5  A    between atoms: C_12  and  N_13 
REMARK    6  A    between atoms: C_19  and  C_20 
ROOT
HETATM    1  N   UNL     1      40.212 -14.264   3.753  1.00  0.00    -0.063 N 
HETATM    2  H   UNL     1      39.295 -14.216   4.237  1.00  0.00     0.280 HD
HETATM    3  C   UNL     1      40.379 -12.953   3.022  1.00  0.00     0.240 C 
HETATM    4  C   UNL     1      39.336 -12.819   1.928  1.00  0.00     0.083 C 
HETATM    5  C   UNL     1      39.356 -14.015   0.976  1.00  0.00     0.131 A 
HETATM    6  N   UNL     1      38.198 -13.879   0.057  1.00  0.00    -0.251 NA
HETATM    7  C   UNL     1      38.675 -13.807  -1.158  1.00  0.00     0.132 A 
HETATM    8  C   UNL     1      40.185 -13.877  -1.168  1.00  0.00     0.272 A 
HETATM    9  O   UNL     1      40.937 -13.799  -2.107  1.00  0.00    -0.266 OA
HETATM   10  N   UNL     1      40.519 -14.028   0.143  1.00  0.00    -0.327 N 
HETATM   11  C   UNL     1      39.189 -15.321   1.751  1.00  0.00     0.083 C 
HETATM   12  C   UNL     1      40.228 -15.464   2.848  1.00  0.00     0.240 C 
HETATM   13  H   UNL     1      41.497 -14.061   0.399  1.00  0.00     0.165 HD
ENDROOT
BRANCH   1  14
HETATM   14  C   UNL     1      41.223 -14.407   4.906  1.00  0.00     0.337 C 
BRANCH  14  15
HETATM   15  C   UNL     1      41.544 -15.879   5.175  1.00  0.00     0.248 C 
HETATM   16  N   UNL     1      42.718 -16.314   4.597  1.00  0.00    -0.326 N 
HETATM   17  H   UNL     1      43.280 -15.652   4.072  1.00  0.00     0.169 HD
HETATM   18  O   UNL     1      40.786 -16.511   5.908  1.00  0.00    -0.271 OA
BRANCH  16  19
HETATM   19  C   UNL     1      43.289 -17.604   4.692  1.00  0.00     0.040 A 
HETATM   20  C   UNL     1      43.745 -18.346   3.599  1.00  0.00     0.066 A 
HETATM   21  C   UNL     1      44.296 -19.617   3.793  1.00  0.00     0.073 A 
HETATM   22  C   UNL     1      44.378 -20.155   5.082  1.00  0.00     0.073 A 
HETATM   23  C   UNL     1      43.927 -19.427   6.179  1.00  0.00     0.073 A 
HETATM   24  C   UNL     1      43.396 -18.151   5.978  1.00  0.00     0.066 A 
BRANCH  21  25
HETATM   25  O   UNL     1      44.787 -20.436   2.812  1.00  0.00    -0.356 OA
HETATM   26  C   UNL     1      43.848 -21.037   1.930  1.00  0.00     0.210 C 
ENDBRANCH  21  25
BRANCH  23  27
HETATM   27  O   UNL     1      43.942 -19.835   7.483  1.00  0.00    -0.356 OA
HETATM   28  C   UNL     1      43.550 -21.179   7.741  1.00  0.00     0.210 C 
ENDBRANCH  23  27
ENDBRANCH  16  19
ENDBRANCH  14  15
ENDBRANCH   1  14
BRANCH   7  29
HETATM   29  C   UNL     1      37.835 -13.664  -2.363  1.00  0.00    -0.002 A 
HETATM   30  C   UNL     1      37.577 -14.804  -3.139  1.00  0.00     0.016 A 
HETATM   31  C   UNL     1      36.785 -14.717  -4.287  1.00  0.00     0.024 A 
HETATM   32  C   UNL     1      36.251 -13.489  -4.669  1.00  0.00     0.034 A 
HETATM   33 CL   UNL     1      35.276 -13.379  -6.080  1.00  0.00    -0.084 Cl
HETATM   34  C   UNL     1      36.505 -12.348  -3.911  1.00  0.00     0.024 A 
HETATM   35  C   UNL     1      37.296 -12.434  -2.760  1.00  0.00     0.016 A 
ENDBRANCH   7  29
TORSDOF 6
ENDMDL
MODEL 9
REMARK VINA RESULT:      -7.7      5.851      9.116
REMARK  6 active torsions:
REMARK  status: ('A' for Active; 'I' for Inactive)
REMARK    1  A    between atoms: O_2  and  C_3 
REMARK    2  A    between atoms: C_5  and  O_6 
REMARK    3  A    between atoms: C_9  and  N_10 
REMARK       I    between atoms: N_10  and  C_11 
REMARK    4  A    between atoms: C_11  and  C_12 
REMARK    5  A    between atoms: C_12  and  N_13 
REMARK    6  A    between atoms: C_19  and  C_20 
ROOT
HETATM    1  N   UNL     1      40.210 -13.845   3.713  1.00  0.00    -0.063 N 
HETATM    2  H   UNL     1      39.317 -13.621   4.190  1.00  0.00     0.280 HD
HETATM    3  C   UNL     1      40.534 -12.662   2.832  1.00  0.00     0.240 C 
HETATM    4  C   UNL     1      39.498 -12.521   1.732  1.00  0.00     0.083 C 
HETATM    5  C   UNL     1      39.344 -13.811   0.928  1.00  0.00     0.131 A 
HETATM    6  N   UNL     1      38.197 -13.633   0.003  1.00  0.00    -0.251 NA
HETATM    7  C   UNL     1      38.657 -13.766  -1.214  1.00  0.00     0.132 A 
HETATM    8  C   UNL     1      40.144 -14.036  -1.219  1.00  0.00     0.272 A 
HETATM    9  O   UNL     1      40.883 -14.167  -2.163  1.00  0.00    -0.266 OA
HETATM   10  N   UNL     1      40.480 -14.075   0.100  1.00  0.00    -0.327 N 
HETATM   11  C   UNL     1      39.021 -14.985   1.853  1.00  0.00     0.083 C 
HETATM   12  C   UNL     1      40.053 -15.135   2.956  1.00  0.00     0.240 C 
HETATM   13  H   UNL     1      41.450 -14.206   0.355  1.00  0.00     0.165 HD
ENDROOT
BRANCH   1  14
HETATM   14  C   UNL     1      41.214 -13.985   4.871  1.00  0.00     0.337 C 
BRANCH  14  15
HETATM   15  C   UNL     1      41.488 -15.457   5.187  1.00  0.00     0.248 C 
HETATM   16  N   UNL     1      42.686 -15.926   4.691  1.00  0.00    -0.326 N 
HETATM   17  H   UNL     1      43.293 -15.286   4.190  1.00  0.00     0.169 HD
HETATM   18  O   UNL     1      40.673 -16.061   5.883  1.00  0.00    -0.271 OA
BRANCH  16  19
HETATM   19  C   UNL     1      43.224 -17.225   4.845  1.00  0.00     0.040 A 
HETATM   20  C   UNL     1      43.399 -17.864   6.075  1.00  0.00     0.066 A 
HETATM   21  C   UNL     1      43.939 -19.154   6.127  1.00  0.00     0.073 A 
HETATM   22  C   UNL     1      44.321 -19.800   4.946  1.00  0.00     0.073 A 
HETATM   23  C   UNL     1      44.154 -19.174   3.714  1.00  0.00     0.073 A 
HETATM   24  C   UNL     1      43.594 -17.895   3.672  1.00  0.00     0.066 A 
BRANCH  21  25
HETATM   25  O   UNL     1      44.150 -19.890   7.261  1.00  0.00    -0.356 OA
HETATM   26  C   UNL     1      43.507 -21.154   7.350  1.00  0.00     0.210 C 
ENDBRANCH  21  25
BRANCH  23  27
HETATM   27  O   UNL     1      44.488 -19.687   2.493  1.00  0.00    -0.356 OA
HETATM   28  C   UNL     1      44.056 -21.015   2.213  1.00  0.00     0.210 C 
ENDBRANCH  23  27
ENDBRANCH  16  19
ENDBRANCH  14  15
ENDBRANCH   1  14
BRANCH   7  29
HETATM   29  C   UNL     1      37.821 -13.655  -2.425  1.00  0.00    -0.002 A 
HETATM   30  C   UNL     1      37.582 -14.811  -3.182  1.00  0.00     0.016 A 
HETATM   31  C   UNL     1      36.795 -14.755  -4.336  1.00  0.00     0.024 A 
HETATM   32  C   UNL     1      36.246 -13.541  -4.741  1.00  0.00     0.034 A 
HETATM   33 CL   UNL     1      35.278 -13.468  -6.159  1.00  0.00    -0.084 Cl
HETATM   34  C   UNL     1      36.482 -12.383  -4.001  1.00  0.00     0.024 A 
HETATM   35  C   UNL     1      37.269 -12.439  -2.846  1.00  0.00     0.016 A 
ENDBRANCH   7  29
TORSDOF 6
ENDMDL
MODEL 10
REMARK VINA RESULT:      -7.7      7.027     11.866
REMARK  6 active torsions:
REMARK  status: ('A' for Active; 'I' for Inactive)
REMARK    1  A    between atoms: O_2  and  C_3 
REMARK    2  A    between atoms: C_5  and  O_6 
REMARK    3  A    between atoms: C_9  and  N_10 
REMARK       I    between atoms: N_10  and  C_11 
REMARK    4  A    between atoms: C_11  and  C_12 
REMARK    5  A    between atoms: C_12  and  N_13 
REMARK    6  A    between atoms: C_19  and  C_20 
ROOT
HETATM    1  N   UNL     1      39.359 -14.621  -0.312  1.00  0.00    -0.063 N 
HETATM    2  H   UNL     1      38.814 -15.387  -0.752  1.00  0.00     0.280 HD
HETATM    3  C   UNL     1      40.793 -14.810  -0.746  1.00  0.00     0.240 C 
HETATM    4  C   UNL     1      41.353 -16.101  -0.177  1.00  0.00     0.083 C 
HETATM    5  C   UNL     1      41.200 -16.165   1.342  1.00  0.00     0.131 A 
HETATM    6  N   UNL     1      41.610 -17.522   1.780  1.00  0.00    -0.251 NA
HETATM    7  C   UNL     1      42.619 -17.376   2.598  1.00  0.00     0.132 A 
HETATM    8  C   UNL     1      42.983 -15.920   2.778  1.00  0.00     0.272 A 
HETATM    9  O   UNL     1      43.880 -15.442   3.426  1.00  0.00    -0.266 OA
HETATM   10  N   UNL     1      42.072 -15.254   2.016  1.00  0.00    -0.327 N 
HETATM   11  C   UNL     1      39.738 -15.965   1.743  1.00  0.00     0.083 C 
HETATM   12  C   UNL     1      39.168 -14.677   1.179  1.00  0.00     0.240 C 
HETATM   13  H   UNL     1      42.137 -14.247   1.944  1.00  0.00     0.165 HD
ENDROOT
BRANCH   1  14
HETATM   14  C   UNL     1      38.743 -13.346  -0.916  1.00  0.00     0.337 C 
BRANCH  14  15
HETATM   15  C   UNL     1      38.005 -13.656  -2.221  1.00  0.00     0.248 C 
HETATM   16  N   UNL     1      37.277 -12.598  -2.721  1.00  0.00    -0.326 N 
HETATM   17  H   UNL     1      37.294 -11.713  -2.225  1.00  0.00     0.169 HD
HETATM   18  O   UNL     1      38.166 -14.766  -2.726  1.00  0.00    -0.271 OA
BRANCH  16  19
HETATM   19  C   UNL     1      36.520 -12.573  -3.916  1.00  0.00     0.040 A 
HETATM   20  C   UNL     1      36.153 -13.710  -4.640  1.00  0.00     0.066 A 
HETATM   21  C   UNL     1      35.401 -13.584  -5.813  1.00  0.00     0.073 A 
HETATM   22  C   UNL     1      35.028 -12.316  -6.272  1.00  0.00     0.073 A 
HETATM   23  C   UNL     1      35.388 -11.175  -5.561  1.00  0.00     0.073 A 
HETATM   24  C   UNL     1      36.121 -11.312  -4.380  1.00  0.00     0.066 A 
BRANCH  21  25
HETATM   25  O   UNL     1      34.970 -14.615  -6.604  1.00  0.00    -0.356 OA
HETATM   26  C   UNL     1      34.965 -14.404  -8.009  1.00  0.00     0.210 C 
ENDBRANCH  21  25
BRANCH  23  27
HETATM   27  O   UNL     1      35.096  -9.884  -5.899  1.00  0.00    -0.356 OA
HETATM   28  C   UNL     1      34.621  -9.038  -4.857  1.00  0.00     0.210 C 
ENDBRANCH  23  27
ENDBRANCH  16  19
ENDBRANCH  14  15
ENDBRANCH   1  14
BRANCH   7  29
HETATM   29  C   UNL     1      43.316 -18.501   3.252  1.00  0.00    -0.002 A 
HETATM   30  C   UNL     1      43.741 -19.577   2.459  1.00  0.00     0.016 A 
HETATM   31  C   UNL     1      44.407 -20.663   3.033  1.00  0.00     0.024 A 
HETATM   32  C   UNL     1      44.647 -20.682   4.405  1.00  0.00     0.034 A 
HETATM   33 CL   UNL     1      45.466 -22.016   5.114  1.00  0.00    -0.084 Cl
HETATM   34  C   UNL     1      44.223 -19.623   5.205  1.00  0.00     0.024 A 
HETATM   35  C   UNL     1      43.558 -18.534   4.631  1.00  0.00     0.016 A 
ENDBRANCH   7  29
TORSDOF 6
ENDMDL
