MODEL 1
REMARK VINA RESULT:      -8.9      0.000      0.000
REMARK  6 active torsions:
REMARK  status: ('A' for Active; 'I' for Inactive)
REMARK    1  A    between atoms: C_3  and  N_4 
REMARK       I    between atoms: N_4  and  C_5 
REMARK    2  A    between atoms: C_5  and  C_6 
REMARK       I    between atoms: C_6  and  N_7 
REMARK    3  A    between atoms: N_7  and  C_8 
REMARK    4  A    between atoms: C_9  and  C_10 
REMARK    5  A    between atoms: C_23  and  C_24 
REMARK       I    between atoms: C_24  and  N_25 
REMARK    6  A    between atoms: N_25  and  C_26 
ROOT
HETATM    1  N   UNL     1      43.677 -14.995   6.932  1.00  0.00    -0.318 N 
HETATM    2  C   UNL     1      44.487 -13.945   6.548  1.00  0.00     0.314 C 
HETATM    3  O   UNL     1      44.883 -13.640   5.433  1.00  0.00    -0.262 OA
HETATM    4  H   UNL     1      43.478 -15.003   7.929  1.00  0.00     0.169 HD
ENDROOT
BRANCH   2   5
HETATM    5  C   UNL     1      44.902 -13.075   7.753  1.00  0.00     0.314 C 
HETATM    6  N   UNL     1      43.823 -12.609   8.461  1.00  0.00    -0.316 N 
HETATM    7  H   UNL     1      42.888 -12.872   8.135  1.00  0.00     0.169 HD
HETATM    8  O   UNL     1      46.097 -12.892   7.958  1.00  0.00    -0.262 OA
BRANCH   6   9
HETATM    9  C   UNL     1      43.862 -11.811   9.587  1.00  0.00     0.085 A 
HETATM   10  C   UNL     1      43.040 -10.665   9.846  1.00  0.00     0.133 A 
HETATM   11  N   UNL     1      43.344 -10.129  11.045  1.00  0.00    -0.171 NA
HETATM   12  N   UNL     1      44.328 -10.911  11.518  1.00  0.00    -0.286 N 
HETATM   13  H   UNL     1      44.722 -10.688  12.426  1.00  0.00     0.188 HD
HETATM   14  C   UNL     1      44.672 -11.932  10.687  1.00  0.00     0.141 A 
BRANCH  10  15
HETATM   15  C   UNL     1      41.998 -10.112   8.965  1.00  0.00     0.089 A 
HETATM   16  N   UNL     1      42.273 -10.124   7.630  1.00  0.00    -0.259 NA
HETATM   17  C   UNL     1      41.334  -9.621   6.799  1.00  0.00     0.117 A 
HETATM   18  C   UNL     1      40.123  -9.106   7.230  1.00  0.00     0.019 A 
HETATM   19  C   UNL     1      39.856  -9.103   8.594  1.00  0.00     0.004 A 
HETATM   20  C   UNL     1      40.806  -9.611   9.478  1.00  0.00     0.034 A 
ENDBRANCH  10  15
ENDBRANCH   6   9
ENDBRANCH   2   5
BRANCH   1  21
HETATM   21  C   UNL     1      43.126 -16.016   6.132  1.00  0.00     0.042 A 
HETATM   22  C   UNL     1      41.762 -15.934   5.774  1.00  0.00    -0.035 A 
HETATM   23  C   UNL     1      40.885 -14.787   6.205  1.00  0.00     0.050 C 
HETATM   24  C   UNL     1      41.188 -16.958   5.001  1.00  0.00     0.010 A 
HETATM   25  C   UNL     1      41.948 -18.048   4.577  1.00  0.00     0.017 A 
HETATM   26  C   UNL     1      43.303 -18.121   4.912  1.00  0.00     0.034 A 
HETATM   27  C   UNL     1      43.880 -17.112   5.696  1.00  0.00     0.047 A 
BRANCH  26  28
HETATM   28  C   UNL     1      44.154 -19.272   4.495  1.00  0.00     0.252 C 
HETATM   29  N   UNL     1      43.910 -19.789   3.235  1.00  0.00    -0.352 N 
HETATM   30  H   UNL     1      43.308 -19.282   2.599  1.00  0.00     0.163 HD
HETATM   31  O   UNL     1      45.027 -19.694   5.246  1.00  0.00    -0.268 OA
BRANCH  29  32
HETATM   32  C   UNL     1      44.687 -20.861   2.698  1.00  0.00     0.084 A 
HETATM   33  C   UNL     1      44.395 -22.287   3.071  1.00  0.00     0.027 A 
HETATM   34  C   UNL     1      44.091 -21.799   1.686  1.00  0.00     0.027 A 
ENDBRANCH  29  32
ENDBRANCH  26  28
ENDBRANCH   1  21
TORSDOF 6
ENDMDL
MODEL 2
REMARK VINA RESULT:      -8.8      6.395      8.923
REMARK  6 active torsions:
REMARK  status: ('A' for Active; 'I' for Inactive)
REMARK    1  A    between atoms: C_3  and  N_4 
REMARK       I    between atoms: N_4  and  C_5 
REMARK    2  A    between atoms: C_5  and  C_6 
REMARK       I    between atoms: C_6  and  N_7 
REMARK    3  A    between atoms: N_7  and  C_8 
REMARK    4  A    between atoms: C_9  and  C_10 
REMARK    5  A    between atoms: C_23  and  C_24 
REMARK       I    between atoms: C_24  and  N_25 
REMARK    6  A    between atoms: N_25  and  C_26 
ROOT
HETATM    1  N   UNL     1      41.555 -15.220   2.199  1.00  0.00    -0.318 N 
HETATM    2  C   UNL     1      41.356 -15.530   0.869  1.00  0.00     0.314 C 
HETATM    3  O   UNL     1      41.307 -16.624   0.327  1.00  0.00    -0.262 OA
HETATM    4  H   UNL     1      41.525 -14.221   2.386  1.00  0.00     0.169 HD
ENDROOT
BRANCH   2   5
HETATM    5  C   UNL     1      41.171 -14.261   0.010  1.00  0.00     0.314 C 
HETATM    6  N   UNL     1      41.947 -14.275  -1.122  1.00  0.00    -0.316 N 
HETATM    7  H   UNL     1      42.547 -15.091  -1.280  1.00  0.00     0.169 HD
HETATM    8  O   UNL     1      40.387 -13.402   0.397  1.00  0.00    -0.262 OA
BRANCH   6   9
HETATM    9  C   UNL     1      42.006 -13.293  -2.090  1.00  0.00     0.085 A 
HETATM   10  C   UNL     1      41.073 -13.098  -3.162  1.00  0.00     0.133 A 
HETATM   11  N   UNL     1      41.438 -12.042  -3.916  1.00  0.00    -0.171 NA
HETATM   12  N   UNL     1      42.565 -11.594  -3.339  1.00  0.00    -0.286 N 
HETATM   13  H   UNL     1      43.026 -10.789  -3.749  1.00  0.00     0.188 HD
HETATM   14  C   UNL     1      42.945 -12.305  -2.243  1.00  0.00     0.141 A 
BRANCH  10  15
HETATM   15  C   UNL     1      39.874 -13.904  -3.442  1.00  0.00     0.089 A 
HETATM   16  N   UNL     1      40.094 -15.186  -3.848  1.00  0.00    -0.259 NA
HETATM   17  C   UNL     1      39.009 -15.947  -4.113  1.00  0.00     0.117 A 
HETATM   18  C   UNL     1      37.706 -15.497  -3.990  1.00  0.00     0.019 A 
HETATM   19  C   UNL     1      37.497 -14.188  -3.573  1.00  0.00     0.004 A 
HETATM   20  C   UNL     1      38.595 -13.376  -3.295  1.00  0.00     0.034 A 
ENDBRANCH  10  15
ENDBRANCH   6   9
ENDBRANCH   2   5
BRANCH   1  21
HETATM   21  C   UNL     1      41.792 -16.095   3.278  1.00  0.00     0.042 A 
HETATM   22  C   UNL     1      41.122 -15.861   4.500  1.00  0.00    -0.035 A 
HETATM   23  C   UNL     1      40.154 -14.720   4.680  1.00  0.00     0.050 C 
HETATM   24  C   UNL     1      41.367 -16.706   5.596  1.00  0.00     0.010 A 
HETATM   25  C   UNL     1      42.256 -17.775   5.490  1.00  0.00     0.017 A 
HETATM   26  C   UNL     1      42.905 -18.022   4.277  1.00  0.00     0.034 A 
HETATM   27  C   UNL     1      42.678 -17.174   3.183  1.00  0.00     0.047 A 
BRANCH  26  28
HETATM   28  C   UNL     1      43.874 -19.144   4.118  1.00  0.00     0.252 C 
HETATM   29  N   UNL     1      43.795 -19.858   2.936  1.00  0.00    -0.352 N 
HETATM   30  H   UNL     1      43.225 -19.504   2.180  1.00  0.00     0.163 HD
HETATM   31  O   UNL     1      44.695 -19.375   4.999  1.00  0.00    -0.268 OA
BRANCH  29  32
HETATM   32  C   UNL     1      44.697 -20.927   2.642  1.00  0.00     0.084 A 
HETATM   33  C   UNL     1      44.410 -22.327   3.104  1.00  0.00     0.027 A 
HETATM   34  C   UNL     1      44.318 -21.988   1.646  1.00  0.00     0.027 A 
ENDBRANCH  29  32
ENDBRANCH  26  28
ENDBRANCH   1  21
TORSDOF 6
ENDMDL
MODEL 3
REMARK VINA RESULT:      -8.6      5.836      8.481
REMARK  6 active torsions:
REMARK  status: ('A' for Active; 'I' for Inactive)
REMARK    1  A    between atoms: C_3  and  N_4 
REMARK       I    between atoms: N_4  and  C_5 
REMARK    2  A    between atoms: C_5  and  C_6 
REMARK       I    between atoms: C_6  and  N_7 
REMARK    3  A    between atoms: N_7  and  C_8 
REMARK    4  A    between atoms: C_9  and  C_10 
REMARK    5  A    between atoms: C_23  and  C_24 
REMARK       I    between atoms: C_24  and  N_25 
REMARK    6  A    between atoms: N_25  and  C_26 
ROOT
HETATM    1  N   UNL     1      41.111 -15.434   3.277  1.00  0.00    -0.318 N 
HETATM    2  C   UNL     1      40.253 -15.704   2.231  1.00  0.00     0.314 C 
HETATM    3  O   UNL     1      39.759 -16.768   1.889  1.00  0.00    -0.262 OA
HETATM    4  H   UNL     1      41.352 -14.449   3.353  1.00  0.00     0.169 HD
ENDROOT
BRANCH   2   5
HETATM    5  C   UNL     1      39.912 -14.430   1.430  1.00  0.00     0.314 C 
HETATM    6  N   UNL     1      38.615 -14.420   0.985  1.00  0.00    -0.316 N 
HETATM    7  H   UNL     1      38.024 -15.225   1.217  1.00  0.00     0.169 HD
HETATM    8  O   UNL     1      40.787 -13.585   1.275  1.00  0.00    -0.262 OA
BRANCH   6   9
HETATM    9  C   UNL     1      38.006 -13.425   0.247  1.00  0.00     0.085 A 
HETATM   10  C   UNL     1      37.945 -13.343  -1.184  1.00  0.00     0.133 A 
HETATM   11  N   UNL     1      37.269 -12.241  -1.563  1.00  0.00    -0.171 NA
HETATM   12  N   UNL     1      36.923 -11.648  -0.408  1.00  0.00    -0.286 N 
HETATM   13  H   UNL     1      36.397 -10.782  -0.453  1.00  0.00     0.188 HD
HETATM   14  C   UNL     1      37.336 -12.318   0.701  1.00  0.00     0.141 A 
BRANCH  10  15
HETATM   15  C   UNL     1      38.518 -14.299  -2.145  1.00  0.00     0.089 A 
HETATM   16  N   UNL     1      39.844 -14.580  -1.993  1.00  0.00    -0.259 NA
HETATM   17  C   UNL     1      40.396 -15.453  -2.864  1.00  0.00     0.117 A 
HETATM   18  C   UNL     1      39.692 -16.071  -3.883  1.00  0.00     0.019 A 
HETATM   19  C   UNL     1      38.341 -15.777  -4.024  1.00  0.00     0.004 A 
HETATM   20  C   UNL     1      37.742 -14.877  -3.144  1.00  0.00     0.034 A 
ENDBRANCH  10  15
ENDBRANCH   6   9
ENDBRANCH   2   5
BRANCH   1  21
HETATM   21  C   UNL     1      41.672 -16.333   4.207  1.00  0.00     0.042 A 
HETATM   22  C   UNL     1      41.350 -16.182   5.574  1.00  0.00    -0.035 A 
HETATM   23  C   UNL     1      40.417 -15.105   6.067  1.00  0.00     0.050 C 
HETATM   24  C   UNL     1      41.922 -17.051   6.519  1.00  0.00     0.010 A 
HETATM   25  C   UNL     1      42.796 -18.064   6.123  1.00  0.00     0.017 A 
HETATM   26  C   UNL     1      43.101 -18.229   4.770  1.00  0.00     0.034 A 
HETATM   27  C   UNL     1      42.546 -17.356   3.822  1.00  0.00     0.047 A 
BRANCH  26  28
HETATM   28  C   UNL     1      44.039 -19.287   4.299  1.00  0.00     0.252 C 
HETATM   29  N   UNL     1      43.754 -19.856   3.070  1.00  0.00    -0.352 N 
HETATM   30  H   UNL     1      43.049 -19.434   2.480  1.00  0.00     0.163 HD
HETATM   31  O   UNL     1      45.012 -19.593   4.980  1.00  0.00    -0.268 OA
BRANCH  29  32
HETATM   32  C   UNL     1      44.600 -20.847   2.486  1.00  0.00     0.084 A 
HETATM   33  C   UNL     1      44.483 -22.292   2.882  1.00  0.00     0.027 A 
HETATM   34  C   UNL     1      44.038 -21.852   1.519  1.00  0.00     0.027 A 
ENDBRANCH  29  32
ENDBRANCH  26  28
ENDBRANCH   1  21
TORSDOF 6
ENDMDL
MODEL 4
REMARK VINA RESULT:      -8.6      2.499      9.522
REMARK  6 active torsions:
REMARK  status: ('A' for Active; 'I' for Inactive)
REMARK    1  A    between atoms: C_3  and  N_4 
REMARK       I    between atoms: N_4  and  C_5 
REMARK    2  A    between atoms: C_5  and  C_6 
REMARK       I    between atoms: C_6  and  N_7 
REMARK    3  A    between atoms: N_7  and  C_8 
REMARK    4  A    between atoms: C_9  and  C_10 
REMARK    5  A    between atoms: C_23  and  C_24 
REMARK       I    between atoms: C_24  and  N_25 
REMARK    6  A    between atoms: N_25  and  C_26 
ROOT
HETATM    1  N   UNL     1      44.069 -12.906   7.313  1.00  0.00    -0.318 N 
HETATM    2  C   UNL     1      43.984 -14.258   7.050  1.00  0.00     0.314 C 
HETATM    3  O   UNL     1      44.294 -15.205   7.757  1.00  0.00    -0.262 OA
HETATM    4  H   UNL     1      43.715 -12.328   6.554  1.00  0.00     0.169 HD
ENDROOT
BRANCH   2   5
HETATM    5  C   UNL     1      43.397 -14.531   5.649  1.00  0.00     0.314 C 
HETATM    6  N   UNL     1      42.325 -15.385   5.686  1.00  0.00    -0.316 N 
HETATM    7  H   UNL     1      42.030 -15.744   6.600  1.00  0.00     0.169 HD
HETATM    8  O   UNL     1      43.916 -13.985   4.682  1.00  0.00    -0.262 OA
BRANCH   6   9
HETATM    9  C   UNL     1      41.584 -15.821   4.605  1.00  0.00     0.085 A 
HETATM   10  C   UNL     1      41.756 -17.057   3.898  1.00  0.00     0.133 A 
HETATM   11  N   UNL     1      40.856 -17.158   2.900  1.00  0.00    -0.171 NA
HETATM   12  N   UNL     1      40.147 -16.019   2.976  1.00  0.00    -0.286 N 
HETATM   13  H   UNL     1      39.399 -15.875   2.306  1.00  0.00     0.188 HD
HETATM   14  C   UNL     1      40.540 -15.189   3.980  1.00  0.00     0.141 A 
BRANCH  10  15
HETATM   15  C   UNL     1      42.754 -18.101   4.182  1.00  0.00     0.089 A 
HETATM   16  N   UNL     1      42.999 -18.355   5.499  1.00  0.00    -0.259 NA
HETATM   17  C   UNL     1      43.913 -19.307   5.787  1.00  0.00     0.117 A 
HETATM   18  C   UNL     1      44.598 -20.031   4.826  1.00  0.00     0.019 A 
HETATM   19  C   UNL     1      44.336 -19.763   3.488  1.00  0.00     0.004 A 
HETATM   20  C   UNL     1      43.402 -18.783   3.157  1.00  0.00     0.034 A 
ENDBRANCH  10  15
ENDBRANCH   6   9
ENDBRANCH   2   5
BRANCH   1  21
HETATM   21  C   UNL     1      44.577 -12.265   8.460  1.00  0.00     0.042 A 
HETATM   22  C   UNL     1      45.969 -12.046   8.554  1.00  0.00    -0.035 A 
HETATM   23  C   UNL     1      46.923 -12.461   7.463  1.00  0.00     0.050 C 
HETATM   24  C   UNL     1      46.497 -11.434   9.703  1.00  0.00     0.010 A 
HETATM   25  C   UNL     1      45.665 -11.032  10.747  1.00  0.00     0.017 A 
HETATM   26  C   UNL     1      44.285 -11.228  10.650  1.00  0.00     0.034 A 
HETATM   27  C   UNL     1      43.751 -11.853   9.513  1.00  0.00     0.047 A 
BRANCH  26  28
HETATM   28  C   UNL     1      43.354 -10.830  11.744  1.00  0.00     0.252 C 
HETATM   29  N   UNL     1      42.179 -11.552  11.842  1.00  0.00    -0.352 N 
HETATM   30  H   UNL     1      42.072 -12.400  11.302  1.00  0.00     0.163 HD
HETATM   31  O   UNL     1      43.660  -9.921  12.509  1.00  0.00    -0.268 OA
BRANCH  29  32
HETATM   32  C   UNL     1      41.225 -11.300  12.875  1.00  0.00     0.084 A 
HETATM   33  C   UNL     1      40.085 -10.345  12.656  1.00  0.00     0.027 A 
HETATM   34  C   UNL     1      39.818 -11.818  12.754  1.00  0.00     0.027 A 
ENDBRANCH  29  32
ENDBRANCH  26  28
ENDBRANCH   1  21
TORSDOF 6
ENDMDL
MODEL 5
REMARK VINA RESULT:      -8.5      4.694      8.046
REMARK  6 active torsions:
REMARK  status: ('A' for Active; 'I' for Inactive)
REMARK    1  A    between atoms: C_3  and  N_4 
REMARK       I    between atoms: N_4  and  C_5 
REMARK    2  A    between atoms: C_5  and  C_6 
REMARK       I    between atoms: C_6  and  N_7 
REMARK    3  A    between atoms: N_7  and  C_8 
REMARK    4  A    between atoms: C_9  and  C_10 
REMARK    5  A    between atoms: C_23  and  C_24 
REMARK       I    between atoms: C_24  and  N_25 
REMARK    6  A    between atoms: N_25  and  C_26 
ROOT
HETATM    1  N   UNL     1      41.605 -14.500   3.686  1.00  0.00    -0.318 N 
HETATM    2  C   UNL     1      42.912 -14.152   3.960  1.00  0.00     0.314 C 
HETATM    3  O   UNL     1      43.634 -13.346   3.393  1.00  0.00    -0.262 OA
HETATM    4  H   UNL     1      41.229 -15.186   4.337  1.00  0.00     0.169 HD
ENDROOT
BRANCH   2   5
HETATM    5  C   UNL     1      43.466 -14.928   5.173  1.00  0.00     0.314 C 
HETATM    6  N   UNL     1      42.859 -16.147   5.339  1.00  0.00    -0.316 N 
HETATM    7  H   UNL     1      42.129 -16.412   4.670  1.00  0.00     0.169 HD
HETATM    8  O   UNL     1      44.354 -14.411   5.843  1.00  0.00    -0.262 OA
BRANCH   6   9
HETATM    9  C   UNL     1      43.132 -17.074   6.326  1.00  0.00     0.085 A 
HETATM   10  C   UNL     1      43.542 -18.434   6.125  1.00  0.00     0.133 A 
HETATM   11  N   UNL     1      43.725 -19.049   7.310  1.00  0.00    -0.171 NA
HETATM   12  N   UNL     1      43.432 -18.108   8.223  1.00  0.00    -0.286 N 
HETATM   13  H   UNL     1      43.500 -18.355   9.204  1.00  0.00     0.188 HD
HETATM   14  C   UNL     1      43.076 -16.910   7.686  1.00  0.00     0.141 A 
BRANCH  10  15
HETATM   15  C   UNL     1      43.752 -19.108   4.834  1.00  0.00     0.089 A 
HETATM   16  N   UNL     1      43.002 -18.652   3.790  1.00  0.00    -0.259 NA
HETATM   17  C   UNL     1      43.174 -19.256   2.594  1.00  0.00     0.117 A 
HETATM   18  C   UNL     1      44.064 -20.294   2.377  1.00  0.00     0.019 A 
HETATM   19  C   UNL     1      44.824 -20.746   3.449  1.00  0.00     0.004 A 
HETATM   20  C   UNL     1      44.668 -20.147   4.698  1.00  0.00     0.034 A 
ENDBRANCH  10  15
ENDBRANCH   6   9
ENDBRANCH   2   5
BRANCH   1  21
HETATM   21  C   UNL     1      40.773 -14.039   2.647  1.00  0.00     0.042 A 
HETATM   22  C   UNL     1      39.710 -13.165   2.968  1.00  0.00    -0.035 A 
HETATM   23  C   UNL     1      39.448 -12.702   4.377  1.00  0.00     0.050 C 
HETATM   24  C   UNL     1      38.852 -12.717   1.948  1.00  0.00     0.010 A 
HETATM   25  C   UNL     1      39.042 -13.116   0.626  1.00  0.00     0.017 A 
HETATM   26  C   UNL     1      40.105 -13.963   0.301  1.00  0.00     0.034 A 
HETATM   27  C   UNL     1      40.956 -14.428   1.315  1.00  0.00     0.047 A 
BRANCH  26  28
HETATM   28  C   UNL     1      40.341 -14.429  -1.095  1.00  0.00     0.252 C 
HETATM   29  N   UNL     1      39.232 -14.481  -1.919  1.00  0.00    -0.352 N 
HETATM   30  H   UNL     1      38.367 -14.056  -1.613  1.00  0.00     0.163 HD
HETATM   31  O   UNL     1      41.475 -14.720  -1.461  1.00  0.00    -0.268 OA
BRANCH  29  32
HETATM   32  C   UNL     1      39.332 -14.866  -3.292  1.00  0.00     0.084 A 
HETATM   33  C   UNL     1      39.409 -16.315  -3.682  1.00  0.00     0.027 A 
HETATM   34  C   UNL     1      38.170 -15.525  -3.983  1.00  0.00     0.027 A 
ENDBRANCH  29  32
ENDBRANCH  26  28
ENDBRANCH   1  21
TORSDOF 6
ENDMDL
MODEL 6
REMARK VINA RESULT:      -8.3      2.163      3.614
REMARK  6 active torsions:
REMARK  status: ('A' for Active; 'I' for Inactive)
REMARK    1  A    between atoms: C_3  and  N_4 
REMARK       I    between atoms: N_4  and  C_5 
REMARK    2  A    between atoms: C_5  and  C_6 
REMARK       I    between atoms: C_6  and  N_7 
REMARK    3  A    between atoms: N_7  and  C_8 
REMARK    4  A    between atoms: C_9  and  C_10 
REMARK    5  A    between atoms: C_23  and  C_24 
REMARK       I    between atoms: C_24  and  N_25 
REMARK    6  A    between atoms: N_25  and  C_26 
ROOT
HETATM    1  N   UNL     1      40.746 -14.671   4.611  1.00  0.00    -0.318 N 
HETATM    2  C   UNL     1      41.550 -13.730   5.222  1.00  0.00     0.314 C 
HETATM    3  O   UNL     1      42.745 -13.522   5.079  1.00  0.00    -0.262 OA
HETATM    4  H   UNL     1      39.771 -14.611   4.895  1.00  0.00     0.169 HD
ENDROOT
BRANCH   2   5
HETATM    5  C   UNL     1      40.750 -12.850   6.206  1.00  0.00     0.314 C 
HETATM    6  N   UNL     1      41.486 -11.799   6.688  1.00  0.00    -0.316 N 
HETATM    7  H   UNL     1      42.454 -11.704   6.363  1.00  0.00     0.169 HD
HETATM    8  O   UNL     1      39.588 -13.156   6.452  1.00  0.00    -0.262 OA
BRANCH   6   9
HETATM    9  C   UNL     1      41.058 -10.835   7.579  1.00  0.00     0.085 A 
HETATM   10  C   UNL     1      41.713 -10.449   8.795  1.00  0.00     0.133 A 
HETATM   11  N   UNL     1      41.018  -9.474   9.415  1.00  0.00    -0.171 NA
HETATM   12  N   UNL     1      39.959  -9.262   8.616  1.00  0.00    -0.286 N 
HETATM   13  H   UNL     1      39.284  -8.556   8.893  1.00  0.00     0.188 HD
HETATM   14  C   UNL     1      39.938 -10.046   7.505  1.00  0.00     0.141 A 
BRANCH  10  15
HETATM   15  C   UNL     1      42.966 -11.001   9.333  1.00  0.00     0.089 A 
HETATM   16  N   UNL     1      43.841 -11.505   8.417  1.00  0.00    -0.259 NA
HETATM   17  C   UNL     1      44.999 -12.021   8.885  1.00  0.00     0.117 A 
HETATM   18  C   UNL     1      45.338 -12.058  10.226  1.00  0.00     0.019 A 
HETATM   19  C   UNL     1      44.437 -11.538  11.148  1.00  0.00     0.004 A 
HETATM   20  C   UNL     1      43.232 -11.002  10.699  1.00  0.00     0.034 A 
ENDBRANCH  10  15
ENDBRANCH   6   9
ENDBRANCH   2   5
BRANCH   1  21
HETATM   21  C   UNL     1      41.111 -15.668   3.685  1.00  0.00     0.042 A 
HETATM   22  C   UNL     1      40.410 -15.745   2.460  1.00  0.00    -0.035 A 
HETATM   23  C   UNL     1      39.300 -14.788   2.108  1.00  0.00     0.050 C 
HETATM   24  C   UNL     1      40.741 -16.750   1.536  1.00  0.00     0.010 A 
HETATM   25  C   UNL     1      41.756 -17.667   1.808  1.00  0.00     0.017 A 
HETATM   26  C   UNL     1      42.465 -17.582   3.009  1.00  0.00     0.034 A 
HETATM   27  C   UNL     1      42.131 -16.591   3.944  1.00  0.00     0.047 A 
BRANCH  26  28
HETATM   28  C   UNL     1      43.549 -18.547   3.352  1.00  0.00     0.252 C 
HETATM   29  N   UNL     1      43.660 -19.658   2.535  1.00  0.00    -0.352 N 
HETATM   30  H   UNL     1      43.139 -19.691   1.669  1.00  0.00     0.163 HD
HETATM   31  O   UNL     1      44.294 -18.322   4.300  1.00  0.00    -0.268 OA
BRANCH  29  32
HETATM   32  C   UNL     1      44.686 -20.634   2.729  1.00  0.00     0.084 A 
HETATM   33  C   UNL     1      44.414 -21.896   3.498  1.00  0.00     0.027 A 
HETATM   34  C   UNL     1      44.623 -21.955   2.014  1.00  0.00     0.027 A 
ENDBRANCH  29  32
ENDBRANCH  26  28
ENDBRANCH   1  21
TORSDOF 6
ENDMDL
MODEL 7
REMARK VINA RESULT:      -8.3      5.243      9.071
REMARK  6 active torsions:
REMARK  status: ('A' for Active; 'I' for Inactive)
REMARK    1  A    between atoms: C_3  and  N_4 
REMARK       I    between atoms: N_4  and  C_5 
REMARK    2  A    between atoms: C_5  and  C_6 
REMARK       I    between atoms: C_6  and  N_7 
REMARK    3  A    between atoms: N_7  and  C_8 
REMARK    4  A    between atoms: C_9  and  C_10 
REMARK    5  A    between atoms: C_23  and  C_24 
REMARK       I    between atoms: C_24  and  N_25 
REMARK    6  A    between atoms: N_25  and  C_26 
ROOT
HETATM    1  N   UNL     1      41.945 -15.296   2.528  1.00  0.00    -0.318 N 
HETATM    2  C   UNL     1      41.125 -16.362   2.838  1.00  0.00     0.314 C 
HETATM    3  O   UNL     1      40.083 -16.717   2.309  1.00  0.00    -0.262 OA
HETATM    4  H   UNL     1      42.772 -15.243   3.117  1.00  0.00     0.169 HD
ENDROOT
BRANCH   2   5
HETATM    5  C   UNL     1      41.676 -17.177   4.028  1.00  0.00     0.314 C 
HETATM    6  N   UNL     1      43.038 -17.075   4.148  1.00  0.00    -0.316 N 
HETATM    7  H   UNL     1      43.537 -16.493   3.467  1.00  0.00     0.169 HD
HETATM    8  O   UNL     1      40.885 -17.807   4.721  1.00  0.00    -0.262 OA
BRANCH   6   9
HETATM    9  C   UNL     1      43.826 -17.680   5.108  1.00  0.00     0.085 A 
HETATM   10  C   UNL     1      44.396 -18.994   5.035  1.00  0.00     0.133 A 
HETATM   11  N   UNL     1      45.112 -19.258   6.146  1.00  0.00    -0.171 NA
HETATM   12  N   UNL     1      44.990 -18.147   6.892  1.00  0.00    -0.286 N 
HETATM   13  H   UNL     1      45.455 -18.122   7.793  1.00  0.00     0.188 HD
HETATM   14  C   UNL     1      44.235 -17.174   6.315  1.00  0.00     0.141 A 
BRANCH  10  15
HETATM   15  C   UNL     1      44.253 -19.955   3.930  1.00  0.00     0.089 A 
HETATM   16  N   UNL     1      43.695 -19.472   2.784  1.00  0.00    -0.259 NA
HETATM   17  C   UNL     1      43.551 -20.335   1.754  1.00  0.00     0.117 A 
HETATM   18  C   UNL     1      43.940 -21.663   1.803  1.00  0.00     0.019 A 
HETATM   19  C   UNL     1      44.509 -22.140   2.977  1.00  0.00     0.004 A 
HETATM   20  C   UNL     1      44.669 -21.277   4.060  1.00  0.00     0.034 A 
ENDBRANCH  10  15
ENDBRANCH   6   9
ENDBRANCH   2   5
BRANCH   1  21
HETATM   21  C   UNL     1      41.766 -14.311   1.536  1.00  0.00     0.042 A 
HETATM   22  C   UNL     1      41.808 -12.951   1.916  1.00  0.00    -0.035 A 
HETATM   23  C   UNL     1      42.052 -12.521   3.340  1.00  0.00     0.050 C 
HETATM   24  C   UNL     1      41.604 -11.955   0.945  1.00  0.00     0.010 A 
HETATM   25  C   UNL     1      41.370 -12.292  -0.388  1.00  0.00     0.017 A 
HETATM   26  C   UNL     1      41.348 -13.636  -0.771  1.00  0.00     0.034 A 
HETATM   27  C   UNL     1      41.535 -14.636   0.194  1.00  0.00     0.047 A 
BRANCH  26  28
HETATM   28  C   UNL     1      41.087 -14.047  -2.180  1.00  0.00     0.252 C 
HETATM   29  N   UNL     1      39.850 -14.611  -2.434  1.00  0.00    -0.352 N 
HETATM   30  H   UNL     1      39.130 -14.569  -1.724  1.00  0.00     0.163 HD
HETATM   31  O   UNL     1      41.939 -13.859  -3.042  1.00  0.00    -0.268 OA
BRANCH  29  32
HETATM   32  C   UNL     1      39.459 -15.005  -3.751  1.00  0.00     0.084 A 
HETATM   33  C   UNL     1      39.043 -16.420  -4.041  1.00  0.00     0.027 A 
HETATM   34  C   UNL     1      38.020 -15.323  -4.053  1.00  0.00     0.027 A 
ENDBRANCH  29  32
ENDBRANCH  26  28
ENDBRANCH   1  21
TORSDOF 6
ENDMDL
MODEL 8
REMARK VINA RESULT:      -8.3      2.909      9.655
REMARK  6 active torsions:
REMARK  status: ('A' for Active; 'I' for Inactive)
REMARK    1  A    between atoms: C_3  and  N_4 
REMARK       I    between atoms: N_4  and  C_5 
REMARK    2  A    between atoms: C_5  and  C_6 
REMARK       I    between atoms: C_6  and  N_7 
REMARK    3  A    between atoms: N_7  and  C_8 
REMARK    4  A    between atoms: C_9  and  C_10 
REMARK    5  A    between atoms: C_23  and  C_24 
REMARK       I    between atoms: C_24  and  N_25 
REMARK    6  A    between atoms: N_25  and  C_26 
ROOT
HETATM    1  N   UNL     1      43.728 -12.570   7.611  1.00  0.00    -0.318 N 
HETATM    2  C   UNL     1      42.629 -12.344   6.807  1.00  0.00     0.314 C 
HETATM    3  O   UNL     1      41.757 -11.495   6.909  1.00  0.00    -0.262 OA
HETATM    4  H   UNL     1      44.314 -13.334   7.282  1.00  0.00     0.169 HD
ENDROOT
BRANCH   2   5
HETATM    5  C   UNL     1      42.568 -13.342   5.632  1.00  0.00     0.314 C 
HETATM    6  N   UNL     1      41.507 -14.206   5.731  1.00  0.00    -0.316 N 
HETATM    7  H   UNL     1      40.886 -14.109   6.541  1.00  0.00     0.169 HD
HETATM    8  O   UNL     1      43.428 -13.273   4.761  1.00  0.00    -0.262 OA
BRANCH   6   9
HETATM    9  C   UNL     1      41.178 -15.209   4.841  1.00  0.00     0.085 A 
HETATM   10  C   UNL     1      41.684 -16.551   4.846  1.00  0.00     0.133 A 
HETATM   11  N   UNL     1      41.144 -17.261   3.836  1.00  0.00    -0.171 NA
HETATM   12  N   UNL     1      40.331 -16.391   3.215  1.00  0.00    -0.286 N 
HETATM   13  H   UNL     1      39.812 -16.714   2.406  1.00  0.00     0.188 HD
HETATM   14  C   UNL     1      40.313 -15.153   3.778  1.00  0.00     0.141 A 
BRANCH  10  15
HETATM   15  C   UNL     1      42.652 -17.122   5.797  1.00  0.00     0.089 A 
HETATM   16  N   UNL     1      42.379 -16.931   7.119  1.00  0.00    -0.259 NA
HETATM   17  C   UNL     1      43.253 -17.444   8.012  1.00  0.00     0.117 A 
HETATM   18  C   UNL     1      44.391 -18.147   7.658  1.00  0.00     0.019 A 
HETATM   19  C   UNL     1      44.655 -18.337   6.307  1.00  0.00     0.004 A 
HETATM   20  C   UNL     1      43.776 -17.817   5.359  1.00  0.00     0.034 A 
ENDBRANCH  10  15
ENDBRANCH   6   9
ENDBRANCH   2   5
BRANCH   1  21
HETATM   21  C   UNL     1      44.108 -11.896   8.788  1.00  0.00     0.042 A 
HETATM   22  C   UNL     1      45.485 -11.724   9.056  1.00  0.00    -0.035 A 
HETATM   23  C   UNL     1      46.555 -12.223   8.120  1.00  0.00     0.050 C 
HETATM   24  C   UNL     1      45.883 -11.079  10.240  1.00  0.00     0.010 A 
HETATM   25  C   UNL     1      44.939 -10.600  11.147  1.00  0.00     0.017 A 
HETATM   26  C   UNL     1      43.576 -10.750  10.876  1.00  0.00     0.034 A 
HETATM   27  C   UNL     1      43.169 -11.406   9.705  1.00  0.00     0.047 A 
BRANCH  26  28
HETATM   28  C   UNL     1      42.528 -10.268  11.820  1.00  0.00     0.252 C 
HETATM   29  N   UNL     1      42.981  -9.691  12.994  1.00  0.00    -0.352 N 
HETATM   30  H   UNL     1      43.962  -9.468  13.090  1.00  0.00     0.163 HD
HETATM   31  O   UNL     1      41.342 -10.375  11.529  1.00  0.00    -0.268 OA
BRANCH  29  32
HETATM   32  C   UNL     1      42.080  -9.148  13.961  1.00  0.00     0.084 A 
HETATM   33  C   UNL     1      41.464 -10.022  15.017  1.00  0.00     0.027 A 
HETATM   34  C   UNL     1      42.501  -9.007  15.397  1.00  0.00     0.027 A 
ENDBRANCH  29  32
ENDBRANCH  26  28
ENDBRANCH   1  21
TORSDOF 6
ENDMDL
MODEL 9
REMARK VINA RESULT:      -8.2      5.957      8.167
REMARK  6 active torsions:
REMARK  status: ('A' for Active; 'I' for Inactive)
REMARK    1  A    between atoms: C_3  and  N_4 
REMARK       I    between atoms: N_4  and  C_5 
REMARK    2  A    between atoms: C_5  and  C_6 
REMARK       I    between atoms: C_6  and  N_7 
REMARK    3  A    between atoms: N_7  and  C_8 
REMARK    4  A    between atoms: C_9  and  C_10 
REMARK    5  A    between atoms: C_23  and  C_24 
REMARK       I    between atoms: C_24  and  N_25 
REMARK    6  A    between atoms: N_25  and  C_26 
ROOT
HETATM    1  N   UNL     1      40.840 -15.866   2.515  1.00  0.00    -0.318 N 
HETATM    2  C   UNL     1      41.441 -15.477   1.335  1.00  0.00     0.314 C 
HETATM    3  O   UNL     1      42.595 -15.632   0.966  1.00  0.00    -0.262 OA
HETATM    4  H   UNL     1      39.851 -15.632   2.557  1.00  0.00     0.169 HD
ENDROOT
BRANCH   2   5
HETATM    5  C   UNL     1      40.447 -14.755   0.401  1.00  0.00     0.314 C 
HETATM    6  N   UNL     1      40.942 -14.594  -0.868  1.00  0.00    -0.316 N 
HETATM    7  H   UNL     1      41.883 -14.952  -1.063  1.00  0.00     0.169 HD
HETATM    8  O   UNL     1      39.361 -14.412   0.855  1.00  0.00    -0.262 OA
BRANCH   6   9
HETATM    9  C   UNL     1      40.299 -13.992  -1.931  1.00  0.00     0.085 A 
HETATM   10  C   UNL     1      40.504 -12.653  -2.402  1.00  0.00     0.133 A 
HETATM   11  N   UNL     1      39.710 -12.400  -3.462  1.00  0.00    -0.171 NA
HETATM   12  N   UNL     1      39.026 -13.541  -3.644  1.00  0.00    -0.286 N 
HETATM   13  H   UNL     1      38.353 -13.581  -4.402  1.00  0.00     0.188 HD
HETATM   14  C   UNL     1      39.343 -14.524  -2.758  1.00  0.00     0.141 A 
BRANCH  10  15
HETATM   15  C   UNL     1      41.437 -11.659  -1.848  1.00  0.00     0.089 A 
HETATM   16  N   UNL     1      41.314 -11.398  -0.515  1.00  0.00    -0.259 NA
HETATM   17  C   UNL     1      42.156 -10.487   0.019  1.00  0.00     0.117 A 
HETATM   18  C   UNL     1      43.128  -9.820  -0.708  1.00  0.00     0.019 A 
HETATM   19  C   UNL     1      43.243 -10.097  -2.064  1.00  0.00     0.004 A 
HETATM   20  C   UNL     1      42.386 -11.029  -2.647  1.00  0.00     0.034 A 
ENDBRANCH  10  15
ENDBRANCH   6   9
ENDBRANCH   2   5
BRANCH   1  21
HETATM   21  C   UNL     1      41.419 -16.516   3.623  1.00  0.00     0.042 A 
HETATM   22  C   UNL     1      41.110 -16.050   4.920  1.00  0.00    -0.035 A 
HETATM   23  C   UNL     1      40.172 -14.894   5.157  1.00  0.00     0.050 C 
HETATM   24  C   UNL     1      41.701 -16.668   6.036  1.00  0.00     0.010 A 
HETATM   25  C   UNL     1      42.581 -17.739   5.879  1.00  0.00     0.017 A 
HETATM   26  C   UNL     1      42.873 -18.216   4.599  1.00  0.00     0.034 A 
HETATM   27  C   UNL     1      42.300 -17.595   3.479  1.00  0.00     0.047 A 
BRANCH  26  28
HETATM   28  C   UNL     1      43.817 -19.348   4.378  1.00  0.00     0.252 C 
HETATM   29  N   UNL     1      43.841 -19.886   3.104  1.00  0.00    -0.352 N 
HETATM   30  H   UNL     1      43.366 -19.403   2.353  1.00  0.00     0.163 HD
HETATM   31  O   UNL     1      44.532 -19.739   5.295  1.00  0.00    -0.268 OA
BRANCH  29  32
HETATM   32  C   UNL     1      44.734 -20.944   2.751  1.00  0.00     0.084 A 
HETATM   33  C   UNL     1      44.446 -22.363   3.153  1.00  0.00     0.027 A 
HETATM   34  C   UNL     1      44.339 -21.958   1.713  1.00  0.00     0.027 A 
ENDBRANCH  29  32
ENDBRANCH  26  28
ENDBRANCH   1  21
TORSDOF 6
ENDMDL
MODEL 10
REMARK VINA RESULT:      -8.2      1.550      1.996
REMARK  6 active torsions:
REMARK  status: ('A' for Active; 'I' for Inactive)
REMARK    1  A    between atoms: C_3  and  N_4 
REMARK       I    between atoms: N_4  and  C_5 
REMARK    2  A    between atoms: C_5  and  C_6 
REMARK       I    between atoms: C_6  and  N_7 
REMARK    3  A    between atoms: N_7  and  C_8 
REMARK    4  A    between atoms: C_9  and  C_10 
REMARK    5  A    between atoms: C_23  and  C_24 
REMARK       I    between atoms: C_24  and  N_25 
REMARK    6  A    between atoms: N_25  and  C_26 
ROOT
HETATM    1  N   UNL     1      43.753 -13.164   7.438  1.00  0.00    -0.318 N 
HETATM    2  C   UNL     1      44.913 -12.799   8.089  1.00  0.00     0.314 C 
HETATM    3  O   UNL     1      46.036 -13.271   7.994  1.00  0.00    -0.262 OA
HETATM    4  H   UNL     1      42.955 -12.583   7.686  1.00  0.00     0.169 HD
ENDROOT
BRANCH   2   5
HETATM    5  C   UNL     1      44.679 -11.616   9.052  1.00  0.00     0.314 C 
HETATM    6  N   UNL     1      43.458 -11.680   9.674  1.00  0.00    -0.316 N 
HETATM    7  H   UNL     1      42.848 -12.472   9.450  1.00  0.00     0.169 HD
HETATM    8  O   UNL     1      45.560 -10.772   9.167  1.00  0.00    -0.262 OA
BRANCH   6   9
HETATM    9  C   UNL     1      42.954 -10.777  10.590  1.00  0.00     0.085 A 
HETATM   10  C   UNL     1      41.937  -9.796  10.346  1.00  0.00     0.133 A 
HETATM   11  N   UNL     1      41.688  -9.088  11.465  1.00  0.00    -0.171 NA
HETATM   12  N   UNL     1      42.526  -9.605  12.379  1.00  0.00    -0.286 N 
HETATM   13  H   UNL     1      42.514  -9.215  13.315  1.00  0.00     0.188 HD
HETATM   14  C   UNL     1      43.302 -10.618  11.907  1.00  0.00     0.141 A 
BRANCH  10  15
HETATM   15  C   UNL     1      41.232  -9.557   9.076  1.00  0.00     0.089 A 
HETATM   16  N   UNL     1      42.006  -9.540   7.954  1.00  0.00    -0.259 NA
HETATM   17  C   UNL     1      41.384  -9.320   6.775  1.00  0.00     0.117 A 
HETATM   18  C   UNL     1      40.019  -9.120   6.652  1.00  0.00     0.019 A 
HETATM   19  C   UNL     1      39.243  -9.143   7.804  1.00  0.00     0.004 A 
HETATM   20  C   UNL     1      39.854  -9.363   9.036  1.00  0.00     0.034 A 
ENDBRANCH  10  15
ENDBRANCH   6   9
ENDBRANCH   2   5
BRANCH   1  21
HETATM   21  C   UNL     1      43.556 -14.210   6.515  1.00  0.00     0.042 A 
HETATM   22  C   UNL     1      42.695 -13.991   5.416  1.00  0.00    -0.035 A 
HETATM   23  C   UNL     1      41.996 -12.675   5.192  1.00  0.00     0.050 C 
HETATM   24  C   UNL     1      42.465 -15.032   4.500  1.00  0.00     0.010 A 
HETATM   25  C   UNL     1      43.081 -16.274   4.657  1.00  0.00     0.017 A 
HETATM   26  C   UNL     1      43.948 -16.487   5.731  1.00  0.00     0.034 A 
HETATM   27  C   UNL     1      44.172 -15.459   6.659  1.00  0.00     0.047 A 
BRANCH  26  28
HETATM   28  C   UNL     1      44.619 -17.801   5.951  1.00  0.00     0.252 C 
HETATM   29  N   UNL     1      44.500 -18.727   4.930  1.00  0.00    -0.352 N 
HETATM   30  H   UNL     1      44.126 -18.436   4.037  1.00  0.00     0.163 HD
HETATM   31  O   UNL     1      45.251 -18.002   6.982  1.00  0.00    -0.268 OA
BRANCH  29  32
HETATM   32  C   UNL     1      45.134 -20.006   4.997  1.00  0.00     0.084 A 
HETATM   33  C   UNL     1      44.408 -21.200   5.548  1.00  0.00     0.027 A 
HETATM   34  C   UNL     1      44.704 -21.117   4.080  1.00  0.00     0.027 A 
ENDBRANCH  29  32
ENDBRANCH  26  28
ENDBRANCH   1  21
TORSDOF 6
ENDMDL
