MODEL 1
REMARK VINA RESULT:      -8.2      0.000      0.000
REMARK  7 active torsions:
REMARK  status: ('A' for Active; 'I' for Inactive)
REMARK    1  A    between atoms: C_2  and  C_3 
REMARK    2  A    between atoms: C_3  and  C_4 
REMARK    3  A    between atoms: C_8  and  C_9 
REMARK       I    between atoms: C_9  and  N_10 
REMARK    4  A    between atoms: N_10  and  C_11 
REMARK    5  A    between atoms: C_12  and  O_13 
REMARK    6  A    between atoms: O_13  and  C_14 
REMARK    7  A    between atoms: C_14  and  C_15 
ROOT
HETATM    1  C   UNL     1      41.443 -15.599   3.588  1.00  0.00     0.113 C 
HETATM    2  C   UNL     1      41.255 -17.133   3.732  1.00  0.00     0.144 C 
HETATM    3  C   UNL     1      41.560 -17.572   5.169  1.00  0.00     0.034 C 
HETATM    4  C   UNL     1      40.712 -16.820   6.189  1.00  0.00     0.003 C 
HETATM    5  C   UNL     1      40.843 -15.310   6.029  1.00  0.00     0.002 C 
HETATM    6  C   UNL     1      40.549 -14.865   4.600  1.00  0.00     0.028 C 
ENDROOT
BRANCH   1   7
HETATM    7  N   UNL     1      41.170 -15.184   2.210  1.00  0.00    -0.349 N 
HETATM    8  C   UNL     1      41.922 -14.219   1.580  1.00  0.00     0.270 C 
HETATM    9  O   UNL     1      42.761 -13.538   2.161  1.00  0.00    -0.266 OA
HETATM   10  H   UNL     1      40.769 -15.900   1.616  1.00  0.00     0.163 HD
BRANCH   8  11
HETATM   11  C   UNL     1      41.676 -14.073   0.170  1.00  0.00     0.119 A 
HETATM   12  N   UNL     1      42.021 -12.925  -0.494  1.00  0.00    -0.273 N 
HETATM   13  N   UNL     1      41.735 -12.941  -1.805  1.00  0.00    -0.179 NA
HETATM   14  H   UNL     1      42.459 -12.101  -0.093  1.00  0.00     0.189 HD
HETATM   15  C   UNL     1      41.174 -14.140  -1.998  1.00  0.00     0.057 A 
HETATM   16  C   UNL     1      41.107 -14.882  -0.794  1.00  0.00     0.065 A 
BRANCH  15  17
HETATM   17  C   UNL     1      40.704 -14.543  -3.356  1.00  0.00     0.061 C 
BRANCH  17  18
HETATM   18  C   UNL     1      40.108 -15.953  -3.401  1.00  0.00     0.002 C 
HETATM   19  C   UNL     1      38.848 -16.043  -4.251  1.00  0.00     0.005 C 
ENDBRANCH  17  18
ENDBRANCH  15  17
ENDBRANCH   8  11
ENDBRANCH   1   7
BRANCH   2  20
HETATM   20  O   UNL     1      42.131 -17.768   2.786  1.00  0.00    -0.379 OA
BRANCH  20  21
HETATM   21  C   UNL     1      43.447 -18.004   3.289  1.00  0.00     0.206 C 
BRANCH  21  22
HETATM   22  C   UNL     1      43.848 -19.453   3.140  1.00  0.00    -0.035 A 
HETATM   23  C   UNL     1      44.499 -20.161   4.160  1.00  0.00     0.009 A 
HETATM   24  C   UNL     1      44.813 -21.513   3.999  1.00  0.00     0.001 A 
HETATM   25  C   UNL     1      44.472 -22.175   2.821  1.00  0.00     0.000 A 
HETATM   26  C   UNL     1      43.816 -21.487   1.803  1.00  0.00     0.001 A 
HETATM   27  C   UNL     1      43.504 -20.136   1.962  1.00  0.00     0.009 A 
ENDBRANCH  21  22
ENDBRANCH  20  21
ENDBRANCH   2  20
TORSDOF 7
ENDMDL
MODEL 2
REMARK VINA RESULT:      -7.7      3.207      6.740
REMARK  7 active torsions:
REMARK  status: ('A' for Active; 'I' for Inactive)
REMARK    1  A    between atoms: C_2  and  C_3 
REMARK    2  A    between atoms: C_3  and  C_4 
REMARK    3  A    between atoms: C_8  and  C_9 
REMARK       I    between atoms: C_9  and  N_10 
REMARK    4  A    between atoms: N_10  and  C_11 
REMARK    5  A    between atoms: C_12  and  O_13 
REMARK    6  A    between atoms: O_13  and  C_14 
REMARK    7  A    between atoms: C_14  and  C_15 
ROOT
HETATM    1  C   UNL     1      41.630 -15.220   2.471  1.00  0.00     0.113 C 
HETATM    2  C   UNL     1      42.591 -15.920   1.474  1.00  0.00     0.144 C 
HETATM    3  C   UNL     1      41.810 -16.442   0.261  1.00  0.00     0.034 C 
HETATM    4  C   UNL     1      41.018 -15.335  -0.427  1.00  0.00     0.003 C 
HETATM    5  C   UNL     1      40.106 -14.601   0.547  1.00  0.00     0.002 C 
HETATM    6  C   UNL     1      40.875 -14.085   1.761  1.00  0.00     0.028 C 
ENDROOT
BRANCH   1   7
HETATM    7  N   UNL     1      42.375 -14.739   3.637  1.00  0.00    -0.349 N 
HETATM    8  C   UNL     1      42.018 -15.086   4.920  1.00  0.00     0.270 C 
HETATM    9  O   UNL     1      40.980 -15.684   5.189  1.00  0.00    -0.266 OA
HETATM   10  H   UNL     1      43.359 -14.564   3.478  1.00  0.00     0.163 HD
BRANCH   8  11
HETATM   11  C   UNL     1      42.963 -14.719   5.940  1.00  0.00     0.119 A 
HETATM   12  N   UNL     1      43.342 -15.610   6.909  1.00  0.00    -0.273 N 
HETATM   13  N   UNL     1      44.234 -15.123   7.786  1.00  0.00    -0.179 NA
HETATM   14  H   UNL     1      43.019 -16.568   7.012  1.00  0.00     0.189 HD
HETATM   15  C   UNL     1      44.435 -13.866   7.377  1.00  0.00     0.057 A 
HETATM   16  C   UNL     1      43.657 -13.562   6.233  1.00  0.00     0.065 A 
BRANCH  15  17
HETATM   17  C   UNL     1      45.377 -12.974   8.114  1.00  0.00     0.061 C 
BRANCH  17  18
HETATM   18  C   UNL     1      44.675 -11.890   8.935  1.00  0.00     0.002 C 
HETATM   19  C   UNL     1      45.604 -11.185   9.914  1.00  0.00     0.005 C 
ENDBRANCH  17  18
ENDBRANCH  15  17
ENDBRANCH   8  11
ENDBRANCH   1   7
BRANCH   2  20
HETATM   20  O   UNL     1      43.248 -16.985   2.179  1.00  0.00    -0.379 OA
BRANCH  20  21
HETATM   21  C   UNL     1      42.499 -18.201   2.212  1.00  0.00     0.206 C 
BRANCH  21  22
HETATM   22  C   UNL     1      43.351 -19.367   2.655  1.00  0.00    -0.035 A 
HETATM   23  C   UNL     1      44.064 -19.361   3.862  1.00  0.00     0.009 A 
HETATM   24  C   UNL     1      44.805 -20.477   4.257  1.00  0.00     0.001 A 
HETATM   25  C   UNL     1      44.837 -21.616   3.455  1.00  0.00     0.000 A 
HETATM   26  C   UNL     1      44.126 -21.641   2.257  1.00  0.00     0.001 A 
HETATM   27  C   UNL     1      43.387 -20.525   1.861  1.00  0.00     0.009 A 
ENDBRANCH  21  22
ENDBRANCH  20  21
ENDBRANCH   2  20
TORSDOF 7
ENDMDL
MODEL 3
REMARK VINA RESULT:      -7.7      1.629      2.229
REMARK  7 active torsions:
REMARK  status: ('A' for Active; 'I' for Inactive)
REMARK    1  A    between atoms: C_2  and  C_3 
REMARK    2  A    between atoms: C_3  and  C_4 
REMARK    3  A    between atoms: C_8  and  C_9 
REMARK       I    between atoms: C_9  and  N_10 
REMARK    4  A    between atoms: N_10  and  C_11 
REMARK    5  A    between atoms: C_12  and  O_13 
REMARK    6  A    between atoms: O_13  and  C_14 
REMARK    7  A    between atoms: C_14  and  C_15 
ROOT
HETATM    1  C   UNL     1      43.223 -15.820   4.987  1.00  0.00     0.113 C 
HETATM    2  C   UNL     1      42.665 -17.220   5.356  1.00  0.00     0.144 C 
HETATM    3  C   UNL     1      43.461 -17.818   6.522  1.00  0.00     0.034 C 
HETATM    4  C   UNL     1      43.473 -16.897   7.737  1.00  0.00     0.003 C 
HETATM    5  C   UNL     1      43.970 -15.500   7.383  1.00  0.00     0.002 C 
HETATM    6  C   UNL     1      43.187 -14.901   6.218  1.00  0.00     0.028 C 
ENDROOT
BRANCH   1   7
HETATM    7  N   UNL     1      42.473 -15.259   3.860  1.00  0.00    -0.349 N 
HETATM    8  C   UNL     1      42.988 -14.254   3.073  1.00  0.00     0.270 C 
HETATM    9  O   UNL     1      44.026 -13.657   3.343  1.00  0.00    -0.266 OA
HETATM   10  H   UNL     1      41.833 -15.899   3.407  1.00  0.00     0.163 HD
BRANCH   8  11
HETATM   11  C   UNL     1      42.235 -13.958   1.885  1.00  0.00     0.119 A 
HETATM   12  N   UNL     1      42.154 -12.680   1.397  1.00  0.00    -0.273 N 
HETATM   13  N   UNL     1      41.421 -12.563   0.278  1.00  0.00    -0.179 NA
HETATM   14  H   UNL     1      42.586 -11.851   1.795  1.00  0.00     0.189 HD
HETATM   15  C   UNL     1      41.003 -13.810   0.036  1.00  0.00     0.057 A 
HETATM   16  C   UNL     1      41.477 -14.717   1.015  1.00  0.00     0.065 A 
BRANCH  15  17
HETATM   17  C   UNL     1      40.138 -14.099  -1.146  1.00  0.00     0.061 C 
BRANCH  17  18
HETATM   18  C   UNL     1      40.726 -15.152  -2.089  1.00  0.00     0.002 C 
HETATM   19  C   UNL     1      41.475 -14.547  -3.268  1.00  0.00     0.005 C 
ENDBRANCH  17  18
ENDBRANCH  15  17
ENDBRANCH   8  11
ENDBRANCH   1   7
BRANCH   2  20
HETATM   20  O   UNL     1      42.746 -18.044   4.181  1.00  0.00    -0.379 OA
BRANCH  20  21
HETATM   21  C   UNL     1      44.082 -18.393   3.815  1.00  0.00     0.206 C 
BRANCH  21  22
HETATM   22  C   UNL     1      44.231 -19.883   3.613  1.00  0.00    -0.035 A 
HETATM   23  C   UNL     1      44.006 -20.499   2.375  1.00  0.00     0.009 A 
HETATM   24  C   UNL     1      44.198 -21.874   2.219  1.00  0.00     0.001 A 
HETATM   25  C   UNL     1      44.626 -22.648   3.296  1.00  0.00     0.000 A 
HETATM   26  C   UNL     1      44.865 -22.048   4.530  1.00  0.00     0.001 A 
HETATM   27  C   UNL     1      44.670 -20.675   4.688  1.00  0.00     0.009 A 
ENDBRANCH  21  22
ENDBRANCH  20  21
ENDBRANCH   2  20
TORSDOF 7
ENDMDL
MODEL 4
REMARK VINA RESULT:      -7.6      2.424      2.985
REMARK  7 active torsions:
REMARK  status: ('A' for Active; 'I' for Inactive)
REMARK    1  A    between atoms: C_2  and  C_3 
REMARK    2  A    between atoms: C_3  and  C_4 
REMARK    3  A    between atoms: C_8  and  C_9 
REMARK       I    between atoms: C_9  and  N_10 
REMARK    4  A    between atoms: N_10  and  C_11 
REMARK    5  A    between atoms: C_12  and  O_13 
REMARK    6  A    between atoms: O_13  and  C_14 
REMARK    7  A    between atoms: C_14  and  C_15 
ROOT
HETATM    1  C   UNL     1      42.942 -15.456   4.813  1.00  0.00     0.113 C 
HETATM    2  C   UNL     1      42.738 -16.900   5.342  1.00  0.00     0.144 C 
HETATM    3  C   UNL     1      43.922 -17.314   6.225  1.00  0.00     0.034 C 
HETATM    4  C   UNL     1      44.145 -16.337   7.374  1.00  0.00     0.003 C 
HETATM    5  C   UNL     1      44.296 -14.904   6.878  1.00  0.00     0.002 C 
HETATM    6  C   UNL     1      43.126 -14.487   5.992  1.00  0.00     0.028 C 
ENDROOT
BRANCH   1   7
HETATM    7  N   UNL     1      41.820 -15.070   3.954  1.00  0.00    -0.349 N 
HETATM    8  C   UNL     1      42.006 -14.355   2.793  1.00  0.00     0.270 C 
HETATM    9  O   UNL     1      43.085 -13.863   2.474  1.00  0.00    -0.266 OA
HETATM   10  H   UNL     1      41.028 -15.701   3.969  1.00  0.00     0.163 HD
BRANCH   8  11
HETATM   11  C   UNL     1      40.846 -14.237   1.951  1.00  0.00     0.119 A 
HETATM   12  N   UNL     1      40.956 -14.256   0.586  1.00  0.00    -0.273 N 
HETATM   13  N   UNL     1      39.785 -14.144  -0.062  1.00  0.00    -0.179 NA
HETATM   14  H   UNL     1      41.813 -14.347   0.048  1.00  0.00     0.189 HD
HETATM   15  C   UNL     1      38.883 -14.038   0.919  1.00  0.00     0.057 A 
HETATM   16  C   UNL     1      39.495 -14.082   2.195  1.00  0.00     0.065 A 
BRANCH  15  17
HETATM   17  C   UNL     1      37.434 -13.886   0.597  1.00  0.00     0.061 C 
BRANCH  17  18
HETATM   18  C   UNL     1      36.956 -12.432   0.605  1.00  0.00     0.002 C 
HETATM   19  C   UNL     1      37.253 -11.698  -0.696  1.00  0.00     0.005 C 
ENDBRANCH  17  18
ENDBRANCH  15  17
ENDBRANCH   8  11
ENDBRANCH   1   7
BRANCH   2  20
HETATM   20  O   UNL     1      42.599 -17.764   4.202  1.00  0.00    -0.379 OA
BRANCH  20  21
HETATM   21  C   UNL     1      43.832 -18.039   3.535  1.00  0.00     0.206 C 
BRANCH  21  22
HETATM   22  C   UNL     1      43.992 -19.514   3.247  1.00  0.00    -0.035 A 
HETATM   23  C   UNL     1      43.595 -20.088   2.032  1.00  0.00     0.009 A 
HETATM   24  C   UNL     1      43.800 -21.449   1.787  1.00  0.00     0.001 A 
HETATM   25  C   UNL     1      44.412 -22.248   2.751  1.00  0.00     0.000 A 
HETATM   26  C   UNL     1      44.821 -21.690   3.959  1.00  0.00     0.001 A 
HETATM   27  C   UNL     1      44.613 -20.331   4.206  1.00  0.00     0.009 A 
ENDBRANCH  21  22
ENDBRANCH  20  21
ENDBRANCH   2  20
TORSDOF 7
ENDMDL
MODEL 5
REMARK VINA RESULT:      -7.5      3.032      5.757
REMARK  7 active torsions:
REMARK  status: ('A' for Active; 'I' for Inactive)
REMARK    1  A    between atoms: C_2  and  C_3 
REMARK    2  A    between atoms: C_3  and  C_4 
REMARK    3  A    between atoms: C_8  and  C_9 
REMARK       I    between atoms: C_9  and  N_10 
REMARK    4  A    between atoms: N_10  and  C_11 
REMARK    5  A    between atoms: C_12  and  O_13 
REMARK    6  A    between atoms: O_13  and  C_14 
REMARK    7  A    between atoms: C_14  and  C_15 
ROOT
HETATM    1  C   UNL     1      42.799 -18.541   3.295  1.00  0.00     0.113 C 
HETATM    2  C   UNL     1      43.368 -18.524   4.738  1.00  0.00     0.144 C 
HETATM    3  C   UNL     1      44.009 -19.877   5.072  1.00  0.00     0.034 C 
HETATM    4  C   UNL     1      45.086 -20.262   4.065  1.00  0.00     0.003 C 
HETATM    5  C   UNL     1      44.560 -20.234   2.635  1.00  0.00     0.002 C 
HETATM    6  C   UNL     1      43.913 -18.894   2.297  1.00  0.00     0.028 C 
ENDROOT
BRANCH   1   7
HETATM    7  N   UNL     1      42.170 -17.255   2.985  1.00  0.00    -0.349 N 
HETATM    8  C   UNL     1      41.210 -17.133   2.006  1.00  0.00     0.270 C 
HETATM    9  O   UNL     1      40.925 -18.040   1.230  1.00  0.00    -0.266 OA
HETATM   10  H   UNL     1      42.102 -16.610   3.762  1.00  0.00     0.163 HD
BRANCH   8  11
HETATM   11  C   UNL     1      40.535 -15.863   1.964  1.00  0.00     0.119 A 
HETATM   12  N   UNL     1      39.168 -15.790   1.903  1.00  0.00    -0.273 N 
HETATM   13  N   UNL     1      38.685 -14.537   1.876  1.00  0.00    -0.179 NA
HETATM   14  H   UNL     1      38.519 -16.571   1.880  1.00  0.00     0.189 HD
HETATM   15  C   UNL     1      39.780 -13.770   1.911  1.00  0.00     0.057 A 
HETATM   16  C   UNL     1      40.961 -14.550   1.958  1.00  0.00     0.065 A 
BRANCH  15  17
HETATM   17  C   UNL     1      39.659 -12.282   1.890  1.00  0.00     0.061 C 
BRANCH  17  18
HETATM   18  C   UNL     1      38.364 -11.767   2.523  1.00  0.00     0.002 C 
HETATM   19  C   UNL     1      38.574 -11.154   3.900  1.00  0.00     0.005 C 
ENDBRANCH  17  18
ENDBRANCH  15  17
ENDBRANCH   8  11
ENDBRANCH   1   7
BRANCH   2  20
HETATM   20  O   UNL     1      42.283 -18.217   5.629  1.00  0.00    -0.379 OA
BRANCH  20  21
HETATM   21  C   UNL     1      42.590 -17.195   6.579  1.00  0.00     0.206 C 
BRANCH  21  22
HETATM   22  C   UNL     1      42.039 -15.855   6.151  1.00  0.00    -0.035 A 
HETATM   23  C   UNL     1      40.668 -15.631   5.963  1.00  0.00     0.009 A 
HETATM   24  C   UNL     1      40.195 -14.365   5.610  1.00  0.00     0.001 A 
HETATM   25  C   UNL     1      41.086 -13.306   5.448  1.00  0.00     0.000 A 
HETATM   26  C   UNL     1      42.450 -13.510   5.641  1.00  0.00     0.001 A 
HETATM   27  C   UNL     1      42.924 -14.775   5.992  1.00  0.00     0.009 A 
ENDBRANCH  21  22
ENDBRANCH  20  21
ENDBRANCH   2  20
TORSDOF 7
ENDMDL
MODEL 6
REMARK VINA RESULT:      -7.5      3.012      6.330
REMARK  7 active torsions:
REMARK  status: ('A' for Active; 'I' for Inactive)
REMARK    1  A    between atoms: C_2  and  C_3 
REMARK    2  A    between atoms: C_3  and  C_4 
REMARK    3  A    between atoms: C_8  and  C_9 
REMARK       I    between atoms: C_9  and  N_10 
REMARK    4  A    between atoms: N_10  and  C_11 
REMARK    5  A    between atoms: C_12  and  O_13 
REMARK    6  A    between atoms: O_13  and  C_14 
REMARK    7  A    between atoms: C_14  and  C_15 
ROOT
HETATM    1  C   UNL     1      40.007 -14.016   3.648  1.00  0.00     0.113 C 
HETATM    2  C   UNL     1      39.897 -14.324   2.131  1.00  0.00     0.144 C 
HETATM    3  C   UNL     1      38.656 -13.642   1.540  1.00  0.00     0.034 C 
HETATM    4  C   UNL     1      38.655 -12.139   1.795  1.00  0.00     0.003 C 
HETATM    5  C   UNL     1      38.814 -11.815   3.276  1.00  0.00     0.002 C 
HETATM    6  C   UNL     1      40.042 -12.496   3.874  1.00  0.00     0.028 C 
ENDROOT
BRANCH   1   7
HETATM    7  N   UNL     1      41.181 -14.684   4.215  1.00  0.00    -0.349 N 
HETATM    8  C   UNL     1      41.166 -15.233   5.477  1.00  0.00     0.270 C 
HETATM    9  O   UNL     1      40.240 -15.073   6.266  1.00  0.00    -0.266 OA
HETATM   10  H   UNL     1      41.792 -15.128   3.540  1.00  0.00     0.163 HD
BRANCH   8  11
HETATM   11  C   UNL     1      42.311 -16.037   5.810  1.00  0.00     0.119 A 
HETATM   12  N   UNL     1      43.017 -15.821   6.964  1.00  0.00    -0.273 N 
HETATM   13  N   UNL     1      44.055 -16.655   7.139  1.00  0.00    -0.179 NA
HETATM   14  H   UNL     1      42.826 -15.114   7.668  1.00  0.00     0.189 HD
HETATM   15  C   UNL     1      44.027 -17.435   6.053  1.00  0.00     0.057 A 
HETATM   16  C   UNL     1      42.962 -17.084   5.188  1.00  0.00     0.065 A 
BRANCH  15  17
HETATM   17  C   UNL     1      45.047 -18.509   5.870  1.00  0.00     0.061 C 
BRANCH  17  18
HETATM   18  C   UNL     1      44.442 -19.911   5.756  1.00  0.00     0.002 C 
HETATM   19  C   UNL     1      45.084 -20.752   4.662  1.00  0.00     0.005 C 
ENDBRANCH  17  18
ENDBRANCH  15  17
ENDBRANCH   8  11
ENDBRANCH   1   7
BRANCH   2  20
HETATM   20  O   UNL     1      39.839 -15.751   1.980  1.00  0.00    -0.379 OA
BRANCH  20  21
HETATM   21  C   UNL     1      40.581 -16.241   0.861  1.00  0.00     0.206 C 
BRANCH  21  22
HETATM   22  C   UNL     1      41.784 -17.043   1.300  1.00  0.00    -0.035 A 
HETATM   23  C   UNL     1      41.688 -18.383   1.700  1.00  0.00     0.009 A 
HETATM   24  C   UNL     1      42.831 -19.103   2.056  1.00  0.00     0.001 A 
HETATM   25  C   UNL     1      44.084 -18.495   2.008  1.00  0.00     0.000 A 
HETATM   26  C   UNL     1      44.197 -17.167   1.603  1.00  0.00     0.001 A 
HETATM   27  C   UNL     1      43.055 -16.446   1.250  1.00  0.00     0.009 A 
ENDBRANCH  21  22
ENDBRANCH  20  21
ENDBRANCH   2  20
TORSDOF 7
ENDMDL
MODEL 7
REMARK VINA RESULT:      -7.3      1.650      2.253
REMARK  7 active torsions:
REMARK  status: ('A' for Active; 'I' for Inactive)
REMARK    1  A    between atoms: C_2  and  C_3 
REMARK    2  A    between atoms: C_3  and  C_4 
REMARK    3  A    between atoms: C_8  and  C_9 
REMARK       I    between atoms: C_9  and  N_10 
REMARK    4  A    between atoms: N_10  and  C_11 
REMARK    5  A    between atoms: C_12  and  O_13 
REMARK    6  A    between atoms: O_13  and  C_14 
REMARK    7  A    between atoms: C_14  and  C_15 
ROOT
HETATM    1  C   UNL     1      41.967 -15.318   3.452  1.00  0.00     0.113 C 
HETATM    2  C   UNL     1      42.133 -16.812   3.835  1.00  0.00     0.144 C 
HETATM    3  C   UNL     1      42.141 -16.971   5.360  1.00  0.00     0.034 C 
HETATM    4  C   UNL     1      40.892 -16.378   6.003  1.00  0.00     0.003 C 
HETATM    5  C   UNL     1      40.682 -14.924   5.596  1.00  0.00     0.002 C 
HETATM    6  C   UNL     1      40.681 -14.756   4.079  1.00  0.00     0.028 C 
ENDROOT
BRANCH   1   7
HETATM    7  N   UNL     1      41.979 -15.166   1.995  1.00  0.00    -0.349 N 
HETATM    8  C   UNL     1      40.945 -15.620   1.208  1.00  0.00     0.270 C 
HETATM    9  O   UNL     1      40.026 -16.309   1.641  1.00  0.00    -0.266 OA
HETATM   10  H   UNL     1      42.484 -14.358   1.650  1.00  0.00     0.163 HD
BRANCH   8  11
HETATM   11  C   UNL     1      40.997 -15.211  -0.170  1.00  0.00     0.119 A 
HETATM   12  N   UNL     1      40.891 -16.126  -1.184  1.00  0.00    -0.273 N 
HETATM   13  N   UNL     1      40.950 -15.591  -2.415  1.00  0.00    -0.179 NA
HETATM   14  H   UNL     1      40.773 -17.130  -1.086  1.00  0.00     0.189 HD
HETATM   15  C   UNL     1      41.111 -14.283  -2.190  1.00  0.00     0.057 A 
HETATM   16  C   UNL     1      41.155 -13.995  -0.804  1.00  0.00     0.065 A 
BRANCH  15  17
HETATM   17  C   UNL     1      41.228 -13.330  -3.333  1.00  0.00     0.061 C 
BRANCH  17  18
HETATM   18  C   UNL     1      42.356 -12.309  -3.162  1.00  0.00     0.002 C 
HETATM   19  C   UNL     1      42.414 -11.288  -4.290  1.00  0.00     0.005 C 
ENDBRANCH  17  18
ENDBRANCH  15  17
ENDBRANCH   8  11
ENDBRANCH   1   7
BRANCH   2  20
HETATM   20  O   UNL     1      43.359 -17.277   3.247  1.00  0.00    -0.379 OA
BRANCH  20  21
HETATM   21  C   UNL     1      43.172 -18.266   2.233  1.00  0.00     0.206 C 
BRANCH  21  22
HETATM   22  C   UNL     1      43.674 -19.619   2.678  1.00  0.00    -0.035 A 
HETATM   23  C   UNL     1      43.610 -20.752   1.854  1.00  0.00     0.009 A 
HETATM   24  C   UNL     1      44.126 -21.976   2.286  1.00  0.00     0.001 A 
HETATM   25  C   UNL     1      44.721 -22.081   3.542  1.00  0.00     0.000 A 
HETATM   26  C   UNL     1      44.801 -20.962   4.368  1.00  0.00     0.001 A 
HETATM   27  C   UNL     1      44.283 -19.740   3.938  1.00  0.00     0.009 A 
ENDBRANCH  21  22
ENDBRANCH  20  21
ENDBRANCH   2  20
TORSDOF 7
ENDMDL
MODEL 8
REMARK VINA RESULT:      -7.1      2.813      4.375
REMARK  7 active torsions:
REMARK  status: ('A' for Active; 'I' for Inactive)
REMARK    1  A    between atoms: C_2  and  C_3 
REMARK    2  A    between atoms: C_3  and  C_4 
REMARK    3  A    between atoms: C_8  and  C_9 
REMARK       I    between atoms: C_9  and  N_10 
REMARK    4  A    between atoms: N_10  and  C_11 
REMARK    5  A    between atoms: C_12  and  O_13 
REMARK    6  A    between atoms: O_13  and  C_14 
REMARK    7  A    between atoms: C_14  and  C_15 
ROOT
HETATM    1  C   UNL     1      43.389 -16.781   6.130  1.00  0.00     0.113 C 
HETATM    2  C   UNL     1      43.594 -18.146   5.420  1.00  0.00     0.144 C 
HETATM    3  C   UNL     1      44.504 -19.050   6.261  1.00  0.00     0.034 C 
HETATM    4  C   UNL     1      43.967 -19.244   7.675  1.00  0.00     0.003 C 
HETATM    5  C   UNL     1      43.710 -17.913   8.370  1.00  0.00     0.002 C 
HETATM    6  C   UNL     1      42.811 -17.004   7.537  1.00  0.00     0.028 C 
ENDROOT
BRANCH   1   7
HETATM    7  N   UNL     1      42.536 -15.912   5.316  1.00  0.00    -0.349 N 
HETATM    8  C   UNL     1      42.974 -14.692   4.853  1.00  0.00     0.270 C 
HETATM    9  O   UNL     1      44.033 -14.182   5.206  1.00  0.00    -0.266 OA
HETATM   10  H   UNL     1      41.856 -16.392   4.740  1.00  0.00     0.163 HD
BRANCH   8  11
HETATM   11  C   UNL     1      42.111 -14.054   3.896  1.00  0.00     0.119 A 
HETATM   12  N   UNL     1      42.613 -13.500   2.748  1.00  0.00    -0.273 N 
HETATM   13  N   UNL     1      41.684 -12.948   1.951  1.00  0.00    -0.179 NA
HETATM   14  H   UNL     1      43.588 -13.477   2.462  1.00  0.00     0.189 HD
HETATM   15  C   UNL     1      40.538 -13.142   2.611  1.00  0.00     0.057 A 
HETATM   16  C   UNL     1      40.751 -13.821   3.836  1.00  0.00     0.065 A 
BRANCH  15  17
HETATM   17  C   UNL     1      39.247 -12.654   2.042  1.00  0.00     0.061 C 
BRANCH  17  18
HETATM   18  C   UNL     1      38.872 -13.326   0.719  1.00  0.00     0.002 C 
HETATM   19  C   UNL     1      37.588 -14.140   0.805  1.00  0.00     0.005 C 
ENDBRANCH  17  18
ENDBRANCH  15  17
ENDBRANCH   8  11
ENDBRANCH   1   7
BRANCH   2  20
HETATM   20  O   UNL     1      44.160 -17.881   4.126  1.00  0.00    -0.379 OA
BRANCH  20  21
HETATM   21  C   UNL     1      43.547 -18.622   3.069  1.00  0.00     0.206 C 
BRANCH  21  22
HETATM   22  C   UNL     1      42.660 -17.745   2.217  1.00  0.00    -0.035 A 
HETATM   23  C   UNL     1      43.134 -17.080   1.077  1.00  0.00     0.009 A 
HETATM   24  C   UNL     1      42.270 -16.313   0.290  1.00  0.00     0.001 A 
HETATM   25  C   UNL     1      40.923 -16.209   0.628  1.00  0.00     0.000 A 
HETATM   26  C   UNL     1      40.435 -16.871   1.753  1.00  0.00     0.001 A 
HETATM   27  C   UNL     1      41.298 -17.635   2.541  1.00  0.00     0.009 A 
ENDBRANCH  21  22
ENDBRANCH  20  21
ENDBRANCH   2  20
TORSDOF 7
ENDMDL
MODEL 9
REMARK VINA RESULT:      -7.0      2.807      6.640
REMARK  7 active torsions:
REMARK  status: ('A' for Active; 'I' for Inactive)
REMARK    1  A    between atoms: C_2  and  C_3 
REMARK    2  A    between atoms: C_3  and  C_4 
REMARK    3  A    between atoms: C_8  and  C_9 
REMARK       I    between atoms: C_9  and  N_10 
REMARK    4  A    between atoms: N_10  and  C_11 
REMARK    5  A    between atoms: C_12  and  O_13 
REMARK    6  A    between atoms: O_13  and  C_14 
REMARK    7  A    between atoms: C_14  and  C_15 
ROOT
HETATM    1  C   UNL     1      41.683 -14.113   5.561  1.00  0.00     0.113 C 
HETATM    2  C   UNL     1      40.917 -13.786   4.251  1.00  0.00     0.144 C 
HETATM    3  C   UNL     1      39.956 -12.612   4.477  1.00  0.00     0.034 C 
HETATM    4  C   UNL     1      40.676 -11.379   5.012  1.00  0.00     0.003 C 
HETATM    5  C   UNL     1      41.477 -11.693   6.270  1.00  0.00     0.002 C 
HETATM    6  C   UNL     1      42.430 -12.865   6.056  1.00  0.00     0.028 C 
ENDROOT
BRANCH   1   7
HETATM    7  N   UNL     1      42.586 -15.246   5.348  1.00  0.00    -0.349 N 
HETATM    8  C   UNL     1      42.331 -16.488   5.883  1.00  0.00     0.270 C 
HETATM    9  O   UNL     1      41.430 -16.699   6.689  1.00  0.00    -0.266 OA
HETATM   10  H   UNL     1      43.099 -15.231   4.474  1.00  0.00     0.163 HD
BRANCH   8  11
HETATM   11  C   UNL     1      43.186 -17.546   5.414  1.00  0.00     0.119 A 
HETATM   12  N   UNL     1      44.389 -17.804   6.016  1.00  0.00    -0.273 N 
HETATM   13  N   UNL     1      45.070 -18.824   5.470  1.00  0.00    -0.179 NA
HETATM   14  H   UNL     1      44.789 -17.310   6.808  1.00  0.00     0.189 HD
HETATM   15  C   UNL     1      44.283 -19.238   4.470  1.00  0.00     0.057 A 
HETATM   16  C   UNL     1      43.099 -18.466   4.388  1.00  0.00     0.065 A 
BRANCH  15  17
HETATM   17  C   UNL     1      44.703 -20.377   3.602  1.00  0.00     0.061 C 
BRANCH  17  18
HETATM   18  C   UNL     1      43.962 -20.428   2.263  1.00  0.00     0.002 C 
HETATM   19  C   UNL     1      43.921 -21.823   1.655  1.00  0.00     0.005 C 
ENDBRANCH  17  18
ENDBRANCH  15  17
ENDBRANCH   8  11
ENDBRANCH   1   7
BRANCH   2  20
HETATM   20  O   UNL     1      40.217 -14.974   3.849  1.00  0.00    -0.379 OA
BRANCH  20  21
HETATM   21  C   UNL     1      39.376 -14.788   2.709  1.00  0.00     0.206 C 
BRANCH  21  22
HETATM   22  C   UNL     1      40.093 -15.141   1.427  1.00  0.00    -0.035 A 
HETATM   23  C   UNL     1      40.918 -16.269   1.313  1.00  0.00     0.009 A 
HETATM   24  C   UNL     1      41.527 -16.586   0.096  1.00  0.00     0.001 A 
HETATM   25  C   UNL     1      41.313 -15.784  -1.023  1.00  0.00     0.000 A 
HETATM   26  C   UNL     1      40.488 -14.666  -0.929  1.00  0.00     0.001 A 
HETATM   27  C   UNL     1      39.881 -14.347   0.287  1.00  0.00     0.009 A 
ENDBRANCH  21  22
ENDBRANCH  20  21
ENDBRANCH   2  20
TORSDOF 7
ENDMDL
MODEL 10
REMARK VINA RESULT:      -6.9      3.386      5.732
REMARK  7 active torsions:
REMARK  status: ('A' for Active; 'I' for Inactive)
REMARK    1  A    between atoms: C_2  and  C_3 
REMARK    2  A    between atoms: C_3  and  C_4 
REMARK    3  A    between atoms: C_8  and  C_9 
REMARK       I    between atoms: C_9  and  N_10 
REMARK    4  A    between atoms: N_10  and  C_11 
REMARK    5  A    between atoms: C_12  and  O_13 
REMARK    6  A    between atoms: O_13  and  C_14 
REMARK    7  A    between atoms: C_14  and  C_15 
ROOT
HETATM    1  C   UNL     1      43.311 -17.040   6.106  1.00  0.00     0.113 C 
HETATM    2  C   UNL     1      43.151 -18.218   5.109  1.00  0.00     0.144 C 
HETATM    3  C   UNL     1      44.056 -19.387   5.519  1.00  0.00     0.034 C 
HETATM    4  C   UNL     1      43.790 -19.841   6.949  1.00  0.00     0.003 C 
HETATM    5  C   UNL     1      43.891 -18.687   7.938  1.00  0.00     0.002 C 
HETATM    6  C   UNL     1      43.000 -17.516   7.534  1.00  0.00     0.028 C 
ENDROOT
BRANCH   1   7
HETATM    7  N   UNL     1      42.461 -15.918   5.702  1.00  0.00    -0.349 N 
HETATM    8  C   UNL     1      41.109 -15.901   5.962  1.00  0.00     0.270 C 
HETATM    9  O   UNL     1      40.499 -16.871   6.403  1.00  0.00    -0.266 OA
HETATM   10  H   UNL     1      42.922 -15.018   5.669  1.00  0.00     0.163 HD
BRANCH   8  11
HETATM   11  C   UNL     1      40.450 -14.650   5.701  1.00  0.00     0.119 A 
HETATM   12  N   UNL     1      39.816 -13.961   6.701  1.00  0.00    -0.273 N 
HETATM   13  N   UNL     1      39.254 -12.808   6.304  1.00  0.00    -0.179 NA
HETATM   14  H   UNL     1      39.742 -14.238   7.676  1.00  0.00     0.189 HD
HETATM   15  C   UNL     1      39.525 -12.751   4.996  1.00  0.00     0.057 A 
HETATM   16  C   UNL     1      40.263 -13.882   4.569  1.00  0.00     0.065 A 
BRANCH  15  17
HETATM   17  C   UNL     1      39.052 -11.596   4.178  1.00  0.00     0.061 C 
BRANCH  17  18
HETATM   18  C   UNL     1      39.347 -11.747   2.683  1.00  0.00     0.002 C 
HETATM   19  C   UNL     1      38.092 -11.938   1.843  1.00  0.00     0.005 C 
ENDBRANCH  17  18
ENDBRANCH  15  17
ENDBRANCH   8  11
ENDBRANCH   1   7
BRANCH   2  20
HETATM   20  O   UNL     1      43.480 -17.727   3.800  1.00  0.00    -0.379 OA
BRANCH  20  21
HETATM   21  C   UNL     1      42.672 -18.279   2.759  1.00  0.00     0.206 C 
BRANCH  21  22
HETATM   22  C   UNL     1      41.859 -17.213   2.062  1.00  0.00    -0.035 A 
HETATM   23  C   UNL     1      40.536 -16.923   2.421  1.00  0.00     0.009 A 
HETATM   24  C   UNL     1      39.833 -15.899   1.782  1.00  0.00     0.001 A 
HETATM   25  C   UNL     1      40.447 -15.147   0.781  1.00  0.00     0.000 A 
HETATM   26  C   UNL     1      41.765 -15.418   0.420  1.00  0.00     0.001 A 
HETATM   27  C   UNL     1      42.467 -16.442   1.057  1.00  0.00     0.009 A 
ENDBRANCH  21  22
ENDBRANCH  20  21
ENDBRANCH   2  20
TORSDOF 7
ENDMDL
