MODEL 1
REMARK VINA RESULT:      -9.4      0.000      0.000
REMARK  7 active torsions:
REMARK  status: ('A' for Active; 'I' for Inactive)
REMARK    1  A    between atoms: C_3  and  O_4 
REMARK    2  A    between atoms: C_8  and  C_9 
REMARK    3  A    between atoms: C_9  and  N_10 
REMARK    4  A    between atoms: C_15  and  O_16 
REMARK    5  A    between atoms: C_18  and  N_19 
REMARK       I    between atoms: N_19  and  C_20 
REMARK    6  A    between atoms: C_20  and  C_21 
REMARK    7  A    between atoms: C_21  and  C_22 
ROOT
HETATM    1  N   UNL     1      41.283 -14.541   1.555  1.00  0.00    -0.067 N 
HETATM    2  H   UNL     1      40.690 -13.753   1.266  1.00  0.00     0.280 HD
HETATM    3  C   UNL     1      40.390 -15.409   2.415  1.00  0.00     0.236 C 
HETATM    4  C   UNL     1      41.196 -16.491   3.125  1.00  0.00     0.045 C 
HETATM    5  C   UNL     1      42.391 -15.927   3.933  1.00  0.00     0.019 A 
HETATM    6  C   UNL     1      41.964 -15.149   5.251  1.00  0.00     0.161 A 
HETATM    7  C   UNL     1      42.689 -15.827   6.463  1.00  0.00     0.148 A 
HETATM    8  C   UNL     1      43.427 -16.977   5.850  1.00  0.00    -0.026 A 
HETATM    9  C   UNL     1      43.251 -17.053   4.469  1.00  0.00    -0.038 A 
HETATM   10  C   UNL     1      44.188 -17.926   6.528  1.00  0.00     0.010 A 
HETATM   11  C   UNL     1      44.792 -18.952   5.803  1.00  0.00     0.001 A 
HETATM   12  C   UNL     1      44.627 -19.026   4.417  1.00  0.00     0.001 A 
HETATM   13  C   UNL     1      43.857 -18.077   3.744  1.00  0.00     0.009 A 
HETATM   14  C   UNL     1      43.240 -15.037   2.998  1.00  0.00     0.045 C 
HETATM   15  C   UNL     1      42.413 -13.938   2.350  1.00  0.00     0.236 C 
ENDROOT
BRANCH   6  16
HETATM   16  O   UNL     1      40.529 -15.206   5.404  1.00  0.00    -0.387 OA
HETATM   17  C   UNL     1      39.955 -13.947   5.750  1.00  0.00     0.202 C 
ENDBRANCH   6  16
BRANCH   7  18
HETATM   18  N   UNL     1      43.553 -14.987   7.284  1.00  0.00    -0.350 N 
HETATM   19  C   UNL     1      44.293 -13.926   6.819  1.00  0.00     0.223 C 
HETATM   20  O   UNL     1      44.070 -13.404   5.725  1.00  0.00    -0.273 OA
HETATM   21  H   UNL     1      43.889 -15.433   8.131  1.00  0.00     0.163 HD
BRANCH  19  22
HETATM   22  C   UNL     1      45.410 -13.372   7.699  1.00  0.00     0.148 C 
BRANCH  22  23
HETATM   23  C   UNL     1      44.977 -12.396   8.752  1.00  0.00    -0.009 A 
HETATM   24  S   UNL     1      43.488 -11.558   8.598  1.00  0.00    -0.106 SA
HETATM   25  C   UNL     1      43.709 -10.758  10.092  1.00  0.00     0.050 A 
HETATM   26  C   UNL     1      44.883 -11.130  10.707  1.00  0.00     0.008 A 
HETATM   27  C   UNL     1      45.615 -12.076   9.935  1.00  0.00     0.015 A 
ENDBRANCH  22  23
ENDBRANCH  19  22
ENDBRANCH   7  18
BRANCH   1  28
HETATM   28  C   UNL     1      41.743 -15.173   0.257  1.00  0.00     0.273 C 
BRANCH  28  29
HETATM   29  C   UNL     1      41.327 -14.416  -0.974  1.00  0.00    -0.031 A 
HETATM   30  C   UNL     1      40.180 -14.790  -1.691  1.00  0.00     0.018 A 
HETATM   31  C   UNL     1      39.785 -14.083  -2.835  1.00  0.00    -0.028 A 
HETATM   32  C   UNL     1      40.528 -12.964  -3.236  1.00  0.00     0.077 A 
HETATM   33  C   UNL     1      38.528 -14.489  -3.555  1.00  0.00     0.051 C 
HETATM   34  C   UNL     1      41.670 -12.560  -2.531  1.00  0.00    -0.028 A 
HETATM   35  C   UNL     1      42.477 -11.357  -2.936  1.00  0.00     0.051 C 
HETATM   36  C   UNL     1      42.065 -13.303  -1.407  1.00  0.00     0.018 A 
BRANCH  32  37
HETATM   37  O   UNL     1      40.082 -12.286  -4.335  1.00  0.00    -0.360 OA
HETATM   38  H   UNL     1      39.460 -12.829  -4.844  1.00  0.00     0.217 HD
ENDBRANCH  32  37
ENDBRANCH  28  29
ENDBRANCH   1  28
TORSDOF 7
ENDMDL
MODEL 2
REMARK VINA RESULT:      -9.2      3.583      8.798
REMARK  7 active torsions:
REMARK  status: ('A' for Active; 'I' for Inactive)
REMARK    1  A    between atoms: C_3  and  O_4 
REMARK    2  A    between atoms: C_8  and  C_9 
REMARK    3  A    between atoms: C_9  and  N_10 
REMARK    4  A    between atoms: C_15  and  O_16 
REMARK    5  A    between atoms: C_18  and  N_19 
REMARK       I    between atoms: N_19  and  C_20 
REMARK    6  A    between atoms: C_20  and  C_21 
REMARK    7  A    between atoms: C_21  and  C_22 
ROOT
HETATM    1  N   UNL     1      42.886 -17.225   2.673  1.00  0.00    -0.067 N 
HETATM    2  H   UNL     1      43.008 -17.950   1.956  1.00  0.00     0.280 HD
HETATM    3  C   UNL     1      41.409 -16.900   2.657  1.00  0.00     0.236 C 
HETATM    4  C   UNL     1      41.110 -15.662   3.494  1.00  0.00     0.045 C 
HETATM    5  C   UNL     1      41.967 -14.436   3.094  1.00  0.00     0.019 A 
HETATM    6  C   UNL     1      41.557 -13.793   1.700  1.00  0.00     0.161 A 
HETATM    7  C   UNL     1      41.220 -12.284   1.948  1.00  0.00     0.148 A 
HETATM    8  C   UNL     1      41.367 -12.116   3.429  1.00  0.00    -0.026 A 
HETATM    9  C   UNL     1      41.754 -13.294   4.068  1.00  0.00    -0.038 A 
HETATM   10  C   UNL     1      41.122 -10.955   4.158  1.00  0.00     0.010 A 
HETATM   11  C   UNL     1      41.286 -10.978   5.542  1.00  0.00     0.001 A 
HETATM   12  C   UNL     1      41.683 -12.154   6.185  1.00  0.00     0.001 A 
HETATM   13  C   UNL     1      41.920 -13.317   5.451  1.00  0.00     0.009 A 
HETATM   14  C   UNL     1      43.456 -14.850   3.112  1.00  0.00     0.045 C 
HETATM   15  C   UNL     1      43.724 -16.054   2.224  1.00  0.00     0.236 C 
ENDROOT
BRANCH   6  16
HETATM   16  O   UNL     1      40.419 -14.498   1.158  1.00  0.00    -0.387 OA
HETATM   17  C   UNL     1      40.276 -14.329  -0.251  1.00  0.00     0.202 C 
ENDBRANCH   6  16
BRANCH   7  18
HETATM   18  N   UNL     1      41.985 -11.294   1.199  1.00  0.00    -0.350 N 
HETATM   19  C   UNL     1      41.505 -10.567   0.136  1.00  0.00     0.223 C 
HETATM   20  O   UNL     1      40.298 -10.470  -0.097  1.00  0.00    -0.273 OA
HETATM   21  H   UNL     1      42.990 -11.424   1.237  1.00  0.00     0.163 HD
BRANCH  19  22
HETATM   22  C   UNL     1      42.502  -9.845  -0.767  1.00  0.00     0.148 C 
BRANCH  22  23
HETATM   23  C   UNL     1      42.483 -10.258  -2.208  1.00  0.00    -0.009 A 
HETATM   24  S   UNL     1      42.367 -11.915  -2.634  1.00  0.00    -0.106 SA
HETATM   25  C   UNL     1      42.364 -11.552  -4.304  1.00  0.00     0.050 A 
HETATM   26  C   UNL     1      42.433 -10.198  -4.538  1.00  0.00     0.008 A 
HETATM   27  C   UNL     1      42.501  -9.449  -3.328  1.00  0.00     0.015 A 
ENDBRANCH  22  23
ENDBRANCH  19  22
ENDBRANCH   7  18
BRANCH   1  28
HETATM   28  C   UNL     1      43.394 -17.860   3.952  1.00  0.00     0.273 C 
BRANCH  28  29
HETATM   29  C   UNL     1      43.801 -19.300   3.801  1.00  0.00    -0.031 A 
HETATM   30  C   UNL     1      44.198 -20.052   4.917  1.00  0.00     0.018 A 
HETATM   31  C   UNL     1      44.571 -21.397   4.782  1.00  0.00    -0.028 A 
HETATM   32  C   UNL     1      44.504 -22.000   3.519  1.00  0.00     0.077 A 
HETATM   33  C   UNL     1      44.952 -22.183   6.007  1.00  0.00     0.051 C 
HETATM   34  C   UNL     1      44.099 -21.276   2.388  1.00  0.00    -0.028 A 
HETATM   35  C   UNL     1      44.008 -21.903   1.025  1.00  0.00     0.051 C 
HETATM   36  C   UNL     1      43.760 -19.921   2.543  1.00  0.00     0.018 A 
BRANCH  32  37
HETATM   37  O   UNL     1      44.842 -23.321   3.444  1.00  0.00    -0.360 OA
HETATM   38  H   UNL     1      45.221 -23.530   2.576  1.00  0.00     0.217 HD
ENDBRANCH  32  37
ENDBRANCH  28  29
ENDBRANCH   1  28
TORSDOF 7
ENDMDL
MODEL 3
REMARK VINA RESULT:      -9.0      4.783     10.931
REMARK  7 active torsions:
REMARK  status: ('A' for Active; 'I' for Inactive)
REMARK    1  A    between atoms: C_3  and  O_4 
REMARK    2  A    between atoms: C_8  and  C_9 
REMARK    3  A    between atoms: C_9  and  N_10 
REMARK    4  A    between atoms: C_15  and  O_16 
REMARK    5  A    between atoms: C_18  and  N_19 
REMARK       I    between atoms: N_19  and  C_20 
REMARK    6  A    between atoms: C_20  and  C_21 
REMARK    7  A    between atoms: C_21  and  C_22 
ROOT
HETATM    1  N   UNL     1      41.640 -16.263   1.607  1.00  0.00    -0.067 N 
HETATM    2  H   UNL     1      41.259 -16.876   2.339  1.00  0.00     0.280 HD
HETATM    3  C   UNL     1      41.144 -14.878   1.957  1.00  0.00     0.236 C 
HETATM    4  C   UNL     1      41.419 -13.894   0.825  1.00  0.00     0.045 C 
HETATM    5  C   UNL     1      40.867 -14.369  -0.541  1.00  0.00     0.019 A 
HETATM    6  C   UNL     1      39.283 -14.304  -0.651  1.00  0.00     0.161 A 
HETATM    7  C   UNL     1      38.925 -13.412  -1.887  1.00  0.00     0.148 A 
HETATM    8  C   UNL     1      40.253 -12.943  -2.396  1.00  0.00    -0.026 A 
HETATM    9  C   UNL     1      41.320 -13.443  -1.652  1.00  0.00    -0.038 A 
HETATM   10  C   UNL     1      40.469 -12.072  -3.461  1.00  0.00     0.010 A 
HETATM   11  C   UNL     1      41.776 -11.717  -3.789  1.00  0.00     0.001 A 
HETATM   12  C   UNL     1      42.850 -12.225  -3.053  1.00  0.00     0.001 A 
HETATM   13  C   UNL     1      42.627 -13.091  -1.982  1.00  0.00     0.009 A 
HETATM   14  C   UNL     1      41.397 -15.794  -0.817  1.00  0.00     0.045 C 
HETATM   15  C   UNL     1      41.056 -16.758   0.308  1.00  0.00     0.236 C 
ENDROOT
BRANCH   6  16
HETATM   16  O   UNL     1      38.736 -13.753   0.567  1.00  0.00    -0.387 OA
HETATM   17  C   UNL     1      37.411 -14.206   0.839  1.00  0.00     0.202 C 
ENDBRANCH   6  16
BRANCH   7  18
HETATM   18  N   UNL     1      38.109 -14.013  -2.935  1.00  0.00    -0.350 N 
HETATM   19  C   UNL     1      37.149 -13.353  -3.663  1.00  0.00     0.223 C 
HETATM   20  O   UNL     1      37.090 -12.122  -3.702  1.00  0.00    -0.273 OA
HETATM   21  H   UNL     1      38.002 -15.019  -2.857  1.00  0.00     0.163 HD
BRANCH  19  22
HETATM   22  C   UNL     1      36.140 -14.176  -4.461  1.00  0.00     0.148 C 
BRANCH  22  23
HETATM   23  C   UNL     1      35.229 -13.389  -5.355  1.00  0.00    -0.009 A 
HETATM   24  S   UNL     1      33.858 -12.588  -4.707  1.00  0.00    -0.106 SA
HETATM   25  C   UNL     1      33.427 -11.953  -6.234  1.00  0.00     0.050 A 
HETATM   26  C   UNL     1      34.315 -12.326  -7.217  1.00  0.00     0.008 A 
HETATM   27  C   UNL     1      35.357 -13.155  -6.711  1.00  0.00     0.015 A 
ENDBRANCH  22  23
ENDBRANCH  19  22
ENDBRANCH   7  18
BRANCH   1  28
HETATM   28  C   UNL     1      43.141 -16.453   1.692  1.00  0.00     0.273 C 
BRANCH  28  29
HETATM   29  C   UNL     1      43.562 -17.683   2.447  1.00  0.00    -0.031 A 
HETATM   30  C   UNL     1      43.870 -17.614   3.814  1.00  0.00     0.018 A 
HETATM   31  C   UNL     1      44.256 -18.760   4.523  1.00  0.00    -0.028 A 
HETATM   32  C   UNL     1      44.291 -19.994   3.859  1.00  0.00     0.077 A 
HETATM   33  C   UNL     1      44.541 -18.654   5.997  1.00  0.00     0.051 C 
HETATM   34  C   UNL     1      43.976 -20.095   2.496  1.00  0.00    -0.028 A 
HETATM   35  C   UNL     1      43.996 -21.408   1.765  1.00  0.00     0.051 C 
HETATM   36  C   UNL     1      43.623 -18.927   1.800  1.00  0.00     0.018 A 
BRANCH  32  37
HETATM   37  O   UNL     1      44.638 -21.087   4.601  1.00  0.00    -0.360 OA
HETATM   38  H   UNL     1      43.942 -21.762   4.564  1.00  0.00     0.217 HD
ENDBRANCH  32  37
ENDBRANCH  28  29
ENDBRANCH   1  28
TORSDOF 7
ENDMDL
MODEL 4
REMARK VINA RESULT:      -9.0      4.911     10.857
REMARK  7 active torsions:
REMARK  status: ('A' for Active; 'I' for Inactive)
REMARK    1  A    between atoms: C_3  and  O_4 
REMARK    2  A    between atoms: C_8  and  C_9 
REMARK    3  A    between atoms: C_9  and  N_10 
REMARK    4  A    between atoms: C_15  and  O_16 
REMARK    5  A    between atoms: C_18  and  N_19 
REMARK       I    between atoms: N_19  and  C_20 
REMARK    6  A    between atoms: C_20  and  C_21 
REMARK    7  A    between atoms: C_21  and  C_22 
ROOT
HETATM    1  N   UNL     1      41.618 -16.381   1.533  1.00  0.00    -0.067 N 
HETATM    2  H   UNL     1      41.235 -17.010   2.249  1.00  0.00     0.280 HD
HETATM    3  C   UNL     1      41.145 -15.000   1.929  1.00  0.00     0.236 C 
HETATM    4  C   UNL     1      41.424 -13.986   0.824  1.00  0.00     0.045 C 
HETATM    5  C   UNL     1      40.853 -14.412  -0.551  1.00  0.00     0.019 A 
HETATM    6  C   UNL     1      39.270 -14.323  -0.644  1.00  0.00     0.161 A 
HETATM    7  C   UNL     1      38.913 -13.388  -1.849  1.00  0.00     0.148 A 
HETATM    8  C   UNL     1      40.243 -12.922  -2.356  1.00  0.00    -0.026 A 
HETATM    9  C   UNL     1      41.310 -13.459  -1.637  1.00  0.00    -0.038 A 
HETATM   10  C   UNL     1      40.462 -12.022  -3.395  1.00  0.00     0.010 A 
HETATM   11  C   UNL     1      41.772 -11.675  -3.725  1.00  0.00     0.001 A 
HETATM   12  C   UNL     1      42.845 -12.220  -3.014  1.00  0.00     0.001 A 
HETATM   13  C   UNL     1      42.619 -13.115  -1.968  1.00  0.00     0.009 A 
HETATM   14  C   UNL     1      41.361 -15.836  -0.875  1.00  0.00     0.045 C 
HETATM   15  C   UNL     1      41.016 -16.828   0.224  1.00  0.00     0.236 C 
ENDROOT
BRANCH   6  16
HETATM   16  O   UNL     1      38.741 -13.801   0.595  1.00  0.00    -0.387 OA
HETATM   17  C   UNL     1      37.337 -14.012   0.734  1.00  0.00     0.202 C 
ENDBRANCH   6  16
BRANCH   7  18
HETATM   18  N   UNL     1      38.081 -13.946  -2.908  1.00  0.00    -0.350 N 
HETATM   19  C   UNL     1      37.133 -13.247  -3.616  1.00  0.00     0.223 C 
HETATM   20  O   UNL     1      37.103 -12.015  -3.627  1.00  0.00    -0.273 OA
HETATM   21  H   UNL     1      37.950 -14.951  -2.853  1.00  0.00     0.163 HD
BRANCH  19  22
HETATM   22  C   UNL     1      36.103 -14.028  -4.429  1.00  0.00     0.148 C 
BRANCH  22  23
HETATM   23  C   UNL     1      35.068 -13.197  -5.127  1.00  0.00    -0.009 A 
HETATM   24  S   UNL     1      35.198 -12.884  -6.808  1.00  0.00    -0.106 SA
HETATM   25  C   UNL     1      33.740 -11.992  -6.821  1.00  0.00     0.050 A 
HETATM   26  C   UNL     1      33.154 -11.945  -5.576  1.00  0.00     0.008 A 
HETATM   27  C   UNL     1      33.920 -12.641  -4.597  1.00  0.00     0.015 A 
ENDBRANCH  22  23
ENDBRANCH  19  22
ENDBRANCH   7  18
BRANCH   1  28
HETATM   28  C   UNL     1      43.118 -16.594   1.598  1.00  0.00     0.273 C 
BRANCH  28  29
HETATM   29  C   UNL     1      43.531 -17.811   2.379  1.00  0.00    -0.031 A 
HETATM   30  C   UNL     1      43.585 -19.071   1.764  1.00  0.00     0.018 A 
HETATM   31  C   UNL     1      43.976 -20.207   2.486  1.00  0.00    -0.028 A 
HETATM   32  C   UNL     1      44.356 -20.065   3.828  1.00  0.00     0.077 A 
HETATM   33  C   UNL     1      44.060 -21.535   1.784  1.00  0.00     0.051 C 
HETATM   34  C   UNL     1      44.325 -18.816   4.464  1.00  0.00    -0.028 A 
HETATM   35  C   UNL     1      44.738 -18.636   5.898  1.00  0.00     0.051 C 
HETATM   36  C   UNL     1      43.898 -17.698   3.728  1.00  0.00     0.018 A 
BRANCH  32  37
HETATM   37  O   UNL     1      44.765 -21.194   4.479  1.00  0.00    -0.360 OA
HETATM   38  H   UNL     1      45.603 -21.517   4.113  1.00  0.00     0.217 HD
ENDBRANCH  32  37
ENDBRANCH  28  29
ENDBRANCH   1  28
TORSDOF 7
ENDMDL
MODEL 5
REMARK VINA RESULT:      -8.9      3.697      6.933
REMARK  7 active torsions:
REMARK  status: ('A' for Active; 'I' for Inactive)
REMARK    1  A    between atoms: C_3  and  O_4 
REMARK    2  A    between atoms: C_8  and  C_9 
REMARK    3  A    between atoms: C_9  and  N_10 
REMARK    4  A    between atoms: C_15  and  O_16 
REMARK    5  A    between atoms: C_18  and  N_19 
REMARK       I    between atoms: N_19  and  C_20 
REMARK    6  A    between atoms: C_20  and  C_21 
REMARK    7  A    between atoms: C_21  and  C_22 
ROOT
HETATM    1  N   UNL     1      43.240 -17.138   4.676  1.00  0.00    -0.067 N 
HETATM    2  H   UNL     1      43.960 -17.710   5.134  1.00  0.00     0.280 HD
HETATM    3  C   UNL     1      43.986 -15.953   4.102  1.00  0.00     0.236 C 
HETATM    4  C   UNL     1      43.018 -14.885   3.603  1.00  0.00     0.045 C 
HETATM    5  C   UNL     1      41.990 -14.448   4.675  1.00  0.00     0.019 A 
HETATM    6  C   UNL     1      42.615 -13.569   5.842  1.00  0.00     0.161 A 
HETATM    7  C   UNL     1      41.826 -12.217   5.898  1.00  0.00     0.148 A 
HETATM    8  C   UNL     1      40.855 -12.313   4.763  1.00  0.00    -0.026 A 
HETATM    9  C   UNL     1      40.953 -13.521   4.073  1.00  0.00    -0.038 A 
HETATM   10  C   UNL     1      39.956 -11.330   4.359  1.00  0.00     0.010 A 
HETATM   11  C   UNL     1      39.135 -11.574   3.259  1.00  0.00     0.001 A 
HETATM   12  C   UNL     1      39.222 -12.788   2.571  1.00  0.00     0.001 A 
HETATM   13  C   UNL     1      40.130 -13.767   2.976  1.00  0.00     0.009 A 
HETATM   14  C   UNL     1      41.288 -15.709   5.227  1.00  0.00     0.045 C 
HETATM   15  C   UNL     1      42.282 -16.726   5.764  1.00  0.00     0.236 C 
ENDROOT
BRANCH   6  16
HETATM   16  O   UNL     1      44.017 -13.344   5.581  1.00  0.00    -0.387 OA
HETATM   17  C   UNL     1      44.858 -13.753   6.659  1.00  0.00     0.202 C 
ENDBRANCH   6  16
BRANCH   7  18
HETATM   18  N   UNL     1      41.176 -11.871   7.157  1.00  0.00    -0.350 N 
HETATM   19  C   UNL     1      41.418 -10.727   7.880  1.00  0.00     0.223 C 
HETATM   20  O   UNL     1      41.987  -9.751   7.388  1.00  0.00    -0.273 OA
HETATM   21  H   UNL     1      40.822 -12.666   7.678  1.00  0.00     0.163 HD
BRANCH  19  22
HETATM   22  C   UNL     1      40.946 -10.666   9.331  1.00  0.00     0.148 C 
BRANCH  22  23
HETATM   23  C   UNL     1      42.021 -10.426  10.349  1.00  0.00    -0.009 A 
HETATM   24  S   UNL     1      43.477 -11.331  10.302  1.00  0.00    -0.106 SA
HETATM   25  C   UNL     1      44.118 -10.493  11.646  1.00  0.00     0.050 A 
HETATM   26  C   UNL     1      43.251  -9.532  12.115  1.00  0.00     0.008 A 
HETATM   27  C   UNL     1      42.040  -9.492  11.366  1.00  0.00     0.015 A 
ENDBRANCH  22  23
ENDBRANCH  19  22
ENDBRANCH   7  18
BRANCH   1  28
HETATM   28  C   UNL     1      42.611 -18.063   3.652  1.00  0.00     0.273 C 
BRANCH  28  29
HETATM   29  C   UNL     1      43.273 -19.410   3.555  1.00  0.00    -0.031 A 
HETATM   30  C   UNL     1      43.794 -20.036   4.697  1.00  0.00     0.018 A 
HETATM   31  C   UNL     1      44.405 -21.294   4.612  1.00  0.00    -0.028 A 
HETATM   32  C   UNL     1      44.455 -21.946   3.372  1.00  0.00     0.077 A 
HETATM   33  C   UNL     1      44.917 -21.952   5.865  1.00  0.00     0.051 C 
HETATM   34  C   UNL     1      43.931 -21.349   2.216  1.00  0.00    -0.028 A 
HETATM   35  C   UNL     1      43.963 -22.033   0.877  1.00  0.00     0.051 C 
HETATM   36  C   UNL     1      43.352 -20.074   2.321  1.00  0.00     0.018 A 
BRANCH  32  37
HETATM   37  O   UNL     1      45.028 -23.185   3.346  1.00  0.00    -0.360 OA
HETATM   38  H   UNL     1      45.948 -23.133   3.043  1.00  0.00     0.217 HD
ENDBRANCH  32  37
ENDBRANCH  28  29
ENDBRANCH   1  28
TORSDOF 7
ENDMDL
MODEL 6
REMARK VINA RESULT:      -8.6      3.054      9.037
REMARK  7 active torsions:
REMARK  status: ('A' for Active; 'I' for Inactive)
REMARK    1  A    between atoms: C_3  and  O_4 
REMARK    2  A    between atoms: C_8  and  C_9 
REMARK    3  A    between atoms: C_9  and  N_10 
REMARK    4  A    between atoms: C_15  and  O_16 
REMARK    5  A    between atoms: C_18  and  N_19 
REMARK       I    between atoms: N_19  and  C_20 
REMARK    6  A    between atoms: C_20  and  C_21 
REMARK    7  A    between atoms: C_21  and  C_22 
ROOT
HETATM    1  N   UNL     1      40.924 -12.500   5.823  1.00  0.00    -0.067 N 
HETATM    2  H   UNL     1      40.695 -12.939   6.723  1.00  0.00     0.280 HD
HETATM    3  C   UNL     1      39.710 -12.735   4.951  1.00  0.00     0.236 C 
HETATM    4  C   UNL     1      39.995 -12.359   3.501  1.00  0.00     0.045 C 
HETATM    5  C   UNL     1      41.253 -13.057   2.927  1.00  0.00     0.019 A 
HETATM    6  C   UNL     1      41.058 -14.610   2.658  1.00  0.00     0.161 A 
HETATM    7  C   UNL     1      41.384 -14.879   1.149  1.00  0.00     0.148 A 
HETATM    8  C   UNL     1      41.675 -13.520   0.591  1.00  0.00    -0.026 A 
HETATM    9  C   UNL     1      41.584 -12.514   1.552  1.00  0.00    -0.038 A 
HETATM   10  C   UNL     1      41.971 -13.218  -0.735  1.00  0.00     0.010 A 
HETATM   11  C   UNL     1      42.193 -11.889  -1.093  1.00  0.00     0.001 A 
HETATM   12  C   UNL     1      42.114 -10.878  -0.131  1.00  0.00     0.001 A 
HETATM   13  C   UNL     1      41.809 -11.186   1.195  1.00  0.00     0.009 A 
HETATM   14  C   UNL     1      42.440 -12.791   3.880  1.00  0.00     0.045 C 
HETATM   15  C   UNL     1      42.138 -13.229   5.304  1.00  0.00     0.236 C 
ENDROOT
BRANCH   6  16
HETATM   16  O   UNL     1      39.700 -14.990   2.973  1.00  0.00    -0.387 OA
HETATM   17  C   UNL     1      38.910 -15.252   1.815  1.00  0.00     0.202 C 
ENDBRANCH   6  16
BRANCH   7  18
HETATM   18  N   UNL     1      42.439 -15.839   0.851  1.00  0.00    -0.350 N 
HETATM   19  C   UNL     1      42.358 -17.193   1.072  1.00  0.00     0.223 C 
HETATM   20  O   UNL     1      41.280 -17.760   1.267  1.00  0.00    -0.273 OA
HETATM   21  H   UNL     1      43.373 -15.443   0.830  1.00  0.00     0.163 HD
BRANCH  19  22
HETATM   22  C   UNL     1      43.643 -18.017   1.053  1.00  0.00     0.148 C 
BRANCH  22  23
HETATM   23  C   UNL     1      43.971 -18.730   2.331  1.00  0.00    -0.009 A 
HETATM   24  S   UNL     1      43.768 -17.941   3.840  1.00  0.00    -0.106 SA
HETATM   25  C   UNL     1      44.273 -19.326   4.705  1.00  0.00     0.050 A 
HETATM   26  C   UNL     1      44.575 -20.375   3.867  1.00  0.00     0.008 A 
HETATM   27  C   UNL     1      44.401 -20.032   2.495  1.00  0.00     0.015 A 
ENDBRANCH  22  23
ENDBRANCH  19  22
ENDBRANCH   7  18
BRANCH   1  28
HETATM   28  C   UNL     1      41.204 -11.050   6.164  1.00  0.00     0.273 C 
BRANCH  28  29
HETATM   29  C   UNL     1      41.293 -10.773   7.639  1.00  0.00    -0.031 A 
HETATM   30  C   UNL     1      42.528 -10.821   8.303  1.00  0.00     0.018 A 
HETATM   31  C   UNL     1      42.616 -10.557   9.677  1.00  0.00    -0.028 A 
HETATM   32  C   UNL     1      41.456 -10.201  10.379  1.00  0.00     0.077 A 
HETATM   33  C   UNL     1      43.963 -10.578  10.347  1.00  0.00     0.051 C 
HETATM   34  C   UNL     1      40.211 -10.132   9.738  1.00  0.00    -0.028 A 
HETATM   35  C   UNL     1      38.955  -9.743  10.467  1.00  0.00     0.051 C 
HETATM   36  C   UNL     1      40.143 -10.433   8.368  1.00  0.00     0.018 A 
BRANCH  32  37
HETATM   37  O   UNL     1      41.599  -9.917  11.707  1.00  0.00    -0.360 OA
HETATM   38  H   UNL     1      42.527  -9.999  11.979  1.00  0.00     0.217 HD
ENDBRANCH  32  37
ENDBRANCH  28  29
ENDBRANCH   1  28
TORSDOF 7
ENDMDL
MODEL 7
REMARK VINA RESULT:      -8.6      3.022      9.035
REMARK  7 active torsions:
REMARK  status: ('A' for Active; 'I' for Inactive)
REMARK    1  A    between atoms: C_3  and  O_4 
REMARK    2  A    between atoms: C_8  and  C_9 
REMARK    3  A    between atoms: C_9  and  N_10 
REMARK    4  A    between atoms: C_15  and  O_16 
REMARK    5  A    between atoms: C_18  and  N_19 
REMARK       I    between atoms: N_19  and  C_20 
REMARK    6  A    between atoms: C_20  and  C_21 
REMARK    7  A    between atoms: C_21  and  C_22 
ROOT
HETATM    1  N   UNL     1      40.944 -12.614   6.139  1.00  0.00    -0.067 N 
HETATM    2  H   UNL     1      40.739 -13.075   7.034  1.00  0.00     0.280 HD
HETATM    3  C   UNL     1      39.728 -12.872   5.276  1.00  0.00     0.236 C 
HETATM    4  C   UNL     1      39.985 -12.462   3.830  1.00  0.00     0.045 C 
HETATM    5  C   UNL     1      41.257 -13.111   3.231  1.00  0.00     0.019 A 
HETATM    6  C   UNL     1      41.108 -14.664   2.936  1.00  0.00     0.161 A 
HETATM    7  C   UNL     1      41.425 -14.897   1.420  1.00  0.00     0.148 A 
HETATM    8  C   UNL     1      41.668 -13.521   0.882  1.00  0.00    -0.026 A 
HETATM    9  C   UNL     1      41.556 -12.534   1.862  1.00  0.00    -0.038 A 
HETATM   10  C   UNL     1      41.939 -13.187  -0.442  1.00  0.00     0.010 A 
HETATM   11  C   UNL     1      42.116 -11.845  -0.778  1.00  0.00     0.001 A 
HETATM   12  C   UNL     1      42.015 -10.854   0.202  1.00  0.00     0.001 A 
HETATM   13  C   UNL     1      41.736 -11.194   1.526  1.00  0.00     0.009 A 
HETATM   14  C   UNL     1      42.447 -12.824   4.175  1.00  0.00     0.045 C 
HETATM   15  C   UNL     1      42.174 -13.295   5.595  1.00  0.00     0.236 C 
ENDROOT
BRANCH   6  16
HETATM   16  O   UNL     1      39.767 -15.092   3.260  1.00  0.00    -0.387 OA
HETATM   17  C   UNL     1      39.003 -15.452   2.110  1.00  0.00     0.202 C 
ENDBRANCH   6  16
BRANCH   7  18
HETATM   18  N   UNL     1      42.507 -15.819   1.094  1.00  0.00    -0.350 N 
HETATM   19  C   UNL     1      42.404 -17.189   1.103  1.00  0.00     0.223 C 
HETATM   20  O   UNL     1      41.312 -17.762   1.100  1.00  0.00    -0.273 OA
HETATM   21  H   UNL     1      43.437 -15.437   1.229  1.00  0.00     0.163 HD
BRANCH  19  22
HETATM   22  C   UNL     1      43.685 -18.020   1.096  1.00  0.00     0.148 C 
BRANCH  22  23
HETATM   23  C   UNL     1      43.969 -18.779   2.358  1.00  0.00    -0.009 A 
HETATM   24  S   UNL     1      43.687 -18.055   3.887  1.00  0.00    -0.106 SA
HETATM   25  C   UNL     1      44.176 -19.465   4.717  1.00  0.00     0.050 A 
HETATM   26  C   UNL     1      44.533 -20.475   3.853  1.00  0.00     0.008 A 
HETATM   27  C   UNL     1      44.413 -20.080   2.489  1.00  0.00     0.015 A 
ENDBRANCH  22  23
ENDBRANCH  19  22
ENDBRANCH   7  18
BRANCH   1  28
HETATM   28  C   UNL     1      41.182 -11.162   6.502  1.00  0.00     0.273 C 
BRANCH  28  29
HETATM   29  C   UNL     1      41.520 -10.939   7.950  1.00  0.00    -0.031 A 
HETATM   30  C   UNL     1      40.510 -10.671   8.887  1.00  0.00     0.018 A 
HETATM   31  C   UNL     1      40.819 -10.470  10.240  1.00  0.00    -0.028 A 
HETATM   32  C   UNL     1      42.152 -10.581  10.658  1.00  0.00     0.077 A 
HETATM   33  C   UNL     1      39.706 -10.223  11.221  1.00  0.00     0.051 C 
HETATM   34  C   UNL     1      43.179 -10.861   9.746  1.00  0.00    -0.028 A 
HETATM   35  C   UNL     1      44.615 -10.996  10.173  1.00  0.00     0.051 C 
HETATM   36  C   UNL     1      42.849 -11.027   8.391  1.00  0.00     0.018 A 
BRANCH  32  37
HETATM   37  O   UNL     1      42.398 -10.413  11.991  1.00  0.00    -0.360 OA
HETATM   38  H   UNL     1      41.712 -10.844  12.525  1.00  0.00     0.217 HD
ENDBRANCH  32  37
ENDBRANCH  28  29
ENDBRANCH   1  28
TORSDOF 7
ENDMDL
MODEL 8
REMARK VINA RESULT:      -8.6      3.336      8.738
REMARK  7 active torsions:
REMARK  status: ('A' for Active; 'I' for Inactive)
REMARK    1  A    between atoms: C_3  and  O_4 
REMARK    2  A    between atoms: C_8  and  C_9 
REMARK    3  A    between atoms: C_9  and  N_10 
REMARK    4  A    between atoms: C_15  and  O_16 
REMARK    5  A    between atoms: C_18  and  N_19 
REMARK       I    between atoms: N_19  and  C_20 
REMARK    6  A    between atoms: C_20  and  C_21 
REMARK    7  A    between atoms: C_21  and  C_22 
ROOT
HETATM    1  N   UNL     1      41.488 -12.751   6.402  1.00  0.00    -0.067 N 
HETATM    2  H   UNL     1      41.575 -12.811   7.424  1.00  0.00     0.280 HD
HETATM    3  C   UNL     1      40.294 -13.616   6.058  1.00  0.00     0.236 C 
HETATM    4  C   UNL     1      40.186 -13.828   4.552  1.00  0.00     0.045 C 
HETATM    5  C   UNL     1      41.489 -14.378   3.921  1.00  0.00     0.019 A 
HETATM    6  C   UNL     1      41.784 -15.897   4.280  1.00  0.00     0.161 A 
HETATM    7  C   UNL     1      41.921 -16.689   2.935  1.00  0.00     0.148 A 
HETATM    8  C   UNL     1      41.641 -15.666   1.878  1.00  0.00    -0.026 A 
HETATM    9  C   UNL     1      41.381 -14.403   2.410  1.00  0.00    -0.038 A 
HETATM   10  C   UNL     1      41.589 -15.888   0.505  1.00  0.00     0.010 A 
HETATM   11  C   UNL     1      41.288 -14.823  -0.342  1.00  0.00     0.001 A 
HETATM   12  C   UNL     1      41.038 -13.553   0.185  1.00  0.00     0.001 A 
HETATM   13  C   UNL     1      41.083 -13.337   1.563  1.00  0.00     0.009 A 
HETATM   14  C   UNL     1      42.662 -13.460   4.333  1.00  0.00     0.045 C 
HETATM   15  C   UNL     1      42.770 -13.315   5.843  1.00  0.00     0.236 C 
ENDROOT
BRANCH   6  16
HETATM   16  O   UNL     1      40.708 -16.423   5.086  1.00  0.00    -0.387 OA
HETATM   17  C   UNL     1      41.165 -17.096   6.258  1.00  0.00     0.202 C 
ENDBRANCH   6  16
BRANCH   7  18
HETATM   18  N   UNL     1      43.172 -17.401   2.700  1.00  0.00    -0.350 N 
HETATM   19  C   UNL     1      43.268 -18.705   2.276  1.00  0.00     0.223 C 
HETATM   20  O   UNL     1      42.313 -19.300   1.772  1.00  0.00    -0.273 OA
HETATM   21  H   UNL     1      43.965 -17.037   3.217  1.00  0.00     0.163 HD
BRANCH  19  22
HETATM   22  C   UNL     1      44.608 -19.423   2.416  1.00  0.00     0.148 C 
BRANCH  22  23
HETATM   23  C   UNL     1      44.637 -20.544   3.412  1.00  0.00    -0.009 A 
HETATM   24  S   UNL     1      44.656 -20.209   5.095  1.00  0.00    -0.106 SA
HETATM   25  C   UNL     1      44.643 -21.871   5.491  1.00  0.00     0.050 A 
HETATM   26  C   UNL     1      44.608 -22.669   4.370  1.00  0.00     0.008 A 
HETATM   27  C   UNL     1      44.605 -21.903   3.169  1.00  0.00     0.015 A 
ENDBRANCH  22  23
ENDBRANCH  19  22
ENDBRANCH   7  18
BRANCH   1  28
HETATM   28  C   UNL     1      41.318 -11.272   6.118  1.00  0.00     0.273 C 
BRANCH  28  29
HETATM   29  C   UNL     1      41.303 -10.409   7.349  1.00  0.00    -0.031 A 
HETATM   30  C   UNL     1      40.376  -9.365   7.480  1.00  0.00     0.018 A 
HETATM   31  C   UNL     1      40.354  -8.562   8.629  1.00  0.00    -0.028 A 
HETATM   32  C   UNL     1      41.247  -8.842   9.673  1.00  0.00     0.077 A 
HETATM   33  C   UNL     1      39.319  -7.477   8.751  1.00  0.00     0.051 C 
HETATM   34  C   UNL     1      42.175  -9.888   9.575  1.00  0.00    -0.028 A 
HETATM   35  C   UNL     1      43.135 -10.213  10.686  1.00  0.00     0.051 C 
HETATM   36  C   UNL     1      42.199 -10.657   8.401  1.00  0.00     0.018 A 
BRANCH  32  37
HETATM   37  O   UNL     1      41.162  -8.056  10.787  1.00  0.00    -0.360 OA
HETATM   38  H   UNL     1      41.752  -7.289  10.712  1.00  0.00     0.217 HD
ENDBRANCH  32  37
ENDBRANCH  28  29
ENDBRANCH   1  28
TORSDOF 7
ENDMDL
MODEL 9
REMARK VINA RESULT:      -8.5      3.664      8.871
REMARK  7 active torsions:
REMARK  status: ('A' for Active; 'I' for Inactive)
REMARK    1  A    between atoms: C_3  and  O_4 
REMARK    2  A    between atoms: C_8  and  C_9 
REMARK    3  A    between atoms: C_9  and  N_10 
REMARK    4  A    between atoms: C_15  and  O_16 
REMARK    5  A    between atoms: C_18  and  N_19 
REMARK       I    between atoms: N_19  and  C_20 
REMARK    6  A    between atoms: C_20  and  C_21 
REMARK    7  A    between atoms: C_21  and  C_22 
ROOT
HETATM    1  N   UNL     1      42.546 -17.102   2.660  1.00  0.00    -0.067 N 
HETATM    2  H   UNL     1      42.567 -17.932   2.055  1.00  0.00     0.280 HD
HETATM    3  C   UNL     1      41.102 -16.966   3.091  1.00  0.00     0.236 C 
HETATM    4  C   UNL     1      40.863 -15.634   3.795  1.00  0.00     0.045 C 
HETATM    5  C   UNL     1      41.327 -14.414   2.961  1.00  0.00     0.019 A 
HETATM    6  C   UNL     1      40.401 -14.105   1.707  1.00  0.00     0.161 A 
HETATM    7  C   UNL     1      39.898 -12.627   1.835  1.00  0.00     0.148 A 
HETATM    8  C   UNL     1      40.462 -12.162   3.143  1.00  0.00    -0.026 A 
HETATM    9  C   UNL     1      41.227 -13.141   3.777  1.00  0.00    -0.038 A 
HETATM   10  C   UNL     1      40.254 -10.921   3.737  1.00  0.00     0.010 A 
HETATM   11  C   UNL     1      40.837 -10.658   4.976  1.00  0.00     0.001 A 
HETATM   12  C   UNL     1      41.613 -11.632   5.611  1.00  0.00     0.001 A 
HETATM   13  C   UNL     1      41.811 -12.877   5.013  1.00  0.00     0.009 A 
HETATM   14  C   UNL     1      42.797 -14.636   2.540  1.00  0.00     0.045 C 
HETATM   15  C   UNL     1      42.985 -15.948   1.795  1.00  0.00     0.236 C 
ENDROOT
BRANCH   6  16
HETATM   16  O   UNL     1      39.294 -15.032   1.682  1.00  0.00    -0.387 OA
HETATM   17  C   UNL     1      38.086 -14.446   1.199  1.00  0.00     0.202 C 
ENDBRANCH   6  16
BRANCH   7  18
HETATM   18  N   UNL     1      40.209 -11.715   0.741  1.00  0.00    -0.350 N 
HETATM   19  C   UNL     1      39.287 -10.950   0.068  1.00  0.00     0.223 C 
HETATM   20  O   UNL     1      38.159 -10.740   0.518  1.00  0.00    -0.273 OA
HETATM   21  H   UNL     1      41.060 -11.940   0.237  1.00  0.00     0.163 HD
BRANCH  19  22
HETATM   22  C   UNL     1      39.688 -10.326  -1.267  1.00  0.00     0.148 C 
BRANCH  22  23
HETATM   23  C   UNL     1      40.561 -11.178  -2.139  1.00  0.00    -0.009 A 
HETATM   24  S   UNL     1      42.244 -10.865  -2.253  1.00  0.00    -0.106 SA
HETATM   25  C   UNL     1      42.485 -12.185  -3.310  1.00  0.00     0.050 A 
HETATM   26  C   UNL     1      41.314 -12.864  -3.562  1.00  0.00     0.008 A 
HETATM   27  C   UNL     1      40.203 -12.283  -2.886  1.00  0.00     0.015 A 
ENDBRANCH  22  23
ENDBRANCH  19  22
ENDBRANCH   7  18
BRANCH   1  28
HETATM   28  C   UNL     1      43.526 -17.415   3.773  1.00  0.00     0.273 C 
BRANCH  28  29
HETATM   29  C   UNL     1      43.826 -18.880   3.931  1.00  0.00    -0.031 A 
HETATM   30  C   UNL     1      44.069 -19.686   2.809  1.00  0.00     0.018 A 
HETATM   31  C   UNL     1      44.356 -21.051   2.953  1.00  0.00    -0.028 A 
HETATM   32  C   UNL     1      44.439 -21.598   4.241  1.00  0.00     0.077 A 
HETATM   33  C   UNL     1      44.650 -21.876   1.730  1.00  0.00     0.051 C 
HETATM   34  C   UNL     1      44.214 -20.813   5.380  1.00  0.00    -0.028 A 
HETATM   35  C   UNL     1      44.308 -21.375   6.772  1.00  0.00     0.051 C 
HETATM   36  C   UNL     1      43.897 -19.456   5.209  1.00  0.00     0.018 A 
BRANCH  32  37
HETATM   37  O   UNL     1      44.757 -22.924   4.331  1.00  0.00    -0.360 OA
HETATM   38  H   UNL     1      45.718 -23.051   4.281  1.00  0.00     0.217 HD
ENDBRANCH  32  37
ENDBRANCH  28  29
ENDBRANCH   1  28
TORSDOF 7
ENDMDL
MODEL 10
REMARK VINA RESULT:      -8.5      4.355      9.289
REMARK  7 active torsions:
REMARK  status: ('A' for Active; 'I' for Inactive)
REMARK    1  A    between atoms: C_3  and  O_4 
REMARK    2  A    between atoms: C_8  and  C_9 
REMARK    3  A    between atoms: C_9  and  N_10 
REMARK    4  A    between atoms: C_15  and  O_16 
REMARK    5  A    between atoms: C_18  and  N_19 
REMARK       I    between atoms: N_19  and  C_20 
REMARK    6  A    between atoms: C_20  and  C_21 
REMARK    7  A    between atoms: C_21  and  C_22 
ROOT
HETATM    1  N   UNL     1      41.781 -16.318   2.594  1.00  0.00    -0.067 N 
HETATM    2  H   UNL     1      42.101 -16.500   3.553  1.00  0.00     0.280 HD
HETATM    3  C   UNL     1      42.595 -15.132   2.126  1.00  0.00     0.236 C 
HETATM    4  C   UNL     1      42.059 -14.585   0.807  1.00  0.00     0.045 C 
HETATM    5  C   UNL     1      40.547 -14.256   0.855  1.00  0.00     0.019 A 
HETATM    6  C   UNL     1      40.197 -12.969   1.719  1.00  0.00     0.161 A 
HETATM    7  C   UNL     1      39.418 -11.970   0.798  1.00  0.00     0.148 A 
HETATM    8  C   UNL     1      39.402 -12.644  -0.540  1.00  0.00    -0.026 A 
HETATM    9  C   UNL     1      40.038 -13.885  -0.523  1.00  0.00    -0.038 A 
HETATM   10  C   UNL     1      38.868 -12.129  -1.717  1.00  0.00     0.010 A 
HETATM   11  C   UNL     1      38.960 -12.882  -2.887  1.00  0.00     0.001 A 
HETATM   12  C   UNL     1      39.586 -14.131  -2.874  1.00  0.00     0.001 A 
HETATM   13  C   UNL     1      40.127 -14.639  -1.692  1.00  0.00     0.009 A 
HETATM   14  C   UNL     1      39.788 -15.503   1.361  1.00  0.00     0.045 C 
HETATM   15  C   UNL     1      40.314 -15.986   2.703  1.00  0.00     0.236 C 
ENDROOT
BRANCH   6  16
HETATM   16  O   UNL     1      41.415 -12.376   2.219  1.00  0.00    -0.387 OA
HETATM   17  C   UNL     1      41.322 -11.976   3.585  1.00  0.00     0.202 C 
ENDBRANCH   6  16
BRANCH   7  18
HETATM   18  N   UNL     1      38.088 -11.559   1.228  1.00  0.00    -0.350 N 
HETATM   19  C   UNL     1      37.635 -10.261   1.258  1.00  0.00     0.223 C 
HETATM   20  O   UNL     1      38.208  -9.356   0.648  1.00  0.00    -0.273 OA
HETATM   21  H   UNL     1      37.632 -12.208   1.861  1.00  0.00     0.163 HD
BRANCH  19  22
HETATM   22  C   UNL     1      36.373  -9.944   2.057  1.00  0.00     0.148 C 
BRANCH  22  23
HETATM   23  C   UNL     1      35.081 -10.122   1.317  1.00  0.00    -0.009 A 
HETATM   24  S   UNL     1      33.587  -9.768   2.082  1.00  0.00    -0.106 SA
HETATM   25  C   UNL     1      32.699 -10.157   0.675  1.00  0.00     0.050 A 
HETATM   26  C   UNL     1      33.520 -10.533  -0.364  1.00  0.00     0.008 A 
HETATM   27  C   UNL     1      34.895 -10.513   0.005  1.00  0.00     0.015 A 
ENDBRANCH  22  23
ENDBRANCH  19  22
ENDBRANCH   7  18
BRANCH   1  28
HETATM   28  C   UNL     1      42.041 -17.614   1.851  1.00  0.00     0.273 C 
BRANCH  28  29
HETATM   29  C   UNL     1      42.954 -18.564   2.576  1.00  0.00    -0.031 A 
HETATM   30  C   UNL     1      43.417 -18.266   3.867  1.00  0.00     0.018 A 
HETATM   31  C   UNL     1      44.263 -19.152   4.550  1.00  0.00    -0.028 A 
HETATM   32  C   UNL     1      44.610 -20.367   3.943  1.00  0.00     0.077 A 
HETATM   33  C   UNL     1      44.708 -18.817   5.947  1.00  0.00     0.051 C 
HETATM   34  C   UNL     1      44.151 -20.696   2.660  1.00  0.00    -0.028 A 
HETATM   35  C   UNL     1      44.500 -21.998   1.994  1.00  0.00     0.051 C 
HETATM   36  C   UNL     1      43.331 -19.778   1.983  1.00  0.00     0.018 A 
BRANCH  32  37
HETATM   37  O   UNL     1      45.405 -21.213   4.662  1.00  0.00    -0.360 OA
HETATM   38  H   UNL     1      44.868 -21.811   5.205  1.00  0.00     0.217 HD
ENDBRANCH  32  37
ENDBRANCH  28  29
ENDBRANCH   1  28
TORSDOF 7
ENDMDL
