MODEL 1
REMARK VINA RESULT:      -8.0      0.000      0.000
REMARK  3 active torsions:
REMARK  status: ('A' for Active; 'I' for Inactive)
REMARK    1  A    between atoms: C_10  and  C_11 
REMARK       I    between atoms: C_11  and  N_12 
REMARK    2  A    between atoms: C_14  and  O_15 
REMARK    3  A    between atoms: O_15  and  C_16 
ROOT
HETATM    1  C   UNL     1      42.005 -13.918   2.824  1.00  0.00     0.255 C 
HETATM    2  N   UNL     1      42.085 -15.157   3.435  1.00  0.00    -0.345 N 
HETATM    3  C   UNL     1      43.383 -15.800   3.605  1.00  0.00     0.158 C 
HETATM    4  C   UNL     1      43.072 -17.303   3.648  1.00  0.00     0.148 C 
HETATM    5  C   UNL     1      41.700 -17.305   4.320  1.00  0.00     0.054 C 
HETATM    6  C   UNL     1      41.010 -16.106   3.688  1.00  0.00     0.129 C 
HETATM    7  O   UNL     1      42.995 -13.266   2.503  1.00  0.00    -0.267 OA
ENDROOT
BRANCH   1   8
HETATM    8  C   UNL     1      40.682 -13.374   2.468  1.00  0.00     0.050 A 
HETATM    9  C   UNL     1      40.020 -12.603   3.423  1.00  0.00     0.136 A 
HETATM   10  N   UNL     1      38.812 -12.006   3.259  1.00  0.00    -0.240 NA
HETATM   11  C   UNL     1      38.277 -12.254   2.049  1.00  0.00     0.155 A 
HETATM   12  N   UNL     1      37.081 -11.796   1.584  1.00  0.00    -0.260 N 
HETATM   13  C   UNL     1      38.812 -13.025   1.026  1.00  0.00     0.038 A 
HETATM   14  N   UNL     1      36.795 -12.191   0.327  1.00  0.00    -0.177 NA
HETATM   15  H   UNL     1      36.424 -11.207   2.081  1.00  0.00     0.191 HD
HETATM   16  C   UNL     1      37.848 -12.949  -0.015  1.00  0.00     0.065 A 
HETATM   17  C   UNL     1      37.915 -13.573  -1.359  1.00  0.00     0.073 C 
HETATM   18  C   UNL     1      40.058 -13.634   1.244  1.00  0.00     0.036 A 
ENDBRANCH   1   8
BRANCH   4  19
HETATM   19  O   UNL     1      44.053 -17.984   4.420  1.00  0.00    -0.344 OA
BRANCH  19  20
HETATM   20  C   UNL     1      44.253 -19.313   4.168  1.00  0.00     0.070 A 
HETATM   21  C   UNL     1      44.133 -19.941   2.928  1.00  0.00     0.060 A 
HETATM   22  C   UNL     1      44.351 -21.317   2.823  1.00  0.00     0.036 A 
HETATM   23 CL   UNL     1      44.193 -22.086   1.290  1.00  0.00    -0.084 Cl
HETATM   24  C   UNL     1      44.688 -22.075   3.942  1.00  0.00     0.024 A 
HETATM   25  C   UNL     1      44.802 -21.452   5.183  1.00  0.00     0.004 A 
HETATM   26  C   UNL     1      44.579 -20.078   5.292  1.00  0.00     0.037 A 
ENDBRANCH  19  20
ENDBRANCH   4  19
TORSDOF 3
ENDMDL
MODEL 2
REMARK VINA RESULT:      -7.9      4.109      8.647
REMARK  3 active torsions:
REMARK  status: ('A' for Active; 'I' for Inactive)
REMARK    1  A    between atoms: C_10  and  C_11 
REMARK       I    between atoms: C_11  and  N_12 
REMARK    2  A    between atoms: C_14  and  O_15 
REMARK    3  A    between atoms: O_15  and  C_16 
ROOT
HETATM    1  C   UNL     1      43.520 -17.469   2.088  1.00  0.00     0.255 C 
HETATM    2  N   UNL     1      42.294 -16.905   1.785  1.00  0.00    -0.345 N 
HETATM    3  C   UNL     1      42.176 -15.983   0.661  1.00  0.00     0.158 C 
HETATM    4  C   UNL     1      40.984 -15.084   1.015  1.00  0.00     0.148 C 
HETATM    5  C   UNL     1      40.097 -16.057   1.792  1.00  0.00     0.054 C 
HETATM    6  C   UNL     1      41.101 -16.845   2.618  1.00  0.00     0.129 C 
HETATM    7  O   UNL     1      44.517 -17.317   1.386  1.00  0.00    -0.267 OA
ENDROOT
BRANCH   1   8
HETATM    8  C   UNL     1      43.675 -18.227   3.342  1.00  0.00     0.050 A 
HETATM    9  C   UNL     1      44.091 -19.555   3.250  1.00  0.00     0.136 A 
HETATM   10  N   UNL     1      44.307 -20.392   4.297  1.00  0.00    -0.240 NA
HETATM   11  C   UNL     1      44.052 -19.806   5.483  1.00  0.00     0.155 A 
HETATM   12  N   UNL     1      44.176 -20.381   6.712  1.00  0.00    -0.260 N 
HETATM   13  C   UNL     1      43.606 -18.512   5.712  1.00  0.00     0.038 A 
HETATM   14  N   UNL     1      43.864 -19.559   7.734  1.00  0.00    -0.177 NA
HETATM   15  H   UNL     1      44.475 -21.328   6.910  1.00  0.00     0.191 HD
HETATM   16  C   UNL     1      43.507 -18.418   7.126  1.00  0.00     0.065 A 
HETATM   17  C   UNL     1      43.096 -17.240   7.928  1.00  0.00     0.073 C 
HETATM   18  C   UNL     1      43.383 -17.686   4.598  1.00  0.00     0.036 A 
ENDBRANCH   1   8
BRANCH   4  19
HETATM   19  O   UNL     1      40.357 -14.611  -0.171  1.00  0.00    -0.344 OA
BRANCH  19  20
HETATM   20  C   UNL     1      41.104 -13.855  -1.031  1.00  0.00     0.070 A 
HETATM   21  C   UNL     1      41.860 -12.733  -0.692  1.00  0.00     0.060 A 
HETATM   22  C   UNL     1      42.563 -12.044  -1.684  1.00  0.00     0.036 A 
HETATM   23 CL   UNL     1      43.488 -10.654  -1.259  1.00  0.00    -0.084 Cl
HETATM   24  C   UNL     1      42.520 -12.463  -3.012  1.00  0.00     0.024 A 
HETATM   25  C   UNL     1      41.762 -13.580  -3.354  1.00  0.00     0.004 A 
HETATM   26  C   UNL     1      41.053 -14.267  -2.365  1.00  0.00     0.037 A 
ENDBRANCH  19  20
ENDBRANCH   4  19
TORSDOF 3
ENDMDL
MODEL 3
REMARK VINA RESULT:      -7.9      2.697      3.291
REMARK  3 active torsions:
REMARK  status: ('A' for Active; 'I' for Inactive)
REMARK    1  A    between atoms: C_10  and  C_11 
REMARK       I    between atoms: C_11  and  N_12 
REMARK    2  A    between atoms: C_14  and  O_15 
REMARK    3  A    between atoms: O_15  and  C_16 
ROOT
HETATM    1  C   UNL     1      41.871 -13.424   0.696  1.00  0.00     0.255 C 
HETATM    2  N   UNL     1      41.657 -14.728   1.105  1.00  0.00    -0.345 N 
HETATM    3  C   UNL     1      42.360 -15.249   2.272  1.00  0.00     0.158 C 
HETATM    4  C   UNL     1      42.442 -16.763   2.037  1.00  0.00     0.148 C 
HETATM    5  C   UNL     1      41.138 -17.019   1.281  1.00  0.00     0.054 C 
HETATM    6  C   UNL     1      41.040 -15.815   0.357  1.00  0.00     0.129 C 
HETATM    7  O   UNL     1      42.553 -12.627   1.335  1.00  0.00    -0.267 OA
ENDROOT
BRANCH   1   8
HETATM    8  C   UNL     1      41.324 -12.974  -0.596  1.00  0.00     0.050 A 
HETATM    9  C   UNL     1      42.173 -12.993  -1.701  1.00  0.00     0.136 A 
HETATM   10  N   UNL     1      41.834 -12.637  -2.967  1.00  0.00    -0.240 NA
HETATM   11  C   UNL     1      40.555 -12.227  -3.059  1.00  0.00     0.155 A 
HETATM   12  N   UNL     1      39.919 -11.810  -4.190  1.00  0.00    -0.260 N 
HETATM   13  C   UNL     1      39.619 -12.131  -2.039  1.00  0.00     0.038 A 
HETATM   14  N   UNL     1      38.629 -11.465  -3.996  1.00  0.00    -0.177 NA
HETATM   15  H   UNL     1      40.315 -11.748  -5.119  1.00  0.00     0.191 HD
HETATM   16  C   UNL     1      38.445 -11.652  -2.680  1.00  0.00     0.065 A 
HETATM   17  C   UNL     1      37.122 -11.385  -2.065  1.00  0.00     0.073 C 
HETATM   18  C   UNL     1      40.018 -12.497  -0.743  1.00  0.00     0.036 A 
ENDBRANCH   1   8
BRANCH   4  19
HETATM   19  O   UNL     1      42.488 -17.451   3.281  1.00  0.00    -0.344 OA
BRANCH  19  20
HETATM   20  C   UNL     1      43.267 -18.571   3.363  1.00  0.00     0.070 A 
HETATM   21  C   UNL     1      43.348 -19.586   2.408  1.00  0.00     0.060 A 
HETATM   22  C   UNL     1      44.176 -20.688   2.635  1.00  0.00     0.036 A 
HETATM   23 CL   UNL     1      44.265 -21.940   1.456  1.00  0.00    -0.084 Cl
HETATM   24  C   UNL     1      44.927 -20.788   3.804  1.00  0.00     0.024 A 
HETATM   25  C   UNL     1      44.844 -19.780   4.761  1.00  0.00     0.004 A 
HETATM   26  C   UNL     1      44.011 -18.681   4.541  1.00  0.00     0.037 A 
ENDBRANCH  19  20
ENDBRANCH   4  19
TORSDOF 3
ENDMDL
MODEL 4
REMARK VINA RESULT:      -7.8      1.789      3.009
REMARK  3 active torsions:
REMARK  status: ('A' for Active; 'I' for Inactive)
REMARK    1  A    between atoms: C_10  and  C_11 
REMARK       I    between atoms: C_11  and  N_12 
REMARK    2  A    between atoms: C_14  and  O_15 
REMARK    3  A    between atoms: O_15  and  C_16 
ROOT
HETATM    1  C   UNL     1      42.066 -13.370   3.064  1.00  0.00     0.255 C 
HETATM    2  N   UNL     1      42.240 -14.485   3.863  1.00  0.00    -0.345 N 
HETATM    3  C   UNL     1      43.347 -15.399   3.606  1.00  0.00     0.158 C 
HETATM    4  C   UNL     1      42.871 -16.754   4.147  1.00  0.00     0.148 C 
HETATM    5  C   UNL     1      42.002 -16.316   5.326  1.00  0.00     0.054 C 
HETATM    6  C   UNL     1      41.285 -15.090   4.781  1.00  0.00     0.129 C 
HETATM    7  O   UNL     1      42.871 -13.039   2.196  1.00  0.00    -0.267 OA
ENDROOT
BRANCH   1   8
HETATM    8  C   UNL     1      40.834 -12.573   3.195  1.00  0.00     0.050 A 
HETATM    9  C   UNL     1      39.794 -12.836   2.305  1.00  0.00     0.136 A 
HETATM   10  N   UNL     1      38.584 -12.219   2.294  1.00  0.00    -0.240 NA
HETATM   11  C   UNL     1      38.484 -11.273   3.248  1.00  0.00     0.155 A 
HETATM   12  N   UNL     1      37.399 -10.485   3.493  1.00  0.00    -0.260 N 
HETATM   13  C   UNL     1      39.448 -10.892   4.171  1.00  0.00     0.038 A 
HETATM   14  N   UNL     1      37.569  -9.627   4.520  1.00  0.00    -0.177 NA
HETATM   15  H   UNL     1      36.518 -10.495   2.995  1.00  0.00     0.191 HD
HETATM   16  C   UNL     1      38.823  -9.867   4.931  1.00  0.00     0.065 A 
HETATM   17  C   UNL     1      39.392  -9.114   6.075  1.00  0.00     0.073 C 
HETATM   18  C   UNL     1      40.688 -11.550   4.136  1.00  0.00     0.036 A 
ENDBRANCH   1   8
BRANCH   4  19
HETATM   19  O   UNL     1      43.985 -17.536   4.559  1.00  0.00    -0.344 OA
BRANCH  19  20
HETATM   20  C   UNL     1      44.096 -18.803   4.057  1.00  0.00     0.070 A 
HETATM   21  C   UNL     1      44.567 -19.921   4.747  1.00  0.00     0.060 A 
HETATM   22  C   UNL     1      44.644 -21.155   4.098  1.00  0.00     0.036 A 
HETATM   23 CL   UNL     1      45.234 -22.529   4.954  1.00  0.00    -0.084 Cl
HETATM   24  C   UNL     1      44.254 -21.289   2.767  1.00  0.00     0.024 A 
HETATM   25  C   UNL     1      43.789 -20.173   2.074  1.00  0.00     0.004 A 
HETATM   26  C   UNL     1      43.718 -18.936   2.718  1.00  0.00     0.037 A 
ENDBRANCH  19  20
ENDBRANCH   4  19
TORSDOF 3
ENDMDL
MODEL 5
REMARK VINA RESULT:      -7.7      2.046      2.790
REMARK  3 active torsions:
REMARK  status: ('A' for Active; 'I' for Inactive)
REMARK    1  A    between atoms: C_10  and  C_11 
REMARK       I    between atoms: C_11  and  N_12 
REMARK    2  A    between atoms: C_14  and  O_15 
REMARK    3  A    between atoms: O_15  and  C_16 
ROOT
HETATM    1  C   UNL     1      41.484 -13.783   0.516  1.00  0.00     0.255 C 
HETATM    2  N   UNL     1      41.497 -14.868   1.373  1.00  0.00    -0.345 N 
HETATM    3  C   UNL     1      42.688 -15.159   2.161  1.00  0.00     0.158 C 
HETATM    4  C   UNL     1      42.628 -16.671   2.419  1.00  0.00     0.148 C 
HETATM    5  C   UNL     1      41.119 -16.899   2.505  1.00  0.00     0.054 C 
HETATM    6  C   UNL     1      40.577 -15.997   1.407  1.00  0.00     0.129 C 
HETATM    7  O   UNL     1      42.403 -12.969   0.456  1.00  0.00    -0.267 OA
ENDROOT
BRANCH   1   8
HETATM    8  C   UNL     1      40.363 -13.619  -0.426  1.00  0.00     0.050 A 
HETATM    9  C   UNL     1      39.489 -12.554  -0.215  1.00  0.00     0.136 A 
HETATM   10  N   UNL     1      38.420 -12.239  -0.992  1.00  0.00    -0.240 NA
HETATM   11  C   UNL     1      38.261 -13.099  -2.016  1.00  0.00     0.155 A 
HETATM   12  N   UNL     1      37.288 -13.050  -2.968  1.00  0.00    -0.260 N 
HETATM   13  C   UNL     1      39.035 -14.210  -2.320  1.00  0.00     0.038 A 
HETATM   14  N   UNL     1      37.372 -14.034  -3.887  1.00  0.00    -0.177 NA
HETATM   15  H   UNL     1      36.546 -12.365  -3.041  1.00  0.00     0.191 HD
HETATM   16  C   UNL     1      38.434 -14.750  -3.489  1.00  0.00     0.065 A 
HETATM   17  C   UNL     1      38.868 -15.938  -4.264  1.00  0.00     0.073 C 
HETATM   18  C   UNL     1      40.122 -14.504  -1.481  1.00  0.00     0.036 A 
ENDBRANCH   1   8
BRANCH   4  19
HETATM   19  O   UNL     1      43.292 -16.987   3.636  1.00  0.00    -0.344 OA
BRANCH  19  20
HETATM   20  C   UNL     1      43.784 -18.254   3.785  1.00  0.00     0.070 A 
HETATM   21  C   UNL     1      43.846 -19.232   2.792  1.00  0.00     0.060 A 
HETATM   22  C   UNL     1      44.359 -20.496   3.094  1.00  0.00     0.036 A 
HETATM   23 CL   UNL     1      44.426 -21.700   1.864  1.00  0.00    -0.084 Cl
HETATM   24  C   UNL     1      44.813 -20.795   4.376  1.00  0.00     0.024 A 
HETATM   25  C   UNL     1      44.747 -19.823   5.371  1.00  0.00     0.004 A 
HETATM   26  C   UNL     1      44.228 -18.561   5.074  1.00  0.00     0.037 A 
ENDBRANCH  19  20
ENDBRANCH   4  19
TORSDOF 3
ENDMDL
MODEL 6
REMARK VINA RESULT:      -7.7      3.776      8.647
REMARK  3 active torsions:
REMARK  status: ('A' for Active; 'I' for Inactive)
REMARK    1  A    between atoms: C_10  and  C_11 
REMARK       I    between atoms: C_11  and  N_12 
REMARK    2  A    between atoms: C_14  and  O_15 
REMARK    3  A    between atoms: O_15  and  C_16 
ROOT
HETATM    1  C   UNL     1      43.438 -16.555   3.815  1.00  0.00     0.255 C 
HETATM    2  N   UNL     1      42.985 -16.208   2.555  1.00  0.00    -0.345 N 
HETATM    3  C   UNL     1      42.400 -14.891   2.331  1.00  0.00     0.158 C 
HETATM    4  C   UNL     1      41.446 -15.083   1.144  1.00  0.00     0.148 C 
HETATM    5  C   UNL     1      42.180 -16.158   0.342  1.00  0.00     0.054 C 
HETATM    6  C   UNL     1      42.711 -17.084   1.424  1.00  0.00     0.129 C 
HETATM    7  O   UNL     1      43.475 -15.763   4.753  1.00  0.00    -0.267 OA
ENDROOT
BRANCH   1   8
HETATM    8  C   UNL     1      43.831 -17.951   4.081  1.00  0.00     0.050 A 
HETATM    9  C   UNL     1      44.224 -18.278   5.378  1.00  0.00     0.136 A 
HETATM   10  N   UNL     1      44.593 -19.512   5.806  1.00  0.00    -0.240 NA
HETATM   11  C   UNL     1      44.566 -20.427   4.818  1.00  0.00     0.155 A 
HETATM   12  N   UNL     1      44.879 -21.748   4.931  1.00  0.00    -0.260 N 
HETATM   13  C   UNL     1      44.227 -20.229   3.486  1.00  0.00     0.038 A 
HETATM   14  N   UNL     1      44.754 -22.440   3.780  1.00  0.00    -0.177 NA
HETATM   15  H   UNL     1      45.178 -22.230   5.770  1.00  0.00     0.191 HD
HETATM   16  C   UNL     1      44.364 -21.512   2.893  1.00  0.00     0.065 A 
HETATM   17  C   UNL     1      44.105 -21.889   1.482  1.00  0.00     0.073 C 
HETATM   18  C   UNL     1      43.864 -18.933   3.086  1.00  0.00     0.036 A 
ENDBRANCH   1   8
BRANCH   4  19
HETATM   19  O   UNL     1      41.314 -13.866   0.420  1.00  0.00    -0.344 OA
BRANCH  19  20
HETATM   20  C   UNL     1      40.853 -13.934  -0.866  1.00  0.00     0.070 A 
HETATM   21  C   UNL     1      39.569 -14.311  -1.259  1.00  0.00     0.060 A 
HETATM   22  C   UNL     1      39.243 -14.354  -2.617  1.00  0.00     0.036 A 
HETATM   23 CL   UNL     1      37.657 -14.827  -3.094  1.00  0.00    -0.084 Cl
HETATM   24  C   UNL     1      40.184 -14.024  -3.588  1.00  0.00     0.024 A 
HETATM   25  C   UNL     1      41.469 -13.653  -3.199  1.00  0.00     0.004 A 
HETATM   26  C   UNL     1      41.800 -13.616  -1.843  1.00  0.00     0.037 A 
ENDBRANCH  19  20
ENDBRANCH   4  19
TORSDOF 3
ENDMDL
MODEL 7
REMARK VINA RESULT:      -7.6      1.634      2.468
REMARK  3 active torsions:
REMARK  status: ('A' for Active; 'I' for Inactive)
REMARK    1  A    between atoms: C_10  and  C_11 
REMARK       I    between atoms: C_11  and  N_12 
REMARK    2  A    between atoms: C_14  and  O_15 
REMARK    3  A    between atoms: O_15  and  C_16 
ROOT
HETATM    1  C   UNL     1      41.209 -14.260   1.037  1.00  0.00     0.255 C 
HETATM    2  N   UNL     1      41.474 -15.130   2.078  1.00  0.00    -0.345 N 
HETATM    3  C   UNL     1      42.695 -15.928   2.066  1.00  0.00     0.158 C 
HETATM    4  C   UNL     1      42.359 -17.172   2.899  1.00  0.00     0.148 C 
HETATM    5  C   UNL     1      41.385 -16.591   3.924  1.00  0.00     0.054 C 
HETATM    6  C   UNL     1      40.554 -15.626   3.093  1.00  0.00     0.129 C 
HETATM    7  O   UNL     1      42.010 -14.036   0.133  1.00  0.00    -0.267 OA
ENDROOT
BRANCH   1   8
HETATM    8  C   UNL     1      39.884 -13.619   0.952  1.00  0.00     0.050 A 
HETATM    9  C   UNL     1      38.920 -14.227   0.149  1.00  0.00     0.136 A 
HETATM   10  N   UNL     1      37.646 -13.791  -0.027  1.00  0.00    -0.240 NA
HETATM   11  C   UNL     1      37.394 -12.658   0.655  1.00  0.00     0.155 A 
HETATM   12  N   UNL     1      36.213 -11.979   0.685  1.00  0.00    -0.260 N 
HETATM   13  C   UNL     1      38.266 -11.939   1.460  1.00  0.00     0.038 A 
HETATM   14  N   UNL     1      36.235 -10.877   1.462  1.00  0.00    -0.177 NA
HETATM   15  H   UNL     1      35.360 -12.226   0.198  1.00  0.00     0.191 HD
HETATM   16  C   UNL     1      37.491 -10.845   1.932  1.00  0.00     0.065 A 
HETATM   17  C   UNL     1      37.918  -9.764   2.852  1.00  0.00     0.073 C 
HETATM   18  C   UNL     1      39.577 -12.421   1.603  1.00  0.00     0.036 A 
ENDBRANCH   1   8
BRANCH   4  19
HETATM   19  O   UNL     1      43.536 -17.689   3.506  1.00  0.00    -0.344 OA
BRANCH  19  20
HETATM   20  C   UNL     1      43.815 -19.017   3.332  1.00  0.00     0.070 A 
HETATM   21  C   UNL     1      44.368 -19.872   4.286  1.00  0.00     0.060 A 
HETATM   22  C   UNL     1      44.616 -21.207   3.960  1.00  0.00     0.036 A 
HETATM   23 CL   UNL     1      45.306 -22.254   5.141  1.00  0.00    -0.084 Cl
HETATM   24  C   UNL     1      44.319 -21.701   2.692  1.00  0.00     0.024 A 
HETATM   25  C   UNL     1      43.772 -20.848   1.735  1.00  0.00     0.004 A 
HETATM   26  C   UNL     1      43.529 -19.511   2.056  1.00  0.00     0.037 A 
ENDBRANCH  19  20
ENDBRANCH   4  19
TORSDOF 3
ENDMDL
MODEL 8
REMARK VINA RESULT:      -7.6      3.027      4.685
REMARK  3 active torsions:
REMARK  status: ('A' for Active; 'I' for Inactive)
REMARK    1  A    between atoms: C_10  and  C_11 
REMARK       I    between atoms: C_11  and  N_12 
REMARK    2  A    between atoms: C_14  and  O_15 
REMARK    3  A    between atoms: O_15  and  C_16 
ROOT
HETATM    1  C   UNL     1      40.570 -13.666   4.470  1.00  0.00     0.255 C 
HETATM    2  N   UNL     1      41.566 -14.337   3.783  1.00  0.00    -0.345 N 
HETATM    3  C   UNL     1      41.414 -15.755   3.482  1.00  0.00     0.158 C 
HETATM    4  C   UNL     1      42.848 -16.289   3.374  1.00  0.00     0.148 C 
HETATM    5  C   UNL     1      43.578 -15.073   2.803  1.00  0.00     0.054 C 
HETATM    6  C   UNL     1      42.941 -13.914   3.553  1.00  0.00     0.129 C 
HETATM    7  O   UNL     1      39.493 -14.182   4.756  1.00  0.00    -0.267 OA
ENDROOT
BRANCH   1   8
HETATM    8  C   UNL     1      40.823 -12.296   4.952  1.00  0.00     0.050 A 
HETATM    9  C   UNL     1      40.667 -11.251   4.043  1.00  0.00     0.136 A 
HETATM   10  N   UNL     1      40.834  -9.931   4.317  1.00  0.00    -0.240 NA
HETATM   11  C   UNL     1      41.200  -9.716   5.595  1.00  0.00     0.155 A 
HETATM   12  N   UNL     1      41.440  -8.506   6.174  1.00  0.00    -0.260 N 
HETATM   13  C   UNL     1      41.419 -10.662   6.587  1.00  0.00     0.038 A 
HETATM   14  N   UNL     1      41.782  -8.581   7.476  1.00  0.00    -0.177 NA
HETATM   15  H   UNL     1      41.380  -7.599   5.728  1.00  0.00     0.191 HD
HETATM   16  C   UNL     1      41.778  -9.899   7.730  1.00  0.00     0.065 A 
HETATM   17  C   UNL     1      42.102 -10.399   9.088  1.00  0.00     0.073 C 
HETATM   18  C   UNL     1      41.247 -12.015   6.254  1.00  0.00     0.036 A 
ENDBRANCH   1   8
BRANCH   4  19
HETATM   19  O   UNL     1      42.891 -17.406   2.495  1.00  0.00    -0.344 OA
BRANCH  19  20
HETATM   20  C   UNL     1      43.537 -18.532   2.923  1.00  0.00     0.070 A 
HETATM   21  C   UNL     1      43.724 -19.702   2.185  1.00  0.00     0.060 A 
HETATM   22  C   UNL     1      44.391 -20.786   2.760  1.00  0.00     0.036 A 
HETATM   23 CL   UNL     1      44.612 -22.229   1.846  1.00  0.00    -0.084 Cl
HETATM   24  C   UNL     1      44.876 -20.716   4.065  1.00  0.00     0.024 A 
HETATM   25  C   UNL     1      44.686 -19.552   4.805  1.00  0.00     0.004 A 
HETATM   26  C   UNL     1      44.013 -18.469   4.236  1.00  0.00     0.037 A 
ENDBRANCH  19  20
ENDBRANCH   4  19
TORSDOF 3
ENDMDL
MODEL 9
REMARK VINA RESULT:      -7.6      3.191      4.802
REMARK  3 active torsions:
REMARK  status: ('A' for Active; 'I' for Inactive)
REMARK    1  A    between atoms: C_10  and  C_11 
REMARK       I    between atoms: C_11  and  N_12 
REMARK    2  A    between atoms: C_14  and  O_15 
REMARK    3  A    between atoms: O_15  and  C_16 
ROOT
HETATM    1  C   UNL     1      41.797 -13.327   4.254  1.00  0.00     0.255 C 
HETATM    2  N   UNL     1      42.486 -14.511   4.441  1.00  0.00    -0.345 N 
HETATM    3  C   UNL     1      43.031 -15.225   3.292  1.00  0.00     0.158 C 
HETATM    4  C   UNL     1      43.087 -16.694   3.734  1.00  0.00     0.148 C 
HETATM    5  C   UNL     1      43.377 -16.545   5.227  1.00  0.00     0.054 C 
HETATM    6  C   UNL     1      42.510 -15.360   5.624  1.00  0.00     0.129 C 
HETATM    7  O   UNL     1      41.705 -12.773   3.161  1.00  0.00    -0.267 OA
ENDROOT
BRANCH   1   8
HETATM    8  C   UNL     1      41.074 -12.726   5.389  1.00  0.00     0.050 A 
HETATM    9  C   UNL     1      39.701 -12.955   5.478  1.00  0.00     0.136 A 
HETATM   10  N   UNL     1      38.884 -12.502   6.463  1.00  0.00    -0.240 NA
HETATM   11  C   UNL     1      39.544 -11.761   7.374  1.00  0.00     0.155 A 
HETATM   12  N   UNL     1      39.005 -11.170   8.478  1.00  0.00    -0.260 N 
HETATM   13  C   UNL     1      40.892 -11.432   7.387  1.00  0.00     0.038 A 
HETATM   14  N   UNL     1      39.899 -10.493   9.227  1.00  0.00    -0.177 NA
HETATM   15  H   UNL     1      38.036 -11.202   8.770  1.00  0.00     0.191 HD
HETATM   16  C   UNL     1      41.052 -10.645   8.559  1.00  0.00     0.065 A 
HETATM   17  C   UNL     1      42.303 -10.041   9.079  1.00  0.00     0.073 C 
HETATM   18  C   UNL     1      41.696 -11.913   6.341  1.00  0.00     0.036 A 
ENDBRANCH   1   8
BRANCH   4  19
HETATM   19  O   UNL     1      44.131 -17.372   3.046  1.00  0.00    -0.344 OA
BRANCH  19  20
HETATM   20  C   UNL     1      44.110 -18.740   3.042  1.00  0.00     0.070 A 
HETATM   21  C   UNL     1      44.617 -19.572   4.041  1.00  0.00     0.060 A 
HETATM   22  C   UNL     1      44.543 -20.958   3.893  1.00  0.00     0.036 A 
HETATM   23 CL   UNL     1      45.178 -21.979   5.127  1.00  0.00    -0.084 Cl
HETATM   24  C   UNL     1      43.966 -21.526   2.760  1.00  0.00     0.024 A 
HETATM   25  C   UNL     1      43.464 -20.698   1.758  1.00  0.00     0.004 A 
HETATM   26  C   UNL     1      43.543 -19.312   1.900  1.00  0.00     0.037 A 
ENDBRANCH  19  20
ENDBRANCH   4  19
TORSDOF 3
ENDMDL
MODEL 10
REMARK VINA RESULT:      -7.5      5.804      8.885
REMARK  3 active torsions:
REMARK  status: ('A' for Active; 'I' for Inactive)
REMARK    1  A    between atoms: C_10  and  C_11 
REMARK       I    between atoms: C_11  and  N_12 
REMARK    2  A    between atoms: C_14  and  O_15 
REMARK    3  A    between atoms: O_15  and  C_16 
ROOT
HETATM    1  C   UNL     1      43.144 -16.656   6.744  1.00  0.00     0.255 C 
HETATM    2  N   UNL     1      43.994 -15.576   6.896  1.00  0.00    -0.345 N 
HETATM    3  C   UNL     1      44.002 -14.828   8.148  1.00  0.00     0.158 C 
HETATM    4  C   UNL     1      44.471 -13.419   7.760  1.00  0.00     0.148 C 
HETATM    5  C   UNL     1      45.428 -13.729   6.609  1.00  0.00     0.054 C 
HETATM    6  C   UNL     1      44.709 -14.842   5.861  1.00  0.00     0.129 C 
HETATM    7  O   UNL     1      42.455 -17.098   7.660  1.00  0.00    -0.267 OA
ENDROOT
BRANCH   1   8
HETATM    8  C   UNL     1      42.990 -17.271   5.413  1.00  0.00     0.050 A 
HETATM    9  C   UNL     1      42.051 -16.714   4.546  1.00  0.00     0.136 A 
HETATM   10  N   UNL     1      41.794 -17.134   3.281  1.00  0.00    -0.240 NA
HETATM   11  C   UNL     1      42.544 -18.197   2.932  1.00  0.00     0.155 A 
HETATM   12  N   UNL     1      42.520 -18.843   1.732  1.00  0.00    -0.260 N 
HETATM   13  C   UNL     1      43.485 -18.862   3.704  1.00  0.00     0.038 A 
HETATM   14  N   UNL     1      43.387 -19.873   1.649  1.00  0.00    -0.177 NA
HETATM   15  H   UNL     1      41.936 -18.621   0.936  1.00  0.00     0.191 HD
HETATM   16  C   UNL     1      43.973 -19.892   2.856  1.00  0.00     0.065 A 
HETATM   17  C   UNL     1      45.019 -20.899   3.163  1.00  0.00     0.073 C 
HETATM   18  C   UNL     1      43.709 -18.400   5.011  1.00  0.00     0.036 A 
ENDBRANCH   1   8
BRANCH   4  19
HETATM   19  O   UNL     1      45.130 -12.802   8.858  1.00  0.00    -0.344 OA
BRANCH  19  20
HETATM   20  C   UNL     1      44.446 -11.849   9.561  1.00  0.00     0.070 A 
HETATM   21  C   UNL     1      43.322 -11.150   9.117  1.00  0.00     0.060 A 
HETATM   22  C   UNL     1      42.735 -10.186   9.939  1.00  0.00     0.036 A 
HETATM   23 CL   UNL     1      41.353  -9.323   9.381  1.00  0.00    -0.084 Cl
HETATM   24  C   UNL     1      43.255  -9.911  11.202  1.00  0.00     0.024 A 
HETATM   25  C   UNL     1      44.380 -10.602  11.645  1.00  0.00     0.004 A 
HETATM   26  C   UNL     1      44.974 -11.562  10.823  1.00  0.00     0.037 A 
ENDBRANCH  19  20
ENDBRANCH   4  19
TORSDOF 3
ENDMDL
