MODEL 1
REMARK VINA RESULT:      -9.2      0.000      0.000
REMARK  8 active torsions:
REMARK  status: ('A' for Active; 'I' for Inactive)
REMARK    1  A    between atoms: O_2  and  C_3 
REMARK    2  A    between atoms: C_7  and  C_8 
REMARK       I    between atoms: C_8  and  N_9 
REMARK    3  A    between atoms: N_9  and  C_10 
REMARK    4  A    between atoms: C_10  and  N_11 
REMARK    5  A    between atoms: N_11  and  C_12 
REMARK    6  A    between atoms: C_15  and  N_16 
REMARK    7  A    between atoms: N_19  and  C_21 
REMARK    8  A    between atoms: C_21  and  C_22 
ROOT
HETATM    1  C   UNL     1      40.118 -14.192   2.999  1.00  0.00     0.034 A 
HETATM    2  C   UNL     1      40.493 -14.770   4.210  1.00  0.00     0.032 A 
HETATM    3  C   UNL     1      40.543 -13.999   5.374  1.00  0.00     0.031 A 
HETATM    4  C   UNL     1      40.221 -12.632   5.363  1.00  0.00     0.030 A 
HETATM    5  C   UNL     1      39.832 -12.067   4.143  1.00  0.00     0.031 A 
HETATM    6  C   UNL     1      39.770 -12.841   2.971  1.00  0.00     0.032 A 
ENDROOT
BRANCH   1   7
HETATM    7  N   UNL     1      40.114 -15.021   1.851  1.00  0.00    -0.333 N 
HETATM    8  H   UNL     1      39.570 -15.868   1.971  1.00  0.00     0.168 HD
BRANCH   7   9
HETATM    9  C   UNL     1      41.182 -15.175   1.019  1.00  0.00     0.179 C 
HETATM   10  S   UNL     1      41.695 -13.948   0.006  1.00  0.00    -0.040 SA
BRANCH   9  11
HETATM   11  N   UNL     1      41.995 -16.267   1.194  1.00  0.00    -0.299 N 
HETATM   12  C   UNL     1      41.622 -17.594   1.372  1.00  0.00     0.257 C 
HETATM   13  O   UNL     1      40.609 -18.090   0.889  1.00  0.00    -0.267 OA
HETATM   14  H   UNL     1      42.937 -15.989   1.417  1.00  0.00     0.171 HD
BRANCH  12  15
HETATM   15  C   UNL     1      42.549 -18.474   2.159  1.00  0.00     0.034 A 
HETATM   16  C   UNL     1      43.086 -19.680   1.692  1.00  0.00     0.044 A 
HETATM   17  C   UNL     1      43.989 -20.431   2.477  1.00  0.00     0.068 A 
HETATM   18  C   UNL     1      44.372 -19.978   3.746  1.00  0.00     0.089 A 
HETATM   19 CL   UNL     1      44.514 -21.912   1.755  1.00  0.00    -0.081 Cl
HETATM   20  C   UNL     1      43.814 -18.778   4.210  1.00  0.00     0.039 A 
HETATM   21  C   UNL     1      42.918 -18.037   3.434  1.00  0.00     0.020 A 
BRANCH  18  22
HETATM   22  O   UNL     1      45.211 -20.525   4.673  1.00  0.00    -0.354 OA
HETATM   23  C   UNL     1      44.946 -21.801   5.229  1.00  0.00     0.210 C 
ENDBRANCH  18  22
ENDBRANCH  12  15
ENDBRANCH   9  11
ENDBRANCH   7   9
ENDBRANCH   1   7
BRANCH   4  24
HETATM   24  N   UNL     1      40.306 -11.924   6.568  1.00  0.00    -0.378 N 
HETATM   25  C   UNL     1      39.407 -12.302   7.668  1.00  0.00     0.150 C 
HETATM   26  C   UNL     1      39.355 -11.144   8.694  1.00  0.00     0.255 C 
HETATM   27  N   UNL     1      40.759 -10.767   9.182  1.00  0.00    -0.064 N 
HETATM   28  H   UNL     1      41.121 -11.566   9.720  1.00  0.00     0.280 HD
HETATM   29  C   UNL     1      41.717 -10.520   8.013  1.00  0.00     0.255 C 
HETATM   30  C   UNL     1      41.696 -11.677   6.995  1.00  0.00     0.150 C 
BRANCH  27  31
HETATM   31  C   UNL     1      40.760  -9.572  10.109  1.00  0.00     0.276 C 
BRANCH  31  32
HETATM   32  C   UNL     1      41.457  -9.778  11.419  1.00  0.00     0.006 A 
HETATM   33  C   UNL     1      40.753 -10.287  12.514  1.00  0.00     0.124 A 
HETATM   34  F   UNL     1      39.438 -10.522  12.385  1.00  0.00    -0.206 F 
HETATM   35  C   UNL     1      41.379 -10.536  13.730  1.00  0.00     0.043 A 
HETATM   36  C   UNL     1      42.740 -10.270  13.865  1.00  0.00     0.003 A 
HETATM   37  C   UNL     1      43.461  -9.757  12.787  1.00  0.00     0.001 A 
HETATM   38  C   UNL     1      42.826  -9.513  11.567  1.00  0.00     0.012 A 
ENDBRANCH  31  32
ENDBRANCH  27  31
ENDBRANCH   4  24
TORSDOF 8
ENDMDL
MODEL 2
REMARK VINA RESULT:      -9.1      1.051      1.328
REMARK  8 active torsions:
REMARK  status: ('A' for Active; 'I' for Inactive)
REMARK    1  A    between atoms: O_2  and  C_3 
REMARK    2  A    between atoms: C_7  and  C_8 
REMARK       I    between atoms: C_8  and  N_9 
REMARK    3  A    between atoms: N_9  and  C_10 
REMARK    4  A    between atoms: C_10  and  N_11 
REMARK    5  A    between atoms: N_11  and  C_12 
REMARK    6  A    between atoms: C_15  and  N_16 
REMARK    7  A    between atoms: N_19  and  C_21 
REMARK    8  A    between atoms: C_21  and  C_22 
ROOT
HETATM    1  C   UNL     1      40.012 -14.157   2.653  1.00  0.00     0.034 A 
HETATM    2  C   UNL     1      40.204 -14.785   3.882  1.00  0.00     0.032 A 
HETATM    3  C   UNL     1      40.306 -14.028   5.052  1.00  0.00     0.031 A 
HETATM    4  C   UNL     1      40.220 -12.627   5.030  1.00  0.00     0.030 A 
HETATM    5  C   UNL     1      40.014 -12.009   3.791  1.00  0.00     0.031 A 
HETATM    6  C   UNL     1      39.900 -12.767   2.611  1.00  0.00     0.032 A 
ENDROOT
BRANCH   1   7
HETATM    7  N   UNL     1      39.945 -14.978   1.501  1.00  0.00    -0.333 N 
HETATM    8  H   UNL     1      39.342 -15.784   1.620  1.00  0.00     0.168 HD
BRANCH   7   9
HETATM    9  C   UNL     1      40.996 -15.204   0.664  1.00  0.00     0.179 C 
HETATM   10  S   UNL     1      41.397 -14.136  -0.558  1.00  0.00    -0.040 SA
BRANCH   9  11
HETATM   11  N   UNL     1      41.885 -16.200   0.986  1.00  0.00    -0.299 N 
HETATM   12  C   UNL     1      41.607 -17.506   1.370  1.00  0.00     0.257 C 
HETATM   13  O   UNL     1      40.626 -18.138   0.987  1.00  0.00    -0.267 OA
HETATM   14  H   UNL     1      42.807 -15.829   1.146  1.00  0.00     0.171 HD
BRANCH  12  15
HETATM   15  C   UNL     1      42.600 -18.193   2.261  1.00  0.00     0.034 A 
HETATM   16  C   UNL     1      43.000 -17.720   3.517  1.00  0.00     0.044 A 
HETATM   17  C   UNL     1      43.908 -18.449   4.318  1.00  0.00     0.068 A 
HETATM   18  C   UNL     1      44.425 -19.671   3.870  1.00  0.00     0.089 A 
HETATM   19 CL   UNL     1      44.319 -17.690   5.817  1.00  0.00    -0.081 Cl
HETATM   20  C   UNL     1      44.031 -20.126   2.603  1.00  0.00     0.039 A 
HETATM   21  C   UNL     1      43.136 -19.403   1.810  1.00  0.00     0.020 A 
BRANCH  18  22
HETATM   22  O   UNL     1      45.305 -20.536   4.454  1.00  0.00    -0.354 OA
HETATM   23  C   UNL     1      44.845 -21.693   5.131  1.00  0.00     0.210 C 
ENDBRANCH  18  22
ENDBRANCH  12  15
ENDBRANCH   9  11
ENDBRANCH   7   9
ENDBRANCH   1   7
BRANCH   4  24
HETATM   24  N   UNL     1      40.343 -11.938   6.242  1.00  0.00    -0.378 N 
HETATM   25  C   UNL     1      39.449 -12.304   7.350  1.00  0.00     0.150 C 
HETATM   26  C   UNL     1      39.447 -11.159   8.392  1.00  0.00     0.255 C 
HETATM   27  N   UNL     1      40.869 -10.830   8.864  1.00  0.00    -0.064 N 
HETATM   28  H   UNL     1      41.213 -11.647   9.386  1.00  0.00     0.280 HD
HETATM   29  C   UNL     1      41.817 -10.597   7.685  1.00  0.00     0.255 C 
HETATM   30  C   UNL     1      41.746 -11.738   6.652  1.00  0.00     0.150 C 
BRANCH  27  31
HETATM   31  C   UNL     1      40.918  -9.649   9.807  1.00  0.00     0.276 C 
BRANCH  31  32
HETATM   32  C   UNL     1      41.565  -9.914  11.133  1.00  0.00     0.006 A 
HETATM   33  C   UNL     1      40.830 -10.509  12.162  1.00  0.00     0.124 A 
HETATM   34  F   UNL     1      39.530 -10.775  11.961  1.00  0.00    -0.206 F 
HETATM   35  C   UNL     1      41.411 -10.813  13.388  1.00  0.00     0.043 A 
HETATM   36  C   UNL     1      42.755 -10.516  13.600  1.00  0.00     0.003 A 
HETATM   37  C   UNL     1      43.505  -9.917  12.588  1.00  0.00     0.001 A 
HETATM   38  C   UNL     1      42.917  -9.618  11.358  1.00  0.00     0.012 A 
ENDBRANCH  31  32
ENDBRANCH  27  31
ENDBRANCH   4  24
TORSDOF 8
ENDMDL
MODEL 3
REMARK VINA RESULT:      -8.7      4.978     10.347
REMARK  8 active torsions:
REMARK  status: ('A' for Active; 'I' for Inactive)
REMARK    1  A    between atoms: O_2  and  C_3 
REMARK    2  A    between atoms: C_7  and  C_8 
REMARK       I    between atoms: C_8  and  N_9 
REMARK    3  A    between atoms: N_9  and  C_10 
REMARK    4  A    between atoms: C_10  and  N_11 
REMARK    5  A    between atoms: N_11  and  C_12 
REMARK    6  A    between atoms: C_15  and  N_16 
REMARK    7  A    between atoms: N_19  and  C_21 
REMARK    8  A    between atoms: C_21  and  C_22 
ROOT
HETATM    1  C   UNL     1      39.602 -11.865   5.090  1.00  0.00     0.034 A 
HETATM    2  C   UNL     1      40.733 -11.995   4.286  1.00  0.00     0.032 A 
HETATM    3  C   UNL     1      41.505 -13.159   4.339  1.00  0.00     0.031 A 
HETATM    4  C   UNL     1      41.172 -14.222   5.193  1.00  0.00     0.030 A 
HETATM    5  C   UNL     1      40.026 -14.084   5.985  1.00  0.00     0.031 A 
HETATM    6  C   UNL     1      39.239 -12.920   5.927  1.00  0.00     0.032 A 
ENDROOT
BRANCH   1   7
HETATM    7  N   UNL     1      38.878 -10.651   5.009  1.00  0.00    -0.333 N 
HETATM    8  H   UNL     1      38.343 -10.561   4.153  1.00  0.00     0.168 HD
BRANCH   7   9
HETATM    9  C   UNL     1      39.329  -9.461   5.495  1.00  0.00     0.179 C 
HETATM   10  S   UNL     1      39.114  -8.028   4.662  1.00  0.00    -0.040 SA
BRANCH   9  11
HETATM   11  N   UNL     1      39.748  -9.405   6.802  1.00  0.00    -0.299 N 
HETATM   12  C   UNL     1      41.048  -9.480   7.289  1.00  0.00     0.257 C 
HETATM   13  O   UNL     1      42.033  -9.079   6.675  1.00  0.00    -0.267 OA
HETATM   14  H   UNL     1      38.979  -9.535   7.438  1.00  0.00     0.171 HD
BRANCH  12  15
HETATM   15  C   UNL     1      41.240 -10.036   8.670  1.00  0.00     0.034 A 
HETATM   16  C   UNL     1      42.472 -10.119   9.329  1.00  0.00     0.044 A 
HETATM   17  C   UNL     1      42.564 -10.615  10.649  1.00  0.00     0.068 A 
HETATM   18  C   UNL     1      41.414 -11.031  11.331  1.00  0.00     0.089 A 
HETATM   19 CL   UNL     1      44.171 -10.683  11.284  1.00  0.00    -0.081 Cl
HETATM   20  C   UNL     1      40.187 -10.960  10.655  1.00  0.00     0.039 A 
HETATM   21  C   UNL     1      40.098 -10.472   9.348  1.00  0.00     0.020 A 
BRANCH  18  22
HETATM   22  O   UNL     1      41.257 -11.541  12.587  1.00  0.00    -0.354 OA
HETATM   23  C   UNL     1      41.319 -10.701  13.726  1.00  0.00     0.210 C 
ENDBRANCH  18  22
ENDBRANCH  12  15
ENDBRANCH   9  11
ENDBRANCH   7   9
ENDBRANCH   1   7
BRANCH   4  24
HETATM   24  N   UNL     1      42.002 -15.349   5.198  1.00  0.00    -0.378 N 
HETATM   25  C   UNL     1      41.731 -16.415   6.174  1.00  0.00     0.150 C 
HETATM   26  C   UNL     1      42.988 -17.309   6.303  1.00  0.00     0.255 C 
HETATM   27  N   UNL     1      43.428 -17.856   4.940  1.00  0.00    -0.064 N 
HETATM   28  H   UNL     1      42.692 -18.498   4.617  1.00  0.00     0.280 HD
HETATM   29  C   UNL     1      43.562 -16.740   3.899  1.00  0.00     0.255 C 
HETATM   30  C   UNL     1      42.306 -15.848   3.843  1.00  0.00     0.150 C 
BRANCH  27  31
HETATM   31  C   UNL     1      44.711 -18.651   5.010  1.00  0.00     0.276 C 
BRANCH  31  32
HETATM   32  C   UNL     1      44.626 -20.054   4.489  1.00  0.00     0.006 A 
HETATM   33  C   UNL     1      44.539 -20.285   3.114  1.00  0.00     0.124 A 
HETATM   34  F   UNL     1      44.469 -19.233   2.283  1.00  0.00    -0.206 F 
HETATM   35  C   UNL     1      44.507 -21.573   2.593  1.00  0.00     0.043 A 
HETATM   36  C   UNL     1      44.560 -22.663   3.461  1.00  0.00     0.003 A 
HETATM   37  C   UNL     1      44.640 -22.455   4.838  1.00  0.00     0.001 A 
HETATM   38  C   UNL     1      44.676 -21.157   5.353  1.00  0.00     0.012 A 
ENDBRANCH  31  32
ENDBRANCH  27  31
ENDBRANCH   4  24
TORSDOF 8
ENDMDL
MODEL 4
REMARK VINA RESULT:      -8.3      5.083      9.868
REMARK  8 active torsions:
REMARK  status: ('A' for Active; 'I' for Inactive)
REMARK    1  A    between atoms: O_2  and  C_3 
REMARK    2  A    between atoms: C_7  and  C_8 
REMARK       I    between atoms: C_8  and  N_9 
REMARK    3  A    between atoms: N_9  and  C_10 
REMARK    4  A    between atoms: C_10  and  N_11 
REMARK    5  A    between atoms: N_11  and  C_12 
REMARK    6  A    between atoms: C_15  and  N_16 
REMARK    7  A    between atoms: N_19  and  C_21 
REMARK    8  A    between atoms: C_21  and  C_22 
ROOT
HETATM    1  C   UNL     1      37.838 -12.819   0.146  1.00  0.00     0.034 A 
HETATM    2  C   UNL     1      37.505 -13.945   0.898  1.00  0.00     0.032 A 
HETATM    3  C   UNL     1      38.505 -14.802   1.365  1.00  0.00     0.031 A 
HETATM    4  C   UNL     1      39.862 -14.562   1.096  1.00  0.00     0.030 A 
HETATM    5  C   UNL     1      40.184 -13.421   0.351  1.00  0.00     0.031 A 
HETATM    6  C   UNL     1      39.182 -12.549  -0.112  1.00  0.00     0.032 A 
ENDROOT
BRANCH   1   7
HETATM    7  N   UNL     1      36.777 -12.006  -0.321  1.00  0.00    -0.333 N 
HETATM    8  H   UNL     1      36.862 -11.761  -1.300  1.00  0.00     0.168 HD
BRANCH   7   9
HETATM    9  C   UNL     1      36.167 -11.045   0.428  1.00  0.00     0.179 C 
HETATM   10  S   UNL     1      34.785 -10.263  -0.095  1.00  0.00    -0.040 SA
BRANCH   9  11
HETATM   11  N   UNL     1      36.554 -10.893   1.737  1.00  0.00    -0.299 N 
HETATM   12  C   UNL     1      37.498 -10.015   2.255  1.00  0.00     0.257 C 
HETATM   13  O   UNL     1      37.742  -8.912   1.775  1.00  0.00    -0.267 OA
HETATM   14  H   UNL     1      36.242 -11.666   2.302  1.00  0.00     0.171 HD
BRANCH  12  15
HETATM   15  C   UNL     1      38.214 -10.428   3.508  1.00  0.00     0.034 A 
HETATM   16  C   UNL     1      38.675 -11.724   3.769  1.00  0.00     0.044 A 
HETATM   17  C   UNL     1      39.382 -12.023   4.955  1.00  0.00     0.068 A 
HETATM   18  C   UNL     1      39.644 -11.020   5.897  1.00  0.00     0.089 A 
HETATM   19 CL   UNL     1      39.836 -13.684   5.125  1.00  0.00    -0.081 Cl
HETATM   20  C   UNL     1      39.162  -9.730   5.633  1.00  0.00     0.039 A 
HETATM   21  C   UNL     1      38.460  -9.435   4.461  1.00  0.00     0.020 A 
BRANCH  18  22
HETATM   22  O   UNL     1      40.292 -11.070   7.097  1.00  0.00    -0.354 OA
HETATM   23  C   UNL     1      41.697 -10.902   7.172  1.00  0.00     0.210 C 
ENDBRANCH  18  22
ENDBRANCH  12  15
ENDBRANCH   9  11
ENDBRANCH   7   9
ENDBRANCH   1   7
BRANCH   4  24
HETATM   24  N   UNL     1      40.804 -15.472   1.587  1.00  0.00    -0.378 N 
HETATM   25  C   UNL     1      40.332 -16.586   2.424  1.00  0.00     0.150 C 
HETATM   26  C   UNL     1      41.535 -17.174   3.201  1.00  0.00     0.255 C 
HETATM   27  N   UNL     1      42.665 -17.588   2.251  1.00  0.00    -0.064 N 
HETATM   28  H   UNL     1      42.318 -18.375   1.687  1.00  0.00     0.280 HD
HETATM   29  C   UNL     1      43.039 -16.456   1.289  1.00  0.00     0.255 C 
HETATM   30  C   UNL     1      41.804 -15.870   0.578  1.00  0.00     0.150 C 
BRANCH  27  31
HETATM   31  C   UNL     1      43.899 -18.074   2.978  1.00  0.00     0.276 C 
BRANCH  31  32
HETATM   32  C   UNL     1      44.103 -19.558   2.972  1.00  0.00     0.006 A 
HETATM   33  C   UNL     1      44.672 -20.189   4.082  1.00  0.00     0.124 A 
HETATM   34  F   UNL     1      45.086 -19.438   5.113  1.00  0.00    -0.206 F 
HETATM   35  C   UNL     1      44.831 -21.570   4.131  1.00  0.00     0.043 A 
HETATM   36  C   UNL     1      44.418 -22.345   3.049  1.00  0.00     0.003 A 
HETATM   37  C   UNL     1      43.854 -21.734   1.929  1.00  0.00     0.001 A 
HETATM   38  C   UNL     1      43.692 -20.348   1.889  1.00  0.00     0.012 A 
ENDBRANCH  31  32
ENDBRANCH  27  31
ENDBRANCH   4  24
TORSDOF 8
ENDMDL
MODEL 5
REMARK VINA RESULT:      -8.2      5.278      9.946
REMARK  8 active torsions:
REMARK  status: ('A' for Active; 'I' for Inactive)
REMARK    1  A    between atoms: O_2  and  C_3 
REMARK    2  A    between atoms: C_7  and  C_8 
REMARK       I    between atoms: C_8  and  N_9 
REMARK    3  A    between atoms: N_9  and  C_10 
REMARK    4  A    between atoms: C_10  and  N_11 
REMARK    5  A    between atoms: N_11  and  C_12 
REMARK    6  A    between atoms: C_15  and  N_16 
REMARK    7  A    between atoms: N_19  and  C_21 
REMARK    8  A    between atoms: C_21  and  C_22 
ROOT
HETATM    1  C   UNL     1      40.021 -10.884   5.106  1.00  0.00     0.034 A 
HETATM    2  C   UNL     1      41.387 -11.161   5.064  1.00  0.00     0.032 A 
HETATM    3  C   UNL     1      41.850 -12.460   5.288  1.00  0.00     0.031 A 
HETATM    4  C   UNL     1      40.967 -13.517   5.559  1.00  0.00     0.030 A 
HETATM    5  C   UNL     1      39.598 -13.228   5.586  1.00  0.00     0.031 A 
HETATM    6  C   UNL     1      39.125 -11.925   5.350  1.00  0.00     0.032 A 
ENDROOT
BRANCH   1   7
HETATM    7  N   UNL     1      39.618  -9.542   4.898  1.00  0.00    -0.333 N 
HETATM    8  H   UNL     1      40.197  -9.051   4.226  1.00  0.00     0.168 HD
BRANCH   7   9
HETATM    9  C   UNL     1      39.118  -8.737   5.876  1.00  0.00     0.179 C 
HETATM   10  S   UNL     1      37.673  -7.916   5.691  1.00  0.00    -0.040 SA
BRANCH   9  11
HETATM   11  N   UNL     1      39.686  -8.794   7.125  1.00  0.00    -0.299 N 
HETATM   12  C   UNL     1      41.035  -8.737   7.456  1.00  0.00     0.257 C 
HETATM   13  O   UNL     1      41.872  -8.113   6.811  1.00  0.00    -0.267 OA
HETATM   14  H   UNL     1      39.027  -9.123   7.812  1.00  0.00     0.171 HD
BRANCH  12  15
HETATM   15  C   UNL     1      41.471  -9.437   8.710  1.00  0.00     0.034 A 
HETATM   16  C   UNL     1      40.857  -9.285   9.960  1.00  0.00     0.044 A 
HETATM   17  C   UNL     1      41.300 -10.016  11.085  1.00  0.00     0.068 A 
HETATM   18  C   UNL     1      42.365 -10.919  10.970  1.00  0.00     0.089 A 
HETATM   19 CL   UNL     1      40.451  -9.667  12.551  1.00  0.00    -0.081 Cl
HETATM   20  C   UNL     1      42.983 -11.049   9.719  1.00  0.00     0.039 A 
HETATM   21  C   UNL     1      42.547 -10.324   8.606  1.00  0.00     0.020 A 
BRANCH  18  22
HETATM   22  O   UNL     1      42.961 -11.718  11.902  1.00  0.00    -0.354 OA
HETATM   23  C   UNL     1      44.107 -12.485  11.575  1.00  0.00     0.210 C 
ENDBRANCH  18  22
ENDBRANCH  12  15
ENDBRANCH   9  11
ENDBRANCH   7   9
ENDBRANCH   1   7
BRANCH   4  24
HETATM   24  N   UNL     1      41.508 -14.788   5.784  1.00  0.00    -0.378 N 
HETATM   25  C   UNL     1      41.044 -15.905   4.950  1.00  0.00     0.150 C 
HETATM   26  C   UNL     1      41.415 -17.238   5.644  1.00  0.00     0.255 C 
HETATM   27  N   UNL     1      42.917 -17.312   5.946  1.00  0.00    -0.064 N 
HETATM   28  H   UNL     1      43.408 -17.351   5.043  1.00  0.00     0.280 HD
HETATM   29  C   UNL     1      43.406 -16.066   6.689  1.00  0.00     0.255 C 
HETATM   30  C   UNL     1      42.970 -14.765   5.987  1.00  0.00     0.150 C 
BRANCH  27  31
HETATM   31  C   UNL     1      43.303 -18.555   6.715  1.00  0.00     0.276 C 
BRANCH  31  32
HETATM   32  C   UNL     1      43.907 -19.654   5.895  1.00  0.00     0.006 A 
HETATM   33  C   UNL     1      44.016 -20.942   6.425  1.00  0.00     0.124 A 
HETATM   34  F   UNL     1      43.633 -21.156   7.693  1.00  0.00    -0.206 F 
HETATM   35  C   UNL     1      44.526 -21.997   5.676  1.00  0.00     0.043 A 
HETATM   36  C   UNL     1      44.942 -21.767   4.366  1.00  0.00     0.003 A 
HETATM   37  C   UNL     1      44.847 -20.487   3.819  1.00  0.00     0.001 A 
HETATM   38  C   UNL     1      44.330 -19.434   4.576  1.00  0.00     0.012 A 
ENDBRANCH  31  32
ENDBRANCH  27  31
ENDBRANCH   4  24
TORSDOF 8
ENDMDL
MODEL 6
REMARK VINA RESULT:      -8.1      5.119      9.148
REMARK  8 active torsions:
REMARK  status: ('A' for Active; 'I' for Inactive)
REMARK    1  A    between atoms: O_2  and  C_3 
REMARK    2  A    between atoms: C_7  and  C_8 
REMARK       I    between atoms: C_8  and  N_9 
REMARK    3  A    between atoms: N_9  and  C_10 
REMARK    4  A    between atoms: C_10  and  N_11 
REMARK    5  A    between atoms: N_11  and  C_12 
REMARK    6  A    between atoms: C_15  and  N_16 
REMARK    7  A    between atoms: N_19  and  C_21 
REMARK    8  A    between atoms: C_21  and  C_22 
ROOT
HETATM    1  C   UNL     1      43.627 -19.222   2.197  1.00  0.00     0.034 A 
HETATM    2  C   UNL     1      42.239 -19.122   2.117  1.00  0.00     0.032 A 
HETATM    3  C   UNL     1      41.644 -17.972   1.590  1.00  0.00     0.031 A 
HETATM    4  C   UNL     1      42.414 -16.893   1.129  1.00  0.00     0.030 A 
HETATM    5  C   UNL     1      43.807 -17.012   1.202  1.00  0.00     0.031 A 
HETATM    6  C   UNL     1      44.411 -18.170   1.722  1.00  0.00     0.032 A 
ENDROOT
BRANCH   1   7
HETATM    7  N   UNL     1      44.167 -20.400   2.767  1.00  0.00    -0.333 N 
HETATM    8  H   UNL     1      43.773 -21.249   2.377  1.00  0.00     0.168 HD
BRANCH   7   9
HETATM    9  C   UNL     1      44.526 -20.518   4.076  1.00  0.00     0.179 C 
HETATM   10  S   UNL     1      45.081 -21.961   4.711  1.00  0.00    -0.040 SA
BRANCH   9  11
HETATM   11  N   UNL     1      44.666 -19.374   4.821  1.00  0.00    -0.299 N 
HETATM   12  C   UNL     1      43.755 -18.812   5.708  1.00  0.00     0.257 C 
HETATM   13  O   UNL     1      42.952 -19.465   6.369  1.00  0.00    -0.267 OA
HETATM   14  H   UNL     1      45.437 -18.816   4.493  1.00  0.00     0.171 HD
BRANCH  12  15
HETATM   15  C   UNL     1      43.804 -17.325   5.901  1.00  0.00     0.034 A 
HETATM   16  C   UNL     1      43.444 -16.385   4.928  1.00  0.00     0.044 A 
HETATM   17  C   UNL     1      43.474 -14.999   5.202  1.00  0.00     0.068 A 
HETATM   18  C   UNL     1      43.861 -14.535   6.466  1.00  0.00     0.089 A 
HETATM   19 CL   UNL     1      43.037 -13.989   3.868  1.00  0.00    -0.081 Cl
HETATM   20  C   UNL     1      44.237 -15.484   7.427  1.00  0.00     0.039 A 
HETATM   21  C   UNL     1      44.210 -16.855   7.154  1.00  0.00     0.020 A 
BRANCH  18  22
HETATM   22  O   UNL     1      43.972 -13.266   6.955  1.00  0.00    -0.354 OA
HETATM   23  C   UNL     1      44.631 -13.015   8.183  1.00  0.00     0.210 C 
ENDBRANCH  18  22
ENDBRANCH  12  15
ENDBRANCH   9  11
ENDBRANCH   7   9
ENDBRANCH   1   7
BRANCH   4  24
HETATM   24  N   UNL     1      41.745 -15.772   0.625  1.00  0.00    -0.378 N 
HETATM   25  C   UNL     1      41.404 -15.742  -0.805  1.00  0.00     0.150 C 
HETATM   26  C   UNL     1      41.095 -14.283  -1.217  1.00  0.00     0.255 C 
HETATM   27  N   UNL     1      39.997 -13.674  -0.336  1.00  0.00    -0.064 N 
HETATM   28  H   UNL     1      39.126 -14.184  -0.537  1.00  0.00     0.280 HD
HETATM   29  C   UNL     1      40.306 -13.848   1.154  1.00  0.00     0.255 C 
HETATM   30  C   UNL     1      40.655 -15.307   1.505  1.00  0.00     0.150 C 
BRANCH  27  31
HETATM   31  C   UNL     1      39.737 -12.216  -0.641  1.00  0.00     0.276 C 
BRANCH  31  32
HETATM   32  C   UNL     1      40.846 -11.502  -1.354  1.00  0.00     0.006 A 
HETATM   33  C   UNL     1      41.932 -11.002  -0.633  1.00  0.00     0.124 A 
HETATM   34  F   UNL     1      41.929 -11.114   0.705  1.00  0.00    -0.206 F 
HETATM   35  C   UNL     1      43.001 -10.378  -1.266  1.00  0.00     0.043 A 
HETATM   36  C   UNL     1      42.990 -10.244  -2.653  1.00  0.00     0.003 A 
HETATM   37  C   UNL     1      41.912 -10.732  -3.392  1.00  0.00     0.001 A 
HETATM   38  C   UNL     1      40.844 -11.362  -2.749  1.00  0.00     0.012 A 
ENDBRANCH  31  32
ENDBRANCH  27  31
ENDBRANCH   4  24
TORSDOF 8
ENDMDL
MODEL 7
REMARK VINA RESULT:      -8.1      5.327     10.826
REMARK  8 active torsions:
REMARK  status: ('A' for Active; 'I' for Inactive)
REMARK    1  A    between atoms: O_2  and  C_3 
REMARK    2  A    between atoms: C_7  and  C_8 
REMARK       I    between atoms: C_8  and  N_9 
REMARK    3  A    between atoms: N_9  and  C_10 
REMARK    4  A    between atoms: C_10  and  N_11 
REMARK    5  A    between atoms: N_11  and  C_12 
REMARK    6  A    between atoms: C_15  and  N_16 
REMARK    7  A    between atoms: N_19  and  C_21 
REMARK    8  A    between atoms: C_21  and  C_22 
ROOT
HETATM    1  C   UNL     1      39.665 -11.865   4.808  1.00  0.00     0.034 A 
HETATM    2  C   UNL     1      39.520 -12.540   3.598  1.00  0.00     0.032 A 
HETATM    3  C   UNL     1      40.254 -13.703   3.347  1.00  0.00     0.031 A 
HETATM    4  C   UNL     1      41.151 -14.223   4.293  1.00  0.00     0.030 A 
HETATM    5  C   UNL     1      41.277 -13.542   5.509  1.00  0.00     0.031 A 
HETATM    6  C   UNL     1      40.533 -12.378   5.772  1.00  0.00     0.032 A 
ENDROOT
BRANCH   1   7
HETATM    7  N   UNL     1      38.913 -10.678   4.990  1.00  0.00    -0.333 N 
HETATM    8  H   UNL     1      38.176 -10.563   4.304  1.00  0.00     0.168 HD
BRANCH   7   9
HETATM    9  C   UNL     1      39.443  -9.500   5.421  1.00  0.00     0.179 C 
HETATM   10  S   UNL     1      39.619  -8.186   4.403  1.00  0.00    -0.040 SA
BRANCH   9  11
HETATM   11  N   UNL     1      39.606  -9.312   6.772  1.00  0.00    -0.299 N 
HETATM   12  C   UNL     1      40.793  -9.261   7.493  1.00  0.00     0.257 C 
HETATM   13  O   UNL     1      41.854  -8.847   7.036  1.00  0.00    -0.267 OA
HETATM   14  H   UNL     1      38.738  -9.439   7.266  1.00  0.00     0.171 HD
BRANCH  12  15
HETATM   15  C   UNL     1      40.749  -9.690   8.930  1.00  0.00     0.034 A 
HETATM   16  C   UNL     1      39.696  -9.413   9.811  1.00  0.00     0.044 A 
HETATM   17  C   UNL     1      39.709  -9.891  11.140  1.00  0.00     0.068 A 
HETATM   18  C   UNL     1      40.781 -10.664  11.605  1.00  0.00     0.089 A 
HETATM   19 CL   UNL     1      38.346  -9.414  12.092  1.00  0.00    -0.081 Cl
HETATM   20  C   UNL     1      41.838 -10.920  10.721  1.00  0.00     0.039 A 
HETATM   21  C   UNL     1      41.826 -10.444   9.407  1.00  0.00     0.020 A 
BRANCH  18  22
HETATM   22  O   UNL     1      41.013 -11.222  12.829  1.00  0.00    -0.354 OA
HETATM   23  C   UNL     1      41.378 -10.418  13.937  1.00  0.00     0.210 C 
ENDBRANCH  18  22
ENDBRANCH  12  15
ENDBRANCH   9  11
ENDBRANCH   7   9
ENDBRANCH   1   7
BRANCH   4  24
HETATM   24  N   UNL     1      41.859 -15.384   3.963  1.00  0.00    -0.378 N 
HETATM   25  C   UNL     1      42.521 -16.132   5.042  1.00  0.00     0.150 C 
HETATM   26  C   UNL     1      43.578 -17.077   4.421  1.00  0.00     0.255 C 
HETATM   27  N   UNL     1      42.953 -17.996   3.364  1.00  0.00    -0.064 N 
HETATM   28  H   UNL     1      42.304 -18.627   3.853  1.00  0.00     0.280 HD
HETATM   29  C   UNL     1      42.145 -17.204   2.332  1.00  0.00     0.255 C 
HETATM   30  C   UNL     1      41.143 -16.242   2.999  1.00  0.00     0.150 C 
BRANCH  27  31
HETATM   31  C   UNL     1      43.972 -18.866   2.663  1.00  0.00     0.276 C 
BRANCH  31  32
HETATM   32  C   UNL     1      44.241 -20.190   3.311  1.00  0.00     0.006 A 
HETATM   33  C   UNL     1      44.255 -21.355   2.540  1.00  0.00     0.124 A 
HETATM   34  F   UNL     1      43.962 -21.271   1.233  1.00  0.00    -0.206 F 
HETATM   35  C   UNL     1      44.548 -22.593   3.099  1.00  0.00     0.043 A 
HETATM   36  C   UNL     1      44.832 -22.679   4.461  1.00  0.00     0.003 A 
HETATM   37  C   UNL     1      44.817 -21.529   5.250  1.00  0.00     0.001 A 
HETATM   38  C   UNL     1      44.526 -20.287   4.680  1.00  0.00     0.012 A 
ENDBRANCH  31  32
ENDBRANCH  27  31
ENDBRANCH   4  24
TORSDOF 8
ENDMDL
MODEL 8
REMARK VINA RESULT:      -8.0      1.661      2.191
REMARK  8 active torsions:
REMARK  status: ('A' for Active; 'I' for Inactive)
REMARK    1  A    between atoms: O_2  and  C_3 
REMARK    2  A    between atoms: C_7  and  C_8 
REMARK       I    between atoms: C_8  and  N_9 
REMARK    3  A    between atoms: N_9  and  C_10 
REMARK    4  A    between atoms: C_10  and  N_11 
REMARK    5  A    between atoms: N_11  and  C_12 
REMARK    6  A    between atoms: C_15  and  N_16 
REMARK    7  A    between atoms: N_19  and  C_21 
REMARK    8  A    between atoms: C_21  and  C_22 
ROOT
HETATM    1  C   UNL     1      40.273 -12.906   3.771  1.00  0.00     0.034 A 
HETATM    2  C   UNL     1      39.207 -12.155   4.264  1.00  0.00     0.032 A 
HETATM    3  C   UNL     1      39.346 -11.427   5.448  1.00  0.00     0.031 A 
HETATM    4  C   UNL     1      40.548 -11.427   6.174  1.00  0.00     0.030 A 
HETATM    5  C   UNL     1      41.615 -12.174   5.661  1.00  0.00     0.031 A 
HETATM    6  C   UNL     1      41.484 -12.900   4.463  1.00  0.00     0.032 A 
ENDROOT
BRANCH   1   7
HETATM    7  N   UNL     1      40.060 -13.643   2.581  1.00  0.00    -0.333 N 
HETATM    8  H   UNL     1      39.302 -14.312   2.656  1.00  0.00     0.168 HD
BRANCH   7   9
HETATM    9  C   UNL     1      41.057 -14.043   1.744  1.00  0.00     0.179 C 
HETATM   10  S   UNL     1      41.740 -13.006   0.625  1.00  0.00    -0.040 SA
BRANCH   9  11
HETATM   11  N   UNL     1      41.677 -15.243   1.992  1.00  0.00    -0.299 N 
HETATM   12  C   UNL     1      41.095 -16.445   2.378  1.00  0.00     0.257 C 
HETATM   13  O   UNL     1      39.962 -16.791   2.056  1.00  0.00    -0.267 OA
HETATM   14  H   UNL     1      42.672 -15.127   2.093  1.00  0.00     0.171 HD
BRANCH  12  15
HETATM   15  C   UNL     1      41.931 -17.390   3.192  1.00  0.00     0.034 A 
HETATM   16  C   UNL     1      42.856 -18.294   2.656  1.00  0.00     0.044 A 
HETATM   17  C   UNL     1      43.639 -19.121   3.493  1.00  0.00     0.068 A 
HETATM   18  C   UNL     1      43.509 -19.046   4.886  1.00  0.00     0.089 A 
HETATM   19 CL   UNL     1      44.696 -20.203   2.654  1.00  0.00    -0.081 Cl
HETATM   20  C   UNL     1      42.566 -18.150   5.410  1.00  0.00     0.039 A 
HETATM   21  C   UNL     1      41.790 -17.335   4.582  1.00  0.00     0.020 A 
BRANCH  18  22
HETATM   22  O   UNL     1      44.141 -19.736   5.879  1.00  0.00    -0.354 OA
HETATM   23  C   UNL     1      43.795 -19.533   7.238  1.00  0.00     0.210 C 
ENDBRANCH  18  22
ENDBRANCH  12  15
ENDBRANCH   9  11
ENDBRANCH   7   9
ENDBRANCH   1   7
BRANCH   4  24
HETATM   24  N   UNL     1      40.605 -10.682   7.357  1.00  0.00    -0.378 N 
HETATM   25  C   UNL     1      41.864 -10.668   8.116  1.00  0.00     0.150 C 
HETATM   26  C   UNL     1      41.575 -10.182   9.557  1.00  0.00     0.255 C 
HETATM   27  N   UNL     1      40.871  -8.820   9.557  1.00  0.00    -0.064 N 
HETATM   28  H   UNL     1      41.539  -8.131   9.186  1.00  0.00     0.280 HD
HETATM   29  C   UNL     1      39.643  -8.818   8.642  1.00  0.00     0.255 C 
HETATM   30  C   UNL     1      39.969  -9.356   7.236  1.00  0.00     0.150 C 
BRANCH  27  31
HETATM   31  C   UNL     1      40.481  -8.358  10.943  1.00  0.00     0.276 C 
BRANCH  31  32
HETATM   32  C   UNL     1      41.213  -9.021  12.070  1.00  0.00     0.006 A 
HETATM   33  C   UNL     1      42.483  -8.570  12.440  1.00  0.00     0.124 A 
HETATM   34  F   UNL     1      43.053  -7.584  11.730  1.00  0.00    -0.206 F 
HETATM   35  C   UNL     1      43.170  -9.129  13.511  1.00  0.00     0.043 A 
HETATM   36  C   UNL     1      42.583 -10.167  14.233  1.00  0.00     0.003 A 
HETATM   37  C   UNL     1      41.319 -10.636  13.877  1.00  0.00     0.001 A 
HETATM   38  C   UNL     1      40.632 -10.066  12.802  1.00  0.00     0.012 A 
ENDBRANCH  31  32
ENDBRANCH  27  31
ENDBRANCH   4  24
TORSDOF 8
ENDMDL
MODEL 9
REMARK VINA RESULT:      -7.9      5.782      9.526
REMARK  8 active torsions:
REMARK  status: ('A' for Active; 'I' for Inactive)
REMARK    1  A    between atoms: O_2  and  C_3 
REMARK    2  A    between atoms: C_7  and  C_8 
REMARK       I    between atoms: C_8  and  N_9 
REMARK    3  A    between atoms: N_9  and  C_10 
REMARK    4  A    between atoms: C_10  and  N_11 
REMARK    5  A    between atoms: N_11  and  C_12 
REMARK    6  A    between atoms: C_15  and  N_16 
REMARK    7  A    between atoms: N_19  and  C_21 
REMARK    8  A    between atoms: C_21  and  C_22 
ROOT
HETATM    1  C   UNL     1      43.161 -18.790   2.181  1.00  0.00     0.034 A 
HETATM    2  C   UNL     1      43.897 -17.920   1.378  1.00  0.00     0.032 A 
HETATM    3  C   UNL     1      43.266 -16.852   0.734  1.00  0.00     0.031 A 
HETATM    4  C   UNL     1      41.888 -16.622   0.871  1.00  0.00     0.030 A 
HETATM    5  C   UNL     1      41.164 -17.495   1.691  1.00  0.00     0.031 A 
HETATM    6  C   UNL     1      41.795 -18.565   2.351  1.00  0.00     0.032 A 
ENDROOT
BRANCH   1   7
HETATM    7  N   UNL     1      43.853 -19.868   2.784  1.00  0.00    -0.333 N 
HETATM    8  H   UNL     1      43.505 -20.776   2.499  1.00  0.00     0.168 HD
BRANCH   7   9
HETATM    9  C   UNL     1      44.336 -19.847   4.058  1.00  0.00     0.179 C 
HETATM   10  S   UNL     1      45.095 -21.172   4.736  1.00  0.00    -0.040 SA
BRANCH   9  11
HETATM   11  N   UNL     1      44.417 -18.639   4.706  1.00  0.00    -0.299 N 
HETATM   12  C   UNL     1      43.672 -18.198   5.793  1.00  0.00     0.257 C 
HETATM   13  O   UNL     1      43.231 -18.940   6.666  1.00  0.00    -0.267 OA
HETATM   14  H   UNL     1      44.936 -17.968   4.164  1.00  0.00     0.171 HD
BRANCH  12  15
HETATM   15  C   UNL     1      43.449 -16.720   5.927  1.00  0.00     0.034 A 
HETATM   16  C   UNL     1      44.270 -15.855   6.660  1.00  0.00     0.044 A 
HETATM   17  C   UNL     1      44.017 -14.466   6.701  1.00  0.00     0.068 A 
HETATM   18  C   UNL     1      42.935 -13.921   5.997  1.00  0.00     0.089 A 
HETATM   19 CL   UNL     1      45.111 -13.562   7.690  1.00  0.00    -0.081 Cl
HETATM   20  C   UNL     1      42.109 -14.799   5.281  1.00  0.00     0.039 A 
HETATM   21  C   UNL     1      42.358 -16.174   5.244  1.00  0.00     0.020 A 
BRANCH  18  22
HETATM   22  O   UNL     1      42.497 -12.633   5.892  1.00  0.00    -0.354 OA
HETATM   23  C   UNL     1      41.753 -12.208   4.763  1.00  0.00     0.210 C 
ENDBRANCH  18  22
ENDBRANCH  12  15
ENDBRANCH   9  11
ENDBRANCH   7   9
ENDBRANCH   1   7
BRANCH   4  24
HETATM   24  N   UNL     1      41.328 -15.539   0.185  1.00  0.00    -0.378 N 
HETATM   25  C   UNL     1      41.135 -15.653  -1.268  1.00  0.00     0.150 C 
HETATM   26  C   UNL     1      40.941 -14.237  -1.861  1.00  0.00     0.255 C 
HETATM   27  N   UNL     1      39.790 -13.495  -1.170  1.00  0.00    -0.064 N 
HETATM   28  H   UNL     1      38.920 -13.991  -1.408  1.00  0.00     0.280 HD
HETATM   29  C   UNL     1      39.937 -13.516   0.354  1.00  0.00     0.255 C 
HETATM   30  C   UNL     1      40.179 -14.940   0.891  1.00  0.00     0.150 C 
BRANCH  27  31
HETATM   31  C   UNL     1      39.633 -12.070  -1.653  1.00  0.00     0.276 C 
BRANCH  31  32
HETATM   32  C   UNL     1      40.911 -11.308  -1.828  1.00  0.00     0.006 A 
HETATM   33  C   UNL     1      41.415 -11.076  -3.110  1.00  0.00     0.124 A 
HETATM   34  F   UNL     1      40.773 -11.601  -4.165  1.00  0.00    -0.206 F 
HETATM   35  C   UNL     1      42.572 -10.331  -3.313  1.00  0.00     0.043 A 
HETATM   36  C   UNL     1      43.248  -9.805  -2.214  1.00  0.00     0.003 A 
HETATM   37  C   UNL     1      42.764 -10.030  -0.925  1.00  0.00     0.001 A 
HETATM   38  C   UNL     1      41.600 -10.775  -0.729  1.00  0.00     0.012 A 
ENDBRANCH  31  32
ENDBRANCH  27  31
ENDBRANCH   4  24
TORSDOF 8
ENDMDL
MODEL 10
REMARK VINA RESULT:      -7.8      5.638      9.820
REMARK  8 active torsions:
REMARK  status: ('A' for Active; 'I' for Inactive)
REMARK    1  A    between atoms: O_2  and  C_3 
REMARK    2  A    between atoms: C_7  and  C_8 
REMARK       I    between atoms: C_8  and  N_9 
REMARK    3  A    between atoms: N_9  and  C_10 
REMARK    4  A    between atoms: C_10  and  N_11 
REMARK    5  A    between atoms: N_11  and  C_12 
REMARK    6  A    between atoms: C_15  and  N_16 
REMARK    7  A    between atoms: N_19  and  C_21 
REMARK    8  A    between atoms: C_21  and  C_22 
ROOT
HETATM    1  C   UNL     1      41.681 -13.898   4.242  1.00  0.00     0.034 A 
HETATM    2  C   UNL     1      40.457 -14.470   3.896  1.00  0.00     0.032 A 
HETATM    3  C   UNL     1      39.897 -14.231   2.639  1.00  0.00     0.031 A 
HETATM    4  C   UNL     1      40.540 -13.417   1.692  1.00  0.00     0.030 A 
HETATM    5  C   UNL     1      41.774 -12.860   2.046  1.00  0.00     0.031 A 
HETATM    6  C   UNL     1      42.347 -13.106   3.307  1.00  0.00     0.032 A 
ENDROOT
BRANCH   1   7
HETATM    7  N   UNL     1      42.181 -14.156   5.541  1.00  0.00    -0.333 N 
HETATM    8  H   UNL     1      42.157 -13.345   6.147  1.00  0.00     0.168 HD
BRANCH   7   9
HETATM    9  C   UNL     1      43.218 -15.001   5.804  1.00  0.00     0.179 C 
HETATM   10  S   UNL     1      44.426 -14.603   6.889  1.00  0.00    -0.040 SA
BRANCH   9  11
HETATM   11  N   UNL     1      43.136 -16.296   5.356  1.00  0.00    -0.299 N 
HETATM   12  C   UNL     1      43.623 -17.446   5.965  1.00  0.00     0.257 C 
HETATM   13  O   UNL     1      43.716 -17.589   7.181  1.00  0.00    -0.267 OA
HETATM   14  H   UNL     1      42.872 -16.331   4.385  1.00  0.00     0.171 HD
BRANCH  12  15
HETATM   15  C   UNL     1      44.004 -18.593   5.075  1.00  0.00     0.034 A 
HETATM   16  C   UNL     1      44.403 -19.855   5.533  1.00  0.00     0.044 A 
HETATM   17  C   UNL     1      44.703 -20.899   4.630  1.00  0.00     0.068 A 
HETATM   18  C   UNL     1      44.600 -20.693   3.248  1.00  0.00     0.089 A 
HETATM   19 CL   UNL     1      45.218 -22.373   5.375  1.00  0.00    -0.081 Cl
HETATM   20  C   UNL     1      44.218 -19.420   2.801  1.00  0.00     0.039 A 
HETATM   21  C   UNL     1      43.924 -18.387   3.695  1.00  0.00     0.020 A 
BRANCH  18  22
HETATM   22  O   UNL     1      44.839 -21.534   2.200  1.00  0.00    -0.354 OA
HETATM   23  C   UNL     1      43.796 -21.912   1.319  1.00  0.00     0.210 C 
ENDBRANCH  18  22
ENDBRANCH  12  15
ENDBRANCH   9  11
ENDBRANCH   7   9
ENDBRANCH   1   7
BRANCH   4  24
HETATM   24  N   UNL     1      39.910 -13.216   0.458  1.00  0.00    -0.378 N 
HETATM   25  C   UNL     1      38.638 -13.907   0.200  1.00  0.00     0.150 C 
HETATM   26  C   UNL     1      38.367 -13.905  -1.324  1.00  0.00     0.255 C 
HETATM   27  N   UNL     1      38.392 -12.482  -1.895  1.00  0.00    -0.064 N 
HETATM   28  H   UNL     1      37.589 -11.978  -1.494  1.00  0.00     0.280 HD
HETATM   29  C   UNL     1      39.663 -11.731  -1.488  1.00  0.00     0.255 C 
HETATM   30  C   UNL     1      39.916 -11.804   0.031  1.00  0.00     0.150 C 
BRANCH  27  31
HETATM   31  C   UNL     1      38.231 -12.446  -3.398  1.00  0.00     0.276 C 
BRANCH  31  32
HETATM   32  C   UNL     1      36.826 -12.597  -3.896  1.00  0.00     0.006 A 
HETATM   33  C   UNL     1      36.420 -13.796  -4.488  1.00  0.00     0.124 A 
HETATM   34  F   UNL     1      37.324 -14.774  -4.658  1.00  0.00    -0.206 F 
HETATM   35  C   UNL     1      35.112 -13.989  -4.918  1.00  0.00     0.043 A 
HETATM   36  C   UNL     1      34.182 -12.963  -4.759  1.00  0.00     0.003 A 
HETATM   37  C   UNL     1      34.568 -11.756  -4.176  1.00  0.00     0.001 A 
HETATM   38  C   UNL     1      35.883 -11.571  -3.743  1.00  0.00     0.012 A 
ENDBRANCH  31  32
ENDBRANCH  27  31
ENDBRANCH   4  24
TORSDOF 8
ENDMDL
