MODEL 1
REMARK VINA RESULT:      -8.6      0.000      0.000
REMARK  7 active torsions:
REMARK  status: ('A' for Active; 'I' for Inactive)
REMARK    1  A    between atoms: C_5  and  C_6 
REMARK    2  A    between atoms: C_6  and  N_7 
REMARK       I    between atoms: N_7  and  C_8 
REMARK    3  A    between atoms: C_8  and  C_9 
REMARK    4  A    between atoms: C_14  and  C_15 
REMARK    5  A    between atoms: C_15  and  S_16 
REMARK    6  A    between atoms: S_16  and  C_17 
REMARK    7  A    between atoms: C_17  and  C_18 
ROOT
HETATM    1  C   UNL     1      42.223 -15.068   5.302  1.00  0.00     0.034 A 
HETATM    2  C   UNL     1      40.982 -14.446   5.128  1.00  0.00     0.048 A 
HETATM    3  C   UNL     1      40.850 -13.430   4.184  1.00  0.00     0.057 A 
HETATM    4  C   UNL     1      41.948 -13.007   3.410  1.00  0.00     0.036 A 
HETATM    5  N   UNL     1      41.833 -11.919   2.527  1.00  0.00    -0.277 NA
HETATM    6  C   UNL     1      40.465 -11.727   1.964  1.00  0.00     0.162 C 
HETATM    7  C   UNL     1      39.383 -11.853   3.055  1.00  0.00     0.240 C 
HETATM    8  O   UNL     1      38.329 -11.221   3.040  1.00  0.00    -0.271 OA
HETATM    9  N   UNL     1      39.609 -12.804   4.023  1.00  0.00    -0.324 N 
HETATM   10  C   UNL     1      43.198 -13.585   3.651  1.00  0.00     0.027 A 
HETATM   11  C   UNL     1      43.336 -14.625   4.578  1.00  0.00     0.019 A 
HETATM   12  H   UNL     1      42.570 -11.877   1.829  1.00  0.00     0.128 HD
HETATM   13  H   UNL     1      38.856 -12.968   4.679  1.00  0.00     0.169 HD
ENDROOT
BRANCH   1  14
HETATM   14  C   UNL     1      42.313 -16.176   6.288  1.00  0.00     0.252 C 
HETATM   15  N   UNL     1      43.576 -16.504   6.723  1.00  0.00    -0.353 N 
HETATM   16  H   UNL     1      44.390 -16.031   6.358  1.00  0.00     0.163 HD
HETATM   17  O   UNL     1      41.297 -16.769   6.630  1.00  0.00    -0.268 OA
BRANCH  15  18
HETATM   18  C   UNL     1      43.801 -17.609   7.631  1.00  0.00     0.161 C 
BRANCH  18  19
HETATM   19  C   UNL     1      44.097 -18.891   6.893  1.00  0.00    -0.041 A 
HETATM   20  C   UNL     1      43.682 -20.122   7.416  1.00  0.00     0.009 A 
HETATM   21  C   UNL     1      43.904 -21.309   6.712  1.00  0.00     0.007 A 
HETATM   22  C   UNL     1      44.544 -21.287   5.469  1.00  0.00    -0.062 A 
HETATM   23  C   UNL     1      44.766 -22.551   4.690  1.00  0.00     0.048 C 
HETATM   24  C   UNL     1      44.952 -20.059   4.936  1.00  0.00     0.007 A 
HETATM   25  C   UNL     1      44.724 -18.873   5.638  1.00  0.00     0.009 A 
ENDBRANCH  18  19
ENDBRANCH  15  18
ENDBRANCH   1  14
BRANCH   6  26
HETATM   26  C   UNL     1      40.229 -12.764   0.845  1.00  0.00     0.103 C 
BRANCH  26  27
HETATM   27  S   UNL     1      41.757 -13.420   0.097  1.00  0.00    -0.162 SA
BRANCH  27  28
HETATM   28  C   UNL     1      41.181 -15.116  -0.232  1.00  0.00     0.114 C 
BRANCH  28  29
HETATM   29  C   UNL     1      41.581 -16.067   0.866  1.00  0.00    -0.027 A 
HETATM   30  C   UNL     1      40.718 -16.421   1.916  1.00  0.00     0.041 A 
HETATM   31 CL   UNL     1      39.116 -15.782   2.042  1.00  0.00    -0.084 Cl
HETATM   32  C   UNL     1      41.135 -17.310   2.912  1.00  0.00     0.024 A 
HETATM   33  C   UNL     1      42.414 -17.862   2.870  1.00  0.00     0.002 A 
HETATM   34  C   UNL     1      43.278 -17.532   1.829  1.00  0.00     0.001 A 
HETATM   35  C   UNL     1      42.865 -16.644   0.834  1.00  0.00     0.009 A 
ENDBRANCH  28  29
ENDBRANCH  27  28
ENDBRANCH  26  27
ENDBRANCH   6  26
TORSDOF 7
ENDMDL
MODEL 2
REMARK VINA RESULT:      -8.6      1.711      2.345
REMARK  7 active torsions:
REMARK  status: ('A' for Active; 'I' for Inactive)
REMARK    1  A    between atoms: C_5  and  C_6 
REMARK    2  A    between atoms: C_6  and  N_7 
REMARK       I    between atoms: N_7  and  C_8 
REMARK    3  A    between atoms: C_8  and  C_9 
REMARK    4  A    between atoms: C_14  and  C_15 
REMARK    5  A    between atoms: C_15  and  S_16 
REMARK    6  A    between atoms: S_16  and  C_17 
REMARK    7  A    between atoms: C_17  and  C_18 
ROOT
HETATM    1  C   UNL     1      42.399 -15.270   5.057  1.00  0.00     0.034 A 
HETATM    2  C   UNL     1      41.334 -14.563   5.625  1.00  0.00     0.048 A 
HETATM    3  C   UNL     1      41.021 -13.293   5.146  1.00  0.00     0.057 A 
HETATM    4  C   UNL     1      41.765 -12.702   4.107  1.00  0.00     0.036 A 
HETATM    5  N   UNL     1      41.505 -11.384   3.690  1.00  0.00    -0.277 NA
HETATM    6  C   UNL     1      40.088 -10.953   3.869  1.00  0.00     0.162 C 
HETATM    7  C   UNL     1      39.542 -11.365   5.251  1.00  0.00     0.240 C 
HETATM    8  O   UNL     1      38.711 -10.708   5.875  1.00  0.00    -0.271 OA
HETATM    9  N   UNL     1      39.961 -12.586   5.726  1.00  0.00    -0.324 N 
HETATM   10  C   UNL     1      42.874 -13.390   3.603  1.00  0.00     0.027 A 
HETATM   11  C   UNL     1      43.181 -14.677   4.060  1.00  0.00     0.019 A 
HETATM   12  H   UNL     1      41.887 -11.160   2.776  1.00  0.00     0.128 HD
HETATM   13  H   UNL     1      39.526 -12.911   6.579  1.00  0.00     0.169 HD
ENDROOT
BRANCH   1  14
HETATM   14  C   UNL     1      42.675 -16.639   5.567  1.00  0.00     0.252 C 
HETATM   15  N   UNL     1      43.968 -17.088   5.436  1.00  0.00    -0.353 N 
HETATM   16  H   UNL     1      44.672 -16.521   4.987  1.00  0.00     0.163 HD
HETATM   17  O   UNL     1      41.760 -17.312   6.027  1.00  0.00    -0.268 OA
BRANCH  15  18
HETATM   18  C   UNL     1      44.348 -18.428   5.833  1.00  0.00     0.161 C 
BRANCH  18  19
HETATM   19  C   UNL     1      44.361 -19.378   4.661  1.00  0.00    -0.041 A 
HETATM   20  C   UNL     1      44.727 -20.718   4.839  1.00  0.00     0.009 A 
HETATM   21  C   UNL     1      44.688 -21.618   3.770  1.00  0.00     0.007 A 
HETATM   22  C   UNL     1      44.282 -21.194   2.501  1.00  0.00    -0.062 A 
HETATM   23  C   UNL     1      44.211 -22.154   1.350  1.00  0.00     0.048 C 
HETATM   24  C   UNL     1      43.905 -19.858   2.319  1.00  0.00     0.007 A 
HETATM   25  C   UNL     1      43.938 -18.962   3.390  1.00  0.00     0.009 A 
ENDBRANCH  18  19
ENDBRANCH  15  18
ENDBRANCH   1  14
BRANCH   6  26
HETATM   26  C   UNL     1      39.228 -11.564   2.743  1.00  0.00     0.103 C 
BRANCH  26  27
HETATM   27  S   UNL     1      40.117 -11.807   1.168  1.00  0.00    -0.162 SA
BRANCH  27  28
HETATM   28  C   UNL     1      39.243 -13.300   0.602  1.00  0.00     0.114 C 
BRANCH  28  29
HETATM   29  C   UNL     1      40.029 -14.554   0.890  1.00  0.00    -0.027 A 
HETATM   30  C   UNL     1      41.125 -14.958   0.111  1.00  0.00     0.041 A 
HETATM   31 CL   UNL     1      41.662 -14.051  -1.260  1.00  0.00    -0.084 Cl
HETATM   32  C   UNL     1      41.825 -16.130   0.420  1.00  0.00     0.024 A 
HETATM   33  C   UNL     1      41.444 -16.907   1.513  1.00  0.00     0.002 A 
HETATM   34  C   UNL     1      40.368 -16.513   2.302  1.00  0.00     0.001 A 
HETATM   35  C   UNL     1      39.667 -15.345   1.996  1.00  0.00     0.009 A 
ENDBRANCH  28  29
ENDBRANCH  27  28
ENDBRANCH  26  27
ENDBRANCH   6  26
TORSDOF 7
ENDMDL
MODEL 3
REMARK VINA RESULT:      -8.5      3.138      7.722
REMARK  7 active torsions:
REMARK  status: ('A' for Active; 'I' for Inactive)
REMARK    1  A    between atoms: C_5  and  C_6 
REMARK    2  A    between atoms: C_6  and  N_7 
REMARK       I    between atoms: N_7  and  C_8 
REMARK    3  A    between atoms: C_8  and  C_9 
REMARK    4  A    between atoms: C_14  and  C_15 
REMARK    5  A    between atoms: C_15  and  S_16 
REMARK    6  A    between atoms: S_16  and  C_17 
REMARK    7  A    between atoms: C_17  and  C_18 
ROOT
HETATM    1  C   UNL     1      42.120 -14.289   2.658  1.00  0.00     0.034 A 
HETATM    2  C   UNL     1      43.019 -13.816   3.619  1.00  0.00     0.048 A 
HETATM    3  C   UNL     1      43.082 -14.438   4.865  1.00  0.00     0.057 A 
HETATM    4  C   UNL     1      42.247 -15.527   5.179  1.00  0.00     0.036 A 
HETATM    5  N   UNL     1      42.247 -16.091   6.467  1.00  0.00    -0.277 NA
HETATM    6  C   UNL     1      43.550 -15.978   7.186  1.00  0.00     0.162 C 
HETATM    7  C   UNL     1      44.152 -14.565   7.045  1.00  0.00     0.240 C 
HETATM    8  O   UNL     1      44.831 -14.028   7.918  1.00  0.00    -0.271 OA
HETATM    9  N   UNL     1      43.976 -13.952   5.827  1.00  0.00    -0.324 N 
HETATM   10  C   UNL     1      41.301 -15.938   4.235  1.00  0.00     0.027 A 
HETATM   11  C   UNL     1      41.247 -15.337   2.972  1.00  0.00     0.019 A 
HETATM   12  H   UNL     1      41.839 -17.019   6.509  1.00  0.00     0.128 HD
HETATM   13  H   UNL     1      44.458 -13.073   5.690  1.00  0.00     0.169 HD
ENDROOT
BRANCH   1  14
HETATM   14  C   UNL     1      42.113 -13.627   1.328  1.00  0.00     0.252 C 
HETATM   15  N   UNL     1      41.756 -14.414   0.258  1.00  0.00    -0.353 N 
HETATM   16  H   UNL     1      41.545 -15.394   0.381  1.00  0.00     0.163 HD
HETATM   17  O   UNL     1      42.460 -12.456   1.230  1.00  0.00    -0.268 OA
BRANCH  15  18
HETATM   18  C   UNL     1      41.776 -13.904  -1.097  1.00  0.00     0.161 C 
BRANCH  18  19
HETATM   19  C   UNL     1      40.488 -14.196  -1.827  1.00  0.00    -0.041 A 
HETATM   20  C   UNL     1      39.300 -13.558  -1.450  1.00  0.00     0.009 A 
HETATM   21  C   UNL     1      38.114 -13.781  -2.156  1.00  0.00     0.007 A 
HETATM   22  C   UNL     1      38.095 -14.647  -3.254  1.00  0.00    -0.062 A 
HETATM   23  C   UNL     1      36.835 -14.877  -4.037  1.00  0.00     0.048 C 
HETATM   24  C   UNL     1      39.282 -15.279  -3.641  1.00  0.00     0.007 A 
HETATM   25  C   UNL     1      40.467 -15.050  -2.939  1.00  0.00     0.009 A 
ENDBRANCH  18  19
ENDBRANCH  15  18
ENDBRANCH   1  14
BRANCH   6  26
HETATM   26  C   UNL     1      44.525 -17.039   6.633  1.00  0.00     0.103 C 
BRANCH  26  27
HETATM   27  S   UNL     1      43.738 -18.624   6.193  1.00  0.00    -0.162 SA
BRANCH  27  28
HETATM   28  C   UNL     1      45.130 -19.366   5.285  1.00  0.00     0.114 C 
BRANCH  28  29
HETATM   29  C   UNL     1      44.662 -20.170   4.099  1.00  0.00    -0.027 A 
HETATM   30  C   UNL     1      44.134 -19.577   2.940  1.00  0.00     0.041 A 
HETATM   31 CL   UNL     1      43.967 -17.862   2.782  1.00  0.00    -0.084 Cl
HETATM   32  C   UNL     1      43.714 -20.366   1.864  1.00  0.00     0.024 A 
HETATM   33  C   UNL     1      43.822 -21.754   1.927  1.00  0.00     0.002 A 
HETATM   34  C   UNL     1      44.355 -22.356   3.063  1.00  0.00     0.001 A 
HETATM   35  C   UNL     1      44.774 -21.573   4.139  1.00  0.00     0.009 A 
ENDBRANCH  28  29
ENDBRANCH  27  28
ENDBRANCH  26  27
ENDBRANCH   6  26
TORSDOF 7
ENDMDL
MODEL 4
REMARK VINA RESULT:      -8.1      3.886      8.471
REMARK  7 active torsions:
REMARK  status: ('A' for Active; 'I' for Inactive)
REMARK    1  A    between atoms: C_5  and  C_6 
REMARK    2  A    between atoms: C_6  and  N_7 
REMARK       I    between atoms: N_7  and  C_8 
REMARK    3  A    between atoms: C_8  and  C_9 
REMARK    4  A    between atoms: C_14  and  C_15 
REMARK    5  A    between atoms: C_15  and  S_16 
REMARK    6  A    between atoms: S_16  and  C_17 
REMARK    7  A    between atoms: C_17  and  C_18 
ROOT
HETATM    1  C   UNL     1      41.129 -15.784   0.744  1.00  0.00     0.034 A 
HETATM    2  C   UNL     1      41.342 -14.963   1.856  1.00  0.00     0.048 A 
HETATM    3  C   UNL     1      41.315 -15.518   3.134  1.00  0.00     0.057 A 
HETATM    4  C   UNL     1      41.064 -16.890   3.327  1.00  0.00     0.036 A 
HETATM    5  N   UNL     1      40.944 -17.427   4.621  1.00  0.00    -0.277 NA
HETATM    6  C   UNL     1      41.736 -16.707   5.660  1.00  0.00     0.162 C 
HETATM    7  C   UNL     1      41.586 -15.178   5.526  1.00  0.00     0.240 C 
HETATM    8  O   UNL     1      41.614 -14.409   6.484  1.00  0.00    -0.271 OA
HETATM    9  N   UNL     1      41.516 -14.689   4.243  1.00  0.00    -0.324 N 
HETATM   10  C   UNL     1      40.777 -17.682   2.211  1.00  0.00     0.027 A 
HETATM   11  C   UNL     1      40.828 -17.139   0.922  1.00  0.00     0.019 A 
HETATM   12  H   UNL     1      41.048 -18.437   4.658  1.00  0.00     0.128 HD
HETATM   13  H   UNL     1      41.526 -13.682   4.144  1.00  0.00     0.169 HD
ENDROOT
BRANCH   1  14
HETATM   14  C   UNL     1      41.208 -15.163  -0.604  1.00  0.00     0.252 C 
HETATM   15  N   UNL     1      40.640 -15.873  -1.636  1.00  0.00    -0.353 N 
HETATM   16  H   UNL     1      40.225 -16.779  -1.477  1.00  0.00     0.163 HD
HETATM   17  O   UNL     1      41.798 -14.099  -0.749  1.00  0.00    -0.268 OA
BRANCH  15  18
HETATM   18  C   UNL     1      40.711 -15.406  -3.005  1.00  0.00     0.161 C 
BRANCH  18  19
HETATM   19  C   UNL     1      39.519 -14.559  -3.372  1.00  0.00    -0.041 A 
HETATM   20  C   UNL     1      38.299 -15.159  -3.709  1.00  0.00     0.009 A 
HETATM   21  C   UNL     1      37.175 -14.380  -3.996  1.00  0.00     0.007 A 
HETATM   22  C   UNL     1      37.248 -12.984  -3.952  1.00  0.00    -0.062 A 
HETATM   23  C   UNL     1      36.043 -12.136  -4.234  1.00  0.00     0.048 C 
HETATM   24  C   UNL     1      38.462 -12.379  -3.606  1.00  0.00     0.007 A 
HETATM   25  C   UNL     1      39.583 -13.158  -3.312  1.00  0.00     0.009 A 
ENDBRANCH  18  19
ENDBRANCH  15  18
ENDBRANCH   1  14
BRANCH   6  26
HETATM   26  C   UNL     1      43.219 -17.118   5.540  1.00  0.00     0.103 C 
BRANCH  26  27
HETATM   27  S   UNL     1      43.599 -18.765   6.225  1.00  0.00    -0.162 SA
BRANCH  27  28
HETATM   28  C   UNL     1      45.003 -19.182   5.143  1.00  0.00     0.114 C 
BRANCH  28  29
HETATM   29  C   UNL     1      44.569 -19.997   3.951  1.00  0.00    -0.027 A 
HETATM   30  C   UNL     1      44.650 -21.399   3.920  1.00  0.00     0.041 A 
HETATM   31 CL   UNL     1      45.267 -22.312   5.253  1.00  0.00    -0.084 Cl
HETATM   32  C   UNL     1      44.233 -22.111   2.790  1.00  0.00     0.024 A 
HETATM   33  C   UNL     1      43.725 -21.436   1.682  1.00  0.00     0.002 A 
HETATM   34  C   UNL     1      43.627 -20.048   1.702  1.00  0.00     0.001 A 
HETATM   35  C   UNL     1      44.043 -19.333   2.826  1.00  0.00     0.009 A 
ENDBRANCH  28  29
ENDBRANCH  27  28
ENDBRANCH  26  27
ENDBRANCH   6  26
TORSDOF 7
ENDMDL
MODEL 5
REMARK VINA RESULT:      -7.9      4.800      6.802
REMARK  7 active torsions:
REMARK  status: ('A' for Active; 'I' for Inactive)
REMARK    1  A    between atoms: C_5  and  C_6 
REMARK    2  A    between atoms: C_6  and  N_7 
REMARK       I    between atoms: N_7  and  C_8 
REMARK    3  A    between atoms: C_8  and  C_9 
REMARK    4  A    between atoms: C_14  and  C_15 
REMARK    5  A    between atoms: C_15  and  S_16 
REMARK    6  A    between atoms: S_16  and  C_17 
REMARK    7  A    between atoms: C_17  and  C_18 
ROOT
HETATM    1  C   UNL     1      40.930 -15.672   3.685  1.00  0.00     0.034 A 
HETATM    2  C   UNL     1      40.318 -14.455   3.369  1.00  0.00     0.048 A 
HETATM    3  C   UNL     1      39.895 -13.612   4.395  1.00  0.00     0.057 A 
HETATM    4  C   UNL     1      40.060 -13.971   5.747  1.00  0.00     0.036 A 
HETATM    5  N   UNL     1      39.547 -13.162   6.777  1.00  0.00    -0.277 NA
HETATM    6  C   UNL     1      39.480 -11.710   6.440  1.00  0.00     0.162 C 
HETATM    7  C   UNL     1      38.905 -11.483   5.027  1.00  0.00     0.240 C 
HETATM    8  O   UNL     1      38.230 -10.503   4.720  1.00  0.00    -0.271 OA
HETATM    9  N   UNL     1      39.273 -12.401   4.072  1.00  0.00    -0.324 N 
HETATM   10  C   UNL     1      40.602 -15.224   6.045  1.00  0.00     0.027 A 
HETATM   11  C   UNL     1      41.054 -16.066   5.022  1.00  0.00     0.019 A 
HETATM   12  H   UNL     1      39.954 -13.351   7.688  1.00  0.00     0.128 HD
HETATM   13  H   UNL     1      38.989 -12.201   3.121  1.00  0.00     0.169 HD
ENDROOT
BRANCH   1  14
HETATM   14  C   UNL     1      41.406 -16.523   2.563  1.00  0.00     0.252 C 
HETATM   15  N   UNL     1      42.342 -17.479   2.879  1.00  0.00    -0.353 N 
HETATM   16  H   UNL     1      42.701 -17.565   3.820  1.00  0.00     0.163 HD
HETATM   17  O   UNL     1      40.996 -16.317   1.428  1.00  0.00    -0.268 OA
BRANCH  15  18
HETATM   18  C   UNL     1      42.933 -18.325   1.864  1.00  0.00     0.161 C 
BRANCH  18  19
HETATM   19  C   UNL     1      43.560 -19.562   2.457  1.00  0.00    -0.041 A 
HETATM   20  C   UNL     1      44.110 -19.530   3.745  1.00  0.00     0.009 A 
HETATM   21  C   UNL     1      44.643 -20.685   4.323  1.00  0.00     0.007 A 
HETATM   22  C   UNL     1      44.636 -21.897   3.624  1.00  0.00    -0.062 A 
HETATM   23  C   UNL     1      45.182 -23.150   4.242  1.00  0.00     0.048 C 
HETATM   24  C   UNL     1      44.079 -21.937   2.341  1.00  0.00     0.007 A 
HETATM   25  C   UNL     1      43.540 -20.783   1.767  1.00  0.00     0.009 A 
ENDBRANCH  18  19
ENDBRANCH  15  18
ENDBRANCH   1  14
BRANCH   6  26
HETATM   26  C   UNL     1      40.892 -11.099   6.555  1.00  0.00     0.103 C 
BRANCH  26  27
HETATM   27  S   UNL     1      41.094  -9.929   7.939  1.00  0.00    -0.162 SA
BRANCH  27  28
HETATM   28  C   UNL     1      42.604 -10.641   8.667  1.00  0.00     0.114 C 
BRANCH  28  29
HETATM   29  C   UNL     1      42.700 -10.361  10.145  1.00  0.00    -0.027 A 
HETATM   30  C   UNL     1      43.905 -10.460  10.859  1.00  0.00     0.041 A 
HETATM   31 CL   UNL     1      45.387 -10.925  10.098  1.00  0.00    -0.084 Cl
HETATM   32  C   UNL     1      43.944 -10.189  12.231  1.00  0.00     0.024 A 
HETATM   33  C   UNL     1      42.785  -9.808  12.905  1.00  0.00     0.002 A 
HETATM   34  C   UNL     1      41.585  -9.693  12.209  1.00  0.00     0.001 A 
HETATM   35  C   UNL     1      41.542  -9.964  10.840  1.00  0.00     0.009 A 
ENDBRANCH  28  29
ENDBRANCH  27  28
ENDBRANCH  26  27
ENDBRANCH   6  26
TORSDOF 7
ENDMDL
MODEL 6
REMARK VINA RESULT:      -7.9      3.944      5.659
REMARK  7 active torsions:
REMARK  status: ('A' for Active; 'I' for Inactive)
REMARK    1  A    between atoms: C_5  and  C_6 
REMARK    2  A    between atoms: C_6  and  N_7 
REMARK       I    between atoms: N_7  and  C_8 
REMARK    3  A    between atoms: C_8  and  C_9 
REMARK    4  A    between atoms: C_14  and  C_15 
REMARK    5  A    between atoms: C_15  and  S_16 
REMARK    6  A    between atoms: S_16  and  C_17 
REMARK    7  A    between atoms: C_17  and  C_18 
ROOT
HETATM    1  C   UNL     1      40.374 -15.276   1.989  1.00  0.00     0.034 A 
HETATM    2  C   UNL     1      40.857 -15.462   0.690  1.00  0.00     0.048 A 
HETATM    3  C   UNL     1      40.117 -14.988  -0.391  1.00  0.00     0.057 A 
HETATM    4  C   UNL     1      38.885 -14.334  -0.200  1.00  0.00     0.036 A 
HETATM    5  N   UNL     1      38.097 -13.941  -1.297  1.00  0.00    -0.277 NA
HETATM    6  C   UNL     1      38.877 -13.618  -2.528  1.00  0.00     0.162 C 
HETATM    7  C   UNL     1      39.967 -14.675  -2.798  1.00  0.00     0.240 C 
HETATM    8  O   UNL     1      40.335 -14.995  -3.927  1.00  0.00    -0.271 OA
HETATM    9  N   UNL     1      40.600 -15.188  -1.690  1.00  0.00    -0.324 N 
HETATM   10  C   UNL     1      38.380 -14.224   1.099  1.00  0.00     0.027 A 
HETATM   11  C   UNL     1      39.127 -14.675   2.194  1.00  0.00     0.019 A 
HETATM   12  H   UNL     1      37.392 -13.246  -1.068  1.00  0.00     0.128 HD
HETATM   13  H   UNL     1      41.387 -15.799  -1.862  1.00  0.00     0.169 HD
ENDROOT
BRANCH   1  14
HETATM   14  C   UNL     1      41.213 -15.759   3.118  1.00  0.00     0.252 C 
HETATM   15  N   UNL     1      42.443 -16.276   2.784  1.00  0.00    -0.353 N 
HETATM   16  H   UNL     1      42.733 -16.346   1.819  1.00  0.00     0.163 HD
HETATM   17  O   UNL     1      40.773 -15.724   4.260  1.00  0.00    -0.268 OA
BRANCH  15  18
HETATM   18  C   UNL     1      43.324 -16.840   3.785  1.00  0.00     0.161 C 
BRANCH  18  19
HETATM   19  C   UNL     1      43.705 -18.263   3.460  1.00  0.00    -0.041 A 
HETATM   20  C   UNL     1      44.415 -19.036   4.387  1.00  0.00     0.009 A 
HETATM   21  C   UNL     1      44.724 -20.372   4.117  1.00  0.00     0.007 A 
HETATM   22  C   UNL     1      44.326 -20.962   2.913  1.00  0.00    -0.062 A 
HETATM   23  C   UNL     1      44.628 -22.402   2.620  1.00  0.00     0.048 C 
HETATM   24  C   UNL     1      43.607 -20.198   1.987  1.00  0.00     0.007 A 
HETATM   25  C   UNL     1      43.293 -18.864   2.261  1.00  0.00     0.009 A 
ENDBRANCH  18  19
ENDBRANCH  15  18
ENDBRANCH   1  14
BRANCH   6  26
HETATM   26  C   UNL     1      39.507 -12.218  -2.374  1.00  0.00     0.103 C 
BRANCH  26  27
HETATM   27  S   UNL     1      39.604 -11.265  -3.927  1.00  0.00    -0.162 SA
BRANCH  27  28
HETATM   28  C   UNL     1      41.403 -11.372  -4.188  1.00  0.00     0.114 C 
BRANCH  28  29
HETATM   29  C   UNL     1      42.163 -10.497  -3.224  1.00  0.00    -0.027 A 
HETATM   30  C   UNL     1      42.912 -11.016  -2.156  1.00  0.00     0.041 A 
HETATM   31 CL   UNL     1      43.016 -12.715  -1.849  1.00  0.00    -0.084 Cl
HETATM   32  C   UNL     1      43.602 -10.163  -1.288  1.00  0.00     0.024 A 
HETATM   33  C   UNL     1      43.560  -8.783  -1.480  1.00  0.00     0.002 A 
HETATM   34  C   UNL     1      42.832  -8.253  -2.542  1.00  0.00     0.001 A 
HETATM   35  C   UNL     1      42.142  -9.101  -3.409  1.00  0.00     0.009 A 
ENDBRANCH  28  29
ENDBRANCH  27  28
ENDBRANCH  26  27
ENDBRANCH   6  26
TORSDOF 7
ENDMDL
MODEL 7
REMARK VINA RESULT:      -7.9      4.146      7.225
REMARK  7 active torsions:
REMARK  status: ('A' for Active; 'I' for Inactive)
REMARK    1  A    between atoms: C_5  and  C_6 
REMARK    2  A    between atoms: C_6  and  N_7 
REMARK       I    between atoms: N_7  and  C_8 
REMARK    3  A    between atoms: C_8  and  C_9 
REMARK    4  A    between atoms: C_14  and  C_15 
REMARK    5  A    between atoms: C_15  and  S_16 
REMARK    6  A    between atoms: S_16  and  C_17 
REMARK    7  A    between atoms: C_17  and  C_18 
ROOT
HETATM    1  C   UNL     1      39.766 -12.749   5.352  1.00  0.00     0.034 A 
HETATM    2  C   UNL     1      40.211 -13.986   5.829  1.00  0.00     0.048 A 
HETATM    3  C   UNL     1      40.382 -15.044   4.939  1.00  0.00     0.057 A 
HETATM    4  C   UNL     1      40.104 -14.893   3.566  1.00  0.00     0.036 A 
HETATM    5  N   UNL     1      40.188 -15.988   2.688  1.00  0.00    -0.277 NA
HETATM    6  C   UNL     1      41.184 -17.023   3.091  1.00  0.00     0.162 C 
HETATM    7  C   UNL     1      41.087 -17.346   4.595  1.00  0.00     0.240 C 
HETATM    8  O   UNL     1      41.321 -18.457   5.066  1.00  0.00    -0.271 OA
HETATM    9  N   UNL     1      40.816 -16.283   5.425  1.00  0.00    -0.324 N 
HETATM   10  C   UNL     1      39.587 -13.674   3.118  1.00  0.00     0.027 A 
HETATM   11  C   UNL     1      39.436 -12.598   4.000  1.00  0.00     0.019 A 
HETATM   12  H   UNL     1      40.247 -15.725   1.709  1.00  0.00     0.128 HD
HETATM   13  H   UNL     1      40.857 -16.464   6.419  1.00  0.00     0.169 HD
ENDROOT
BRANCH   1  14
HETATM   14  C   UNL     1      39.637 -11.634   6.326  1.00  0.00     0.252 C 
HETATM   15  N   UNL     1      39.469 -11.993   7.643  1.00  0.00    -0.353 N 
HETATM   16  H   UNL     1      39.406 -12.964   7.913  1.00  0.00     0.163 HD
HETATM   17  O   UNL     1      39.637 -10.475   5.928  1.00  0.00    -0.268 OA
BRANCH  15  18
HETATM   18  C   UNL     1      39.263 -11.001   8.678  1.00  0.00     0.161 C 
BRANCH  18  19
HETATM   19  C   UNL     1      40.472 -10.861   9.569  1.00  0.00    -0.041 A 
HETATM   20  C   UNL     1      41.706 -10.471   9.035  1.00  0.00     0.009 A 
HETATM   21  C   UNL     1      42.817 -10.285   9.863  1.00  0.00     0.007 A 
HETATM   22  C   UNL     1      42.714 -10.486  11.243  1.00  0.00    -0.062 A 
HETATM   23  C   UNL     1      43.892 -10.266  12.147  1.00  0.00     0.048 C 
HETATM   24  C   UNL     1      41.481 -10.866  11.784  1.00  0.00     0.007 A 
HETATM   25  C   UNL     1      40.370 -11.045  10.957  1.00  0.00     0.009 A 
ENDBRANCH  18  19
ENDBRANCH  15  18
ENDBRANCH   1  14
BRANCH   6  26
HETATM   26  C   UNL     1      42.601 -16.525   2.734  1.00  0.00     0.103 C 
BRANCH  26  27
HETATM   27  S   UNL     1      43.947 -17.444   3.554  1.00  0.00    -0.162 SA
BRANCH  27  28
HETATM   28  C   UNL     1      43.877 -18.961   2.551  1.00  0.00     0.114 C 
BRANCH  28  29
HETATM   29  C   UNL     1      44.195 -20.188   3.367  1.00  0.00    -0.027 A 
HETATM   30  C   UNL     1      44.287 -21.472   2.805  1.00  0.00     0.041 A 
HETATM   31 CL   UNL     1      44.030 -21.754   1.118  1.00  0.00    -0.084 Cl
HETATM   32  C   UNL     1      44.586 -22.580   3.604  1.00  0.00     0.024 A 
HETATM   33  C   UNL     1      44.805 -22.421   4.971  1.00  0.00     0.002 A 
HETATM   34  C   UNL     1      44.730 -21.154   5.542  1.00  0.00     0.001 A 
HETATM   35  C   UNL     1      44.431 -20.046   4.748  1.00  0.00     0.009 A 
ENDBRANCH  28  29
ENDBRANCH  27  28
ENDBRANCH  26  27
ENDBRANCH   6  26
TORSDOF 7
ENDMDL
MODEL 8
REMARK VINA RESULT:      -7.8      4.474      7.423
REMARK  7 active torsions:
REMARK  status: ('A' for Active; 'I' for Inactive)
REMARK    1  A    between atoms: C_5  and  C_6 
REMARK    2  A    between atoms: C_6  and  N_7 
REMARK       I    between atoms: N_7  and  C_8 
REMARK    3  A    between atoms: C_8  and  C_9 
REMARK    4  A    between atoms: C_14  and  C_15 
REMARK    5  A    between atoms: C_15  and  S_16 
REMARK    6  A    between atoms: S_16  and  C_17 
REMARK    7  A    between atoms: C_17  and  C_18 
ROOT
HETATM    1  C   UNL     1      44.159 -14.658   6.825  1.00  0.00     0.034 A 
HETATM    2  C   UNL     1      44.716 -15.941   6.829  1.00  0.00     0.048 A 
HETATM    3  C   UNL     1      44.039 -16.985   6.203  1.00  0.00     0.057 A 
HETATM    4  C   UNL     1      42.796 -16.775   5.576  1.00  0.00     0.036 A 
HETATM    5  N   UNL     1      42.072 -17.850   5.028  1.00  0.00    -0.277 NA
HETATM    6  C   UNL     1      42.921 -18.976   4.540  1.00  0.00     0.162 C 
HETATM    7  C   UNL     1      44.028 -19.329   5.554  1.00  0.00     0.240 C 
HETATM    8  O   UNL     1      44.461 -20.468   5.715  1.00  0.00    -0.271 OA
HETATM    9  N   UNL     1      44.596 -18.270   6.221  1.00  0.00    -0.324 N 
HETATM   10  C   UNL     1      42.217 -15.505   5.647  1.00  0.00     0.027 A 
HETATM   11  C   UNL     1      42.901 -14.443   6.251  1.00  0.00     0.019 A 
HETATM   12  H   UNL     1      41.354 -17.566   4.368  1.00  0.00     0.128 HD
HETATM   13  H   UNL     1      45.394 -18.481   6.807  1.00  0.00     0.169 HD
ENDROOT
BRANCH   1  14
HETATM   14  C   UNL     1      44.933 -13.563   7.466  1.00  0.00     0.252 C 
HETATM   15  N   UNL     1      44.289 -12.865   8.462  1.00  0.00    -0.353 N 
HETATM   16  H   UNL     1      43.333 -13.076   8.709  1.00  0.00     0.163 HD
HETATM   17  O   UNL     1      46.060 -13.299   7.065  1.00  0.00    -0.268 OA
BRANCH  15  18
HETATM   18  C   UNL     1      44.910 -11.734   9.116  1.00  0.00     0.161 C 
BRANCH  18  19
HETATM   19  C   UNL     1      43.964 -11.047  10.069  1.00  0.00    -0.041 A 
HETATM   20  C   UNL     1      44.388 -10.692  11.356  1.00  0.00     0.009 A 
HETATM   21  C   UNL     1      43.535 -10.006  12.225  1.00  0.00     0.007 A 
HETATM   22  C   UNL     1      42.241  -9.660  11.824  1.00  0.00    -0.062 A 
HETATM   23  C   UNL     1      41.323  -8.902  12.737  1.00  0.00     0.048 C 
HETATM   24  C   UNL     1      41.816 -10.003  10.535  1.00  0.00     0.007 A 
HETATM   25  C   UNL     1      42.671 -10.683   9.665  1.00  0.00     0.009 A 
ENDBRANCH  18  19
ENDBRANCH  15  18
ENDBRANCH   1  14
BRANCH   6  26
HETATM   26  C   UNL     1      43.537 -18.591   3.178  1.00  0.00     0.103 C 
BRANCH  26  27
HETATM   27  S   UNL     1      42.314 -18.159   1.896  1.00  0.00    -0.162 SA
BRANCH  27  28
HETATM   28  C   UNL     1      42.721 -16.393   1.730  1.00  0.00     0.114 C 
BRANCH  28  29
HETATM   29  C   UNL     1      41.521 -15.514   1.975  1.00  0.00    -0.027 A 
HETATM   30  C   UNL     1      41.628 -14.197   2.449  1.00  0.00     0.041 A 
HETATM   31 CL   UNL     1      43.158 -13.472   2.804  1.00  0.00    -0.084 Cl
HETATM   32  C   UNL     1      40.484 -13.420   2.659  1.00  0.00     0.024 A 
HETATM   33  C   UNL     1      39.221 -13.944   2.392  1.00  0.00     0.002 A 
HETATM   34  C   UNL     1      39.098 -15.244   1.910  1.00  0.00     0.001 A 
HETATM   35  C   UNL     1      40.237 -16.022   1.700  1.00  0.00     0.009 A 
ENDBRANCH  28  29
ENDBRANCH  27  28
ENDBRANCH  26  27
ENDBRANCH   6  26
TORSDOF 7
ENDMDL
MODEL 9
REMARK VINA RESULT:      -7.7      2.796      4.770
REMARK  7 active torsions:
REMARK  status: ('A' for Active; 'I' for Inactive)
REMARK    1  A    between atoms: C_5  and  C_6 
REMARK    2  A    between atoms: C_6  and  N_7 
REMARK       I    between atoms: N_7  and  C_8 
REMARK    3  A    between atoms: C_8  and  C_9 
REMARK    4  A    between atoms: C_14  and  C_15 
REMARK    5  A    between atoms: C_15  and  S_16 
REMARK    6  A    between atoms: S_16  and  C_17 
REMARK    7  A    between atoms: C_17  and  C_18 
ROOT
HETATM    1  C   UNL     1      40.722 -15.848   2.045  1.00  0.00     0.034 A 
HETATM    2  C   UNL     1      41.345 -15.880   0.793  1.00  0.00     0.048 A 
HETATM    3  C   UNL     1      40.753 -15.227  -0.285  1.00  0.00     0.057 A 
HETATM    4  C   UNL     1      39.530 -14.543  -0.140  1.00  0.00     0.036 A 
HETATM    5  N   UNL     1      38.889 -13.966  -1.251  1.00  0.00    -0.277 NA
HETATM    6  C   UNL     1      39.816 -13.519  -2.331  1.00  0.00     0.162 C 
HETATM    7  C   UNL     1      40.893 -14.583  -2.626  1.00  0.00     0.240 C 
HETATM    8  O   UNL     1      41.377 -14.766  -3.741  1.00  0.00    -0.271 OA
HETATM    9  N   UNL     1      41.375 -15.273  -1.538  1.00  0.00    -0.324 N 
HETATM   10  C   UNL     1      38.882 -14.586   1.098  1.00  0.00     0.027 A 
HETATM   11  C   UNL     1      39.482 -15.218   2.194  1.00  0.00     0.019 A 
HETATM   12  H   UNL     1      38.187 -13.274  -1.005  1.00  0.00     0.128 HD
HETATM   13  H   UNL     1      42.155 -15.895  -1.708  1.00  0.00     0.169 HD
ENDROOT
BRANCH   1  14
HETATM   14  C   UNL     1      41.408 -16.522   3.179  1.00  0.00     0.252 C 
HETATM   15  N   UNL     1      42.781 -16.446   3.192  1.00  0.00    -0.353 N 
HETATM   16  H   UNL     1      43.283 -15.983   2.448  1.00  0.00     0.163 HD
HETATM   17  O   UNL     1      40.749 -17.139   4.007  1.00  0.00    -0.268 OA
BRANCH  15  18
HETATM   18  C   UNL     1      43.567 -17.118   4.206  1.00  0.00     0.161 C 
BRANCH  18  19
HETATM   19  C   UNL     1      43.918 -18.528   3.802  1.00  0.00    -0.041 A 
HETATM   20  C   UNL     1      44.524 -19.398   4.717  1.00  0.00     0.009 A 
HETATM   21  C   UNL     1      44.802 -20.722   4.368  1.00  0.00     0.007 A 
HETATM   22  C   UNL     1      44.477 -21.204   3.095  1.00  0.00    -0.062 A 
HETATM   23  C   UNL     1      44.747 -22.630   2.715  1.00  0.00     0.048 C 
HETATM   24  C   UNL     1      43.862 -20.342   2.180  1.00  0.00     0.007 A 
HETATM   25  C   UNL     1      43.579 -19.020   2.532  1.00  0.00     0.009 A 
ENDBRANCH  18  19
ENDBRANCH  15  18
ENDBRANCH   1  14
BRANCH   6  26
HETATM   26  C   UNL     1      40.473 -12.186  -1.914  1.00  0.00     0.103 C 
BRANCH  26  27
HETATM   27  S   UNL     1      39.495 -11.208  -0.725  1.00  0.00    -0.162 SA
BRANCH  27  28
HETATM   28  C   UNL     1      40.747 -11.065   0.589  1.00  0.00     0.114 C 
BRANCH  28  29
HETATM   29  C   UNL     1      40.156 -11.306   1.955  1.00  0.00    -0.027 A 
HETATM   30  C   UNL     1      40.815 -12.051   2.947  1.00  0.00     0.041 A 
HETATM   31 CL   UNL     1      42.365 -12.769   2.676  1.00  0.00    -0.084 Cl
HETATM   32  C   UNL     1      40.226 -12.246   4.201  1.00  0.00     0.024 A 
HETATM   33  C   UNL     1      38.978 -11.694   4.484  1.00  0.00     0.002 A 
HETATM   34  C   UNL     1      38.318 -10.942   3.516  1.00  0.00     0.001 A 
HETATM   35  C   UNL     1      38.902 -10.747   2.263  1.00  0.00     0.009 A 
ENDBRANCH  28  29
ENDBRANCH  27  28
ENDBRANCH  26  27
ENDBRANCH   6  26
TORSDOF 7
ENDMDL
MODEL 10
REMARK VINA RESULT:      -7.6      2.989      4.642
REMARK  7 active torsions:
REMARK  status: ('A' for Active; 'I' for Inactive)
REMARK    1  A    between atoms: C_5  and  C_6 
REMARK    2  A    between atoms: C_6  and  N_7 
REMARK       I    between atoms: N_7  and  C_8 
REMARK    3  A    between atoms: C_8  and  C_9 
REMARK    4  A    between atoms: C_14  and  C_15 
REMARK    5  A    between atoms: C_15  and  S_16 
REMARK    6  A    between atoms: S_16  and  C_17 
REMARK    7  A    between atoms: C_17  and  C_18 
ROOT
HETATM    1  C   UNL     1      40.519 -15.688   2.087  1.00  0.00     0.034 A 
HETATM    2  C   UNL     1      40.999 -15.851   0.784  1.00  0.00     0.048 A 
HETATM    3  C   UNL     1      40.322 -15.253  -0.277  1.00  0.00     0.057 A 
HETATM    4  C   UNL     1      39.153 -14.497  -0.061  1.00  0.00     0.036 A 
HETATM    5  N   UNL     1      38.420 -13.975  -1.142  1.00  0.00    -0.277 NA
HETATM    6  C   UNL     1      39.243 -13.664  -2.348  1.00  0.00     0.162 C 
HETATM    7  C   UNL     1      40.233 -14.803  -2.665  1.00  0.00     0.240 C 
HETATM    8  O   UNL     1      40.585 -15.097  -3.806  1.00  0.00    -0.271 OA
HETATM    9  N   UNL     1      40.800 -15.430  -1.580  1.00  0.00    -0.324 N 
HETATM   10  C   UNL     1      38.643 -14.409   1.237  1.00  0.00     0.027 A 
HETATM   11  C   UNL     1      39.331 -14.984   2.313  1.00  0.00     0.019 A 
HETATM   12  H   UNL     1      37.780 -13.231  -0.883  1.00  0.00     0.128 HD
HETATM   13  H   UNL     1      41.530 -16.102  -1.778  1.00  0.00     0.169 HD
ENDROOT
BRANCH   1  14
HETATM   14  C   UNL     1      41.294 -16.306   3.195  1.00  0.00     0.252 C 
HETATM   15  N   UNL     1      42.662 -16.310   3.053  1.00  0.00    -0.353 N 
HETATM   16  H   UNL     1      43.099 -15.939   2.221  1.00  0.00     0.163 HD
HETATM   17  O   UNL     1      40.703 -16.814   4.140  1.00  0.00    -0.268 OA
BRANCH  15  18
HETATM   18  C   UNL     1      43.523 -16.941   4.030  1.00  0.00     0.161 C 
BRANCH  18  19
HETATM   19  C   UNL     1      43.863 -18.360   3.646  1.00  0.00    -0.041 A 
HETATM   20  C   UNL     1      44.453 -19.224   4.577  1.00  0.00     0.009 A 
HETATM   21  C   UNL     1      44.720 -20.556   4.246  1.00  0.00     0.007 A 
HETATM   22  C   UNL     1      44.402 -21.049   2.977  1.00  0.00    -0.062 A 
HETATM   23  C   UNL     1      44.660 -22.482   2.617  1.00  0.00     0.048 C 
HETATM   24  C   UNL     1      43.803 -20.193   2.046  1.00  0.00     0.007 A 
HETATM   25  C   UNL     1      43.530 -18.864   2.380  1.00  0.00     0.009 A 
ENDBRANCH  18  19
ENDBRANCH  15  18
ENDBRANCH   1  14
BRANCH   6  26
HETATM   26  C   UNL     1      39.998 -12.339  -2.115  1.00  0.00     0.103 C 
BRANCH  26  27
HETATM   27  S   UNL     1      39.072 -11.109  -1.137  1.00  0.00    -0.162 SA
BRANCH  27  28
HETATM   28  C   UNL     1      40.484 -10.322  -0.299  1.00  0.00     0.114 C 
BRANCH  28  29
HETATM   29  C   UNL     1      40.846 -11.033   0.979  1.00  0.00    -0.027 A 
HETATM   30  C   UNL     1      40.166 -10.814   2.188  1.00  0.00     0.041 A 
HETATM   31 CL   UNL     1      38.854  -9.693   2.314  1.00  0.00    -0.084 Cl
HETATM   32  C   UNL     1      40.538 -11.501   3.349  1.00  0.00     0.024 A 
HETATM   33  C   UNL     1      41.586 -12.419   3.317  1.00  0.00     0.002 A 
HETATM   34  C   UNL     1      42.262 -12.657   2.123  1.00  0.00     0.001 A 
HETATM   35  C   UNL     1      41.894 -11.973   0.963  1.00  0.00     0.009 A 
ENDBRANCH  28  29
ENDBRANCH  27  28
ENDBRANCH  26  27
ENDBRANCH   6  26
TORSDOF 7
ENDMDL
