MODEL 1
REMARK VINA RESULT:      -9.5      0.000      0.000
REMARK  6 active torsions:
REMARK  status: ('A' for Active; 'I' for Inactive)
REMARK    1  A    between atoms: C_3  and  C_4 
REMARK    2  A    between atoms: N_5  and  C_6 
REMARK    3  A    between atoms: C_11  and  S_12 
REMARK    4  A    between atoms: S_12  and  C_13 
REMARK    5  A    between atoms: C_13  and  C_14 
REMARK       I    between atoms: C_14  and  N_15 
REMARK    6  A    between atoms: N_15  and  C_16 
ROOT
HETATM    1  S   UNL     1      41.721 -14.883   2.993  1.00  0.00    -0.081 SA
ENDROOT
BRANCH   1   2
HETATM    2  C   UNL     1      43.043 -15.983   2.822  1.00  0.00     0.192 C 
HETATM    3  N   UNL     1      43.226 -17.123   3.563  1.00  0.00    -0.302 N 
HETATM    4  C   UNL     1      43.925 -17.964   2.703  1.00  0.00     0.166 C 
HETATM    5  N   UNL     1      44.393 -17.241   1.700  1.00  0.00    -0.128 NA
HETATM    6  N   UNL     1      43.828 -15.999   1.769  1.00  0.00    -0.122 NA
BRANCH   3   7
HETATM    7  C   UNL     1      42.733 -17.475   4.885  1.00  0.00     0.094 C 
HETATM    8  C   UNL     1      43.264 -16.551   5.998  1.00  0.00     0.026 C 
HETATM    9  C   UNL     1      42.377 -16.821   7.204  1.00  0.00     0.002 C 
HETATM   10  C   UNL     1      41.049 -17.304   6.644  1.00  0.00     0.002 C 
HETATM   11  C   UNL     1      41.220 -17.350   5.130  1.00  0.00     0.026 C 
ENDBRANCH   3   7
BRANCH   4  12
HETATM   12  C   UNL     1      44.010 -19.420   2.795  1.00  0.00     0.034 A 
HETATM   13  C   UNL     1      43.441 -20.194   1.766  1.00  0.00     0.017 A 
HETATM   14  C   UNL     1      43.528 -21.587   1.780  1.00  0.00     0.001 A 
HETATM   15  C   UNL     1      44.188 -22.228   2.823  1.00  0.00     0.002 A 
HETATM   16  C   UNL     1      44.765 -21.476   3.849  1.00  0.00     0.025 A 
HETATM   17  C   UNL     1      44.683 -20.078   3.835  1.00  0.00     0.048 A 
HETATM   18 CL   UNL     1      45.394 -19.222   5.157  1.00  0.00    -0.083 Cl
ENDBRANCH   4  12
ENDBRANCH   1   2
BRANCH   1  19
HETATM   19  C   UNL     1      42.392 -13.456   2.082  1.00  0.00     0.185 C 
BRANCH  19  20
HETATM   20  C   UNL     1      41.697 -13.290   0.732  1.00  0.00     0.231 C 
HETATM   21  N   UNL     1      41.161 -14.474   0.252  1.00  0.00    -0.326 N 
HETATM   22  H   UNL     1      41.078 -15.231   0.934  1.00  0.00     0.169 HD
HETATM   23  O   UNL     1      41.614 -12.191   0.189  1.00  0.00    -0.272 OA
BRANCH  21  24
HETATM   24  C   UNL     1      40.462 -14.685  -0.954  1.00  0.00     0.037 A 
HETATM   25  C   UNL     1      39.216 -14.117  -1.239  1.00  0.00     0.061 A 
HETATM   26  C   UNL     1      38.640 -14.452  -2.444  1.00  0.00     0.065 A 
HETATM   27  C   UNL     1      39.258 -15.298  -3.362  1.00  0.00     0.063 A 
HETATM   28  N   UNL     1      37.414 -14.070  -2.978  1.00  0.00    -0.306 N 
HETATM   29  N   UNL     1      38.417 -15.432  -4.459  1.00  0.00    -0.307 N 
HETATM   30  C   UNL     1      40.487 -15.857  -3.125  1.00  0.00     0.034 A 
HETATM   31  C   UNL     1      37.259 -14.675  -4.234  1.00  0.00     0.325 A 
HETATM   32  H   UNL     1      38.579 -15.977  -5.290  1.00  0.00     0.170 HD
HETATM   33  O   UNL     1      36.302 -14.569  -4.980  1.00  0.00    -0.247 OA
HETATM   34  C   UNL     1      41.089 -15.541  -1.901  1.00  0.00     0.032 A 
HETATM   35  H   UNL     1      36.729 -13.461  -2.558  1.00  0.00     0.170 HD
ENDBRANCH  21  24
ENDBRANCH  19  20
ENDBRANCH   1  19
TORSDOF 6
ENDMDL
MODEL 2
REMARK VINA RESULT:      -9.1      3.996      8.351
REMARK  6 active torsions:
REMARK  status: ('A' for Active; 'I' for Inactive)
REMARK    1  A    between atoms: C_3  and  C_4 
REMARK    2  A    between atoms: N_5  and  C_6 
REMARK    3  A    between atoms: C_11  and  S_12 
REMARK    4  A    between atoms: S_12  and  C_13 
REMARK    5  A    between atoms: C_13  and  C_14 
REMARK       I    between atoms: C_14  and  N_15 
REMARK    6  A    between atoms: N_15  and  C_16 
ROOT
HETATM    1  S   UNL     1      39.917 -13.968   5.062  1.00  0.00    -0.081 SA
ENDROOT
BRANCH   1   2
HETATM    2  C   UNL     1      40.241 -13.121   3.590  1.00  0.00     0.192 C 
HETATM    3  N   UNL     1      40.508 -13.710   2.380  1.00  0.00    -0.302 N 
HETATM    4  C   UNL     1      40.042 -12.782   1.455  1.00  0.00     0.166 C 
HETATM    5  N   UNL     1      39.848 -11.632   2.077  1.00  0.00    -0.128 NA
HETATM    6  N   UNL     1      39.962 -11.849   3.421  1.00  0.00    -0.122 NA
BRANCH   3   7
HETATM    7  C   UNL     1      41.038 -15.028   2.072  1.00  0.00     0.094 C 
HETATM    8  C   UNL     1      39.944 -16.100   1.906  1.00  0.00     0.026 C 
HETATM    9  C   UNL     1      40.633 -17.280   1.236  1.00  0.00     0.002 C 
HETATM   10  C   UNL     1      41.800 -16.694   0.458  1.00  0.00     0.002 C 
HETATM   11  C   UNL     1      41.786 -15.195   0.739  1.00  0.00     0.026 C 
ENDBRANCH   3   7
BRANCH   4  12
HETATM   12  C   UNL     1      39.678 -13.052   0.065  1.00  0.00     0.034 A 
HETATM   13  C   UNL     1      40.597 -12.722  -0.948  1.00  0.00     0.017 A 
HETATM   14  C   UNL     1      40.319 -12.995  -2.289  1.00  0.00     0.001 A 
HETATM   15  C   UNL     1      39.118 -13.605  -2.636  1.00  0.00     0.002 A 
HETATM   16  C   UNL     1      38.197 -13.946  -1.643  1.00  0.00     0.025 A 
HETATM   17  C   UNL     1      38.475 -13.677  -0.298  1.00  0.00     0.048 A 
HETATM   18 CL   UNL     1      37.271 -14.101   0.867  1.00  0.00    -0.083 Cl
ENDBRANCH   4  12
ENDBRANCH   1   2
BRANCH   1  19
HETATM   19  C   UNL     1      41.621 -14.371   5.563  1.00  0.00     0.185 C 
BRANCH  19  20
HETATM   20  C   UNL     1      41.865 -15.877   5.517  1.00  0.00     0.231 C 
HETATM   21  N   UNL     1      43.026 -16.216   4.841  1.00  0.00    -0.326 N 
HETATM   22  H   UNL     1      43.680 -15.449   4.675  1.00  0.00     0.169 HD
HETATM   23  O   UNL     1      41.101 -16.664   6.073  1.00  0.00    -0.272 OA
BRANCH  21  24
HETATM   24  C   UNL     1      43.549 -17.504   4.606  1.00  0.00     0.037 A 
HETATM   25  C   UNL     1      43.348 -18.220   3.422  1.00  0.00     0.061 A 
HETATM   26  C   UNL     1      43.889 -19.486   3.361  1.00  0.00     0.065 A 
HETATM   27  C   UNL     1      44.622 -20.040   4.407  1.00  0.00     0.063 A 
HETATM   28  N   UNL     1      43.827 -20.427   2.339  1.00  0.00    -0.306 N 
HETATM   29  N   UNL     1      45.015 -21.318   4.028  1.00  0.00    -0.307 N 
HETATM   30  C   UNL     1      44.855 -19.360   5.574  1.00  0.00     0.034 A 
HETATM   31  C   UNL     1      44.524 -21.577   2.741  1.00  0.00     0.325 A 
HETATM   32  H   UNL     1      45.557 -21.974   4.565  1.00  0.00     0.170 HD
HETATM   33  O   UNL     1      44.667 -22.602   2.100  1.00  0.00    -0.247 OA
HETATM   34  C   UNL     1      44.306 -18.076   5.666  1.00  0.00     0.032 A 
HETATM   35  H   UNL     1      43.369 -20.330   1.447  1.00  0.00     0.170 HD
ENDBRANCH  21  24
ENDBRANCH  19  20
ENDBRANCH   1  19
TORSDOF 6
ENDMDL
MODEL 3
REMARK VINA RESULT:      -9.0      5.408      8.414
REMARK  6 active torsions:
REMARK  status: ('A' for Active; 'I' for Inactive)
REMARK    1  A    between atoms: C_3  and  C_4 
REMARK    2  A    between atoms: N_5  and  C_6 
REMARK    3  A    between atoms: C_11  and  S_12 
REMARK    4  A    between atoms: S_12  and  C_13 
REMARK    5  A    between atoms: C_13  and  C_14 
REMARK       I    between atoms: C_14  and  N_15 
REMARK    6  A    between atoms: N_15  and  C_16 
ROOT
HETATM    1  S   UNL     1      40.400 -13.251   3.101  1.00  0.00    -0.081 SA
ENDROOT
BRANCH   1   2
HETATM    2  C   UNL     1      40.470 -14.663   4.097  1.00  0.00     0.192 C 
HETATM    3  N   UNL     1      41.321 -15.723   3.910  1.00  0.00    -0.302 N 
HETATM    4  C   UNL     1      41.509 -16.222   5.194  1.00  0.00     0.166 C 
HETATM    5  N   UNL     1      40.582 -15.708   5.983  1.00  0.00    -0.128 NA
HETATM    6  N   UNL     1      39.936 -14.719   5.295  1.00  0.00    -0.122 NA
BRANCH   3   7
HETATM    7  C   UNL     1      41.991 -16.190   2.707  1.00  0.00     0.094 C 
HETATM    8  C   UNL     1      43.525 -16.064   2.777  1.00  0.00     0.026 C 
HETATM    9  C   UNL     1      44.053 -16.921   1.635  1.00  0.00     0.002 C 
HETATM   10  C   UNL     1      42.994 -17.983   1.388  1.00  0.00     0.002 C 
HETATM   11  C   UNL     1      41.858 -17.683   2.359  1.00  0.00     0.026 C 
ENDBRANCH   3   7
BRANCH   4  12
HETATM   12  C   UNL     1      42.625 -17.052   5.647  1.00  0.00     0.034 A 
HETATM   13  C   UNL     1      42.544 -18.445   5.467  1.00  0.00     0.017 A 
HETATM   14  C   UNL     1      43.597 -19.282   5.842  1.00  0.00     0.001 A 
HETATM   15  C   UNL     1      44.748 -18.736   6.401  1.00  0.00     0.002 A 
HETATM   16  C   UNL     1      44.849 -17.355   6.580  1.00  0.00     0.025 A 
HETATM   17  C   UNL     1      43.796 -16.513   6.201  1.00  0.00     0.048 A 
HETATM   18 CL   UNL     1      43.985 -14.819   6.485  1.00  0.00    -0.083 Cl
ENDBRANCH   4  12
ENDBRANCH   1   2
BRANCH   1  19
HETATM   19  C   UNL     1      41.819 -12.332   3.778  1.00  0.00     0.185 C 
BRANCH  19  20
HETATM   20  C   UNL     1      41.366 -11.316   4.824  1.00  0.00     0.231 C 
HETATM   21  N   UNL     1      41.305 -11.848   6.102  1.00  0.00    -0.326 N 
HETATM   22  H   UNL     1      41.783 -12.742   6.232  1.00  0.00     0.169 HD
HETATM   23  O   UNL     1      41.131 -10.148   4.519  1.00  0.00    -0.272 OA
BRANCH  21  24
HETATM   24  C   UNL     1      40.925 -11.200   7.295  1.00  0.00     0.037 A 
HETATM   25  C   UNL     1      39.623 -11.213   7.805  1.00  0.00     0.061 A 
HETATM   26  C   UNL     1      39.400 -10.496   8.960  1.00  0.00     0.065 A 
HETATM   27  C   UNL     1      40.410  -9.799   9.618  1.00  0.00     0.063 A 
HETATM   28  N   UNL     1      38.220 -10.305   9.671  1.00  0.00    -0.306 N 
HETATM   29  N   UNL     1      39.855  -9.185  10.733  1.00  0.00    -0.307 N 
HETATM   30  C   UNL     1      41.701  -9.779   9.157  1.00  0.00     0.034 A 
HETATM   31  C   UNL     1      38.487  -9.488  10.779  1.00  0.00     0.325 A 
HETATM   32  H   UNL     1      40.326  -8.609  11.411  1.00  0.00     0.170 HD
HETATM   33  O   UNL     1      37.686  -9.109  11.615  1.00  0.00    -0.247 OA
HETATM   34  C   UNL     1      41.952 -10.491   7.978  1.00  0.00     0.032 A 
HETATM   35  H   UNL     1      37.310 -10.679   9.454  1.00  0.00     0.170 HD
ENDBRANCH  21  24
ENDBRANCH  19  20
ENDBRANCH   1  19
TORSDOF 6
ENDMDL
MODEL 4
REMARK VINA RESULT:      -8.9      3.712      6.116
REMARK  6 active torsions:
REMARK  status: ('A' for Active; 'I' for Inactive)
REMARK    1  A    between atoms: C_3  and  C_4 
REMARK    2  A    between atoms: N_5  and  C_6 
REMARK    3  A    between atoms: C_11  and  S_12 
REMARK    4  A    between atoms: S_12  and  C_13 
REMARK    5  A    between atoms: C_13  and  C_14 
REMARK       I    between atoms: C_14  and  N_15 
REMARK    6  A    between atoms: N_15  and  C_16 
ROOT
HETATM    1  S   UNL     1      41.257 -16.514   1.720  1.00  0.00    -0.081 SA
ENDROOT
BRANCH   1   2
HETATM    2  C   UNL     1      42.744 -17.361   1.975  1.00  0.00     0.192 C 
HETATM    3  N   UNL     1      43.115 -17.975   3.144  1.00  0.00    -0.302 N 
HETATM    4  C   UNL     1      43.941 -19.011   2.721  1.00  0.00     0.166 C 
HETATM    5  N   UNL     1      44.279 -18.789   1.463  1.00  0.00    -0.128 NA
HETATM    6  N   UNL     1      43.517 -17.758   0.991  1.00  0.00    -0.122 NA
BRANCH   3   7
HETATM    7  C   UNL     1      42.690 -17.727   4.512  1.00  0.00     0.094 C 
HETATM    8  C   UNL     1      43.087 -16.330   5.029  1.00  0.00     0.026 C 
HETATM    9  C   UNL     1      42.259 -16.116   6.287  1.00  0.00     0.002 C 
HETATM   10  C   UNL     1      41.014 -16.971   6.118  1.00  0.00     0.002 C 
HETATM   11  C   UNL     1      41.177 -17.698   4.788  1.00  0.00     0.026 C 
ENDBRANCH   3   7
BRANCH   4  12
HETATM   12  C   UNL     1      44.266 -20.222   3.473  1.00  0.00     0.034 A 
HETATM   13  C   UNL     1      44.524 -20.109   4.852  1.00  0.00     0.017 A 
HETATM   14  C   UNL     1      44.799 -21.237   5.627  1.00  0.00     0.001 A 
HETATM   15  C   UNL     1      44.817 -22.495   5.035  1.00  0.00     0.002 A 
HETATM   16  C   UNL     1      44.556 -22.627   3.670  1.00  0.00     0.025 A 
HETATM   17  C   UNL     1      44.276 -21.498   2.891  1.00  0.00     0.048 A 
HETATM   18 CL   UNL     1      43.996 -21.741   1.203  1.00  0.00    -0.083 Cl
ENDBRANCH   4  12
ENDBRANCH   1   2
BRANCH   1  19
HETATM   19  C   UNL     1      41.913 -14.902   1.182  1.00  0.00     0.185 C 
BRANCH  19  20
HETATM   20  C   UNL     1      42.038 -13.940   2.362  1.00  0.00     0.231 C 
HETATM   21  N   UNL     1      40.834 -13.726   3.013  1.00  0.00    -0.326 N 
HETATM   22  H   UNL     1      40.090 -14.391   2.797  1.00  0.00     0.169 HD
HETATM   23  O   UNL     1      43.124 -13.464   2.684  1.00  0.00    -0.272 OA
BRANCH  21  24
HETATM   24  C   UNL     1      40.586 -12.900   4.128  1.00  0.00     0.037 A 
HETATM   25  C   UNL     1      40.138 -13.378   5.364  1.00  0.00     0.061 A 
HETATM   26  C   UNL     1      39.900 -12.441   6.345  1.00  0.00     0.065 A 
HETATM   27  C   UNL     1      40.107 -11.078   6.147  1.00  0.00     0.063 A 
HETATM   28  N   UNL     1      39.429 -12.615   7.642  1.00  0.00    -0.306 N 
HETATM   29  N   UNL     1      39.769 -10.416   7.321  1.00  0.00    -0.307 N 
HETATM   30  C   UNL     1      40.563 -10.576   4.956  1.00  0.00     0.034 A 
HETATM   31  C   UNL     1      39.341 -11.361   8.263  1.00  0.00     0.325 A 
HETATM   32  H   UNL     1      39.809  -9.426   7.496  1.00  0.00     0.170 HD
HETATM   33  O   UNL     1      38.959 -11.136   9.398  1.00  0.00    -0.247 OA
HETATM   34  C   UNL     1      40.801 -11.507   3.938  1.00  0.00     0.032 A 
HETATM   35  H   UNL     1      39.186 -13.484   8.091  1.00  0.00     0.170 HD
ENDBRANCH  21  24
ENDBRANCH  19  20
ENDBRANCH   1  19
TORSDOF 6
ENDMDL
MODEL 5
REMARK VINA RESULT:      -8.9      2.308      2.781
REMARK  6 active torsions:
REMARK  status: ('A' for Active; 'I' for Inactive)
REMARK    1  A    between atoms: C_3  and  C_4 
REMARK    2  A    between atoms: N_5  and  C_6 
REMARK    3  A    between atoms: C_11  and  S_12 
REMARK    4  A    between atoms: S_12  and  C_13 
REMARK    5  A    between atoms: C_13  and  C_14 
REMARK       I    between atoms: C_14  and  N_15 
REMARK    6  A    between atoms: N_15  and  C_16 
ROOT
HETATM    1  S   UNL     1      41.717 -14.917   3.183  1.00  0.00    -0.081 SA
ENDROOT
BRANCH   1   2
HETATM    2  C   UNL     1      43.034 -16.009   2.930  1.00  0.00     0.192 C 
HETATM    3  N   UNL     1      43.268 -17.149   3.658  1.00  0.00    -0.302 N 
HETATM    4  C   UNL     1      43.918 -17.985   2.756  1.00  0.00     0.166 C 
HETATM    5  N   UNL     1      44.319 -17.258   1.727  1.00  0.00    -0.128 NA
HETATM    6  N   UNL     1      43.753 -16.019   1.832  1.00  0.00    -0.122 NA
BRANCH   3   7
HETATM    7  C   UNL     1      42.859 -17.504   5.006  1.00  0.00     0.094 C 
HETATM    8  C   UNL     1      43.453 -16.580   6.086  1.00  0.00     0.026 C 
HETATM    9  C   UNL     1      42.643 -16.855   7.344  1.00  0.00     0.002 C 
HETATM   10  C   UNL     1      41.285 -17.344   6.866  1.00  0.00     0.002 C 
HETATM   11  C   UNL     1      41.363 -17.388   5.344  1.00  0.00     0.026 C 
ENDBRANCH   3   7
BRANCH   4  12
HETATM   12  C   UNL     1      44.017 -19.441   2.840  1.00  0.00     0.034 A 
HETATM   13  C   UNL     1      43.437 -20.215   1.817  1.00  0.00     0.017 A 
HETATM   14  C   UNL     1      43.536 -21.608   1.825  1.00  0.00     0.001 A 
HETATM   15  C   UNL     1      44.219 -22.247   2.854  1.00  0.00     0.002 A 
HETATM   16  C   UNL     1      44.806 -21.494   3.874  1.00  0.00     0.025 A 
HETATM   17  C   UNL     1      44.712 -20.097   3.866  1.00  0.00     0.048 A 
HETATM   18 CL   UNL     1      45.438 -19.240   5.180  1.00  0.00    -0.083 Cl
ENDBRANCH   4  12
ENDBRANCH   1   2
BRANCH   1  19
HETATM   19  C   UNL     1      40.476 -15.678   2.089  1.00  0.00     0.185 C 
BRANCH  19  20
HETATM   20  C   UNL     1      40.263 -14.837   0.832  1.00  0.00     0.231 C 
HETATM   21  N   UNL     1      41.428 -14.651   0.104  1.00  0.00    -0.326 N 
HETATM   22  H   UNL     1      42.203 -15.271   0.344  1.00  0.00     0.169 HD
HETATM   23  O   UNL     1      39.147 -14.426   0.522  1.00  0.00    -0.272 OA
BRANCH  21  24
HETATM   24  C   UNL     1      41.595 -13.929  -1.095  1.00  0.00     0.037 A 
HETATM   25  C   UNL     1      42.118 -12.634  -1.156  1.00  0.00     0.061 A 
HETATM   26  C   UNL     1      42.179 -12.044  -2.399  1.00  0.00     0.065 A 
HETATM   27  C   UNL     1      41.764 -12.694  -3.559  1.00  0.00     0.063 A 
HETATM   28  N   UNL     1      42.617 -10.774  -2.758  1.00  0.00    -0.306 N 
HETATM   29  N   UNL     1      41.951 -11.828  -4.629  1.00  0.00    -0.307 N 
HETATM   30  C   UNL     1      41.264 -13.970  -3.540  1.00  0.00     0.034 A 
HETATM   31  C   UNL     1      42.480 -10.623  -4.146  1.00  0.00     0.325 A 
HETATM   32  H   UNL     1      41.748 -12.003  -5.599  1.00  0.00     0.170 HD
HETATM   33  O   UNL     1      42.759  -9.636  -4.802  1.00  0.00    -0.247 OA
HETATM   34  C   UNL     1      41.181 -14.587  -2.286  1.00  0.00     0.032 A 
HETATM   35  H   UNL     1      42.981 -10.059  -2.148  1.00  0.00     0.170 HD
ENDBRANCH  21  24
ENDBRANCH  19  20
ENDBRANCH   1  19
TORSDOF 6
ENDMDL
MODEL 6
REMARK VINA RESULT:      -8.9      4.166      7.482
REMARK  6 active torsions:
REMARK  status: ('A' for Active; 'I' for Inactive)
REMARK    1  A    between atoms: C_3  and  C_4 
REMARK    2  A    between atoms: N_5  and  C_6 
REMARK    3  A    between atoms: C_11  and  S_12 
REMARK    4  A    between atoms: S_12  and  C_13 
REMARK    5  A    between atoms: C_13  and  C_14 
REMARK       I    between atoms: C_14  and  N_15 
REMARK    6  A    between atoms: N_15  and  C_16 
ROOT
HETATM    1  S   UNL     1      41.359 -15.336   2.556  1.00  0.00    -0.081 SA
ENDROOT
BRANCH   1   2
HETATM    2  C   UNL     1      42.778 -16.324   2.552  1.00  0.00     0.192 C 
HETATM    3  N   UNL     1      43.006 -17.386   3.391  1.00  0.00    -0.302 N 
HETATM    4  C   UNL     1      43.828 -18.222   2.643  1.00  0.00     0.166 C 
HETATM    5  N   UNL     1      44.298 -17.537   1.615  1.00  0.00    -0.128 NA
HETATM    6  N   UNL     1      43.628 -16.348   1.552  1.00  0.00    -0.122 NA
BRANCH   3   7
HETATM    7  C   UNL     1      42.459 -17.680   4.705  1.00  0.00     0.094 C 
HETATM    8  C   UNL     1      42.968 -16.729   5.804  1.00  0.00     0.026 C 
HETATM    9  C   UNL     1      42.033 -16.938   6.985  1.00  0.00     0.002 C 
HETATM   10  C   UNL     1      40.716 -17.415   6.394  1.00  0.00     0.002 C 
HETATM   11  C   UNL     1      40.940 -17.519   4.890  1.00  0.00     0.026 C 
ENDBRANCH   3   7
BRANCH   4  12
HETATM   12  C   UNL     1      44.028 -19.655   2.855  1.00  0.00     0.034 A 
HETATM   13  C   UNL     1      43.563 -20.552   1.875  1.00  0.00     0.017 A 
HETATM   14  C   UNL     1      43.763 -21.927   2.005  1.00  0.00     0.001 A 
HETATM   15  C   UNL     1      44.434 -22.426   3.116  1.00  0.00     0.002 A 
HETATM   16  C   UNL     1      44.909 -21.551   4.095  1.00  0.00     0.025 A 
HETATM   17  C   UNL     1      44.713 -20.170   3.965  1.00  0.00     0.048 A 
HETATM   18 CL   UNL     1      45.302 -19.156   5.235  1.00  0.00    -0.083 Cl
ENDBRANCH   4  12
ENDBRANCH   1   2
BRANCH   1  19
HETATM   19  C   UNL     1      42.135 -13.689   2.490  1.00  0.00     0.185 C 
BRANCH  19  20
HETATM   20  C   UNL     1      43.098 -13.490   3.658  1.00  0.00     0.231 C 
HETATM   21  N   UNL     1      42.449 -13.229   4.854  1.00  0.00    -0.326 N 
HETATM   22  H   UNL     1      41.449 -13.436   4.869  1.00  0.00     0.169 HD
HETATM   23  O   UNL     1      44.313 -13.599   3.508  1.00  0.00    -0.272 OA
BRANCH  21  24
HETATM   24  C   UNL     1      43.025 -12.992   6.119  1.00  0.00     0.037 A 
HETATM   25  C   UNL     1      42.539 -12.048   7.029  1.00  0.00     0.061 A 
HETATM   26  C   UNL     1      43.236 -11.902   8.208  1.00  0.00     0.065 A 
HETATM   27  C   UNL     1      44.363 -12.663   8.512  1.00  0.00     0.063 A 
HETATM   28  N   UNL     1      43.010 -11.035   9.271  1.00  0.00    -0.306 N 
HETATM   29  N   UNL     1      44.825 -12.268   9.761  1.00  0.00    -0.307 N 
HETATM   30  C   UNL     1      44.856 -13.611   7.654  1.00  0.00     0.034 A 
HETATM   31  C   UNL     1      43.993 -11.250  10.248  1.00  0.00     0.325 A 
HETATM   32  H   UNL     1      45.622 -12.628  10.259  1.00  0.00     0.170 HD
HETATM   33  O   UNL     1      44.107 -10.661  11.308  1.00  0.00    -0.247 OA
HETATM   34  C   UNL     1      44.171 -13.769   6.443  1.00  0.00     0.032 A 
HETATM   35  H   UNL     1      42.270 -10.356   9.357  1.00  0.00     0.170 HD
ENDBRANCH  21  24
ENDBRANCH  19  20
ENDBRANCH   1  19
TORSDOF 6
ENDMDL
MODEL 7
REMARK VINA RESULT:      -8.9      3.803      8.518
REMARK  6 active torsions:
REMARK  status: ('A' for Active; 'I' for Inactive)
REMARK    1  A    between atoms: C_3  and  C_4 
REMARK    2  A    between atoms: N_5  and  C_6 
REMARK    3  A    between atoms: C_11  and  S_12 
REMARK    4  A    between atoms: S_12  and  C_13 
REMARK    5  A    between atoms: C_13  and  C_14 
REMARK       I    between atoms: C_14  and  N_15 
REMARK    6  A    between atoms: N_15  and  C_16 
ROOT
HETATM    1  S   UNL     1      39.800 -14.552   2.945  1.00  0.00    -0.081 SA
ENDROOT
BRANCH   1   2
HETATM    2  C   UNL     1      40.119 -14.684   1.251  1.00  0.00     0.192 C 
HETATM    3  N   UNL     1      39.912 -13.692   0.326  1.00  0.00    -0.302 N 
HETATM    4  C   UNL     1      40.865 -13.953  -0.652  1.00  0.00     0.166 C 
HETATM    5  N   UNL     1      41.332 -15.175  -0.466  1.00  0.00    -0.128 NA
HETATM    6  N   UNL     1      40.872 -15.630   0.737  1.00  0.00    -0.122 NA
BRANCH   3   7
HETATM    7  C   UNL     1      39.014 -12.549   0.358  1.00  0.00     0.094 C 
HETATM    8  C   UNL     1      37.534 -12.943   0.525  1.00  0.00     0.026 C 
HETATM    9  C   UNL     1      36.814 -11.658   0.908  1.00  0.00     0.002 C 
HETATM   10  C   UNL     1      37.857 -10.783   1.584  1.00  0.00     0.002 C 
HETATM   11  C   UNL     1      39.165 -11.564   1.529  1.00  0.00     0.026 C 
ENDBRANCH   3   7
BRANCH   4  12
HETATM   12  C   UNL     1      41.385 -13.000  -1.632  1.00  0.00     0.034 A 
HETATM   13  C   UNL     1      42.333 -12.049  -1.209  1.00  0.00     0.017 A 
HETATM   14  C   UNL     1      42.893 -11.142  -2.110  1.00  0.00     0.001 A 
HETATM   15  C   UNL     1      42.516 -11.174  -3.448  1.00  0.00     0.002 A 
HETATM   16  C   UNL     1      41.582 -12.115  -3.887  1.00  0.00     0.025 A 
HETATM   17  C   UNL     1      41.022 -13.029  -2.986  1.00  0.00     0.048 A 
HETATM   18 CL   UNL     1      39.850 -14.140  -3.601  1.00  0.00    -0.083 Cl
ENDBRANCH   4  12
ENDBRANCH   1   2
BRANCH   1  19
HETATM   19  C   UNL     1      41.407 -13.904   3.508  1.00  0.00     0.185 C 
BRANCH  19  20
HETATM   20  C   UNL     1      42.500 -14.962   3.380  1.00  0.00     0.231 C 
HETATM   21  N   UNL     1      42.042 -16.244   3.635  1.00  0.00    -0.326 N 
HETATM   22  H   UNL     1      41.028 -16.360   3.636  1.00  0.00     0.169 HD
HETATM   23  O   UNL     1      43.643 -14.660   3.043  1.00  0.00    -0.272 OA
BRANCH  21  24
HETATM   24  C   UNL     1      42.776 -17.448   3.612  1.00  0.00     0.037 A 
HETATM   25  C   UNL     1      42.695 -18.387   2.579  1.00  0.00     0.061 A 
HETATM   26  C   UNL     1      43.442 -19.536   2.721  1.00  0.00     0.065 A 
HETATM   27  C   UNL     1      44.263 -19.765   3.823  1.00  0.00     0.063 A 
HETATM   28  N   UNL     1      43.538 -20.641   1.883  1.00  0.00    -0.306 N 
HETATM   29  N   UNL     1      44.865 -21.007   3.661  1.00  0.00    -0.307 N 
HETATM   30  C   UNL     1      44.381 -18.860   4.845  1.00  0.00     0.034 A 
HETATM   31  C   UNL     1      44.421 -21.568   2.456  1.00  0.00     0.325 A 
HETATM   32  H   UNL     1      45.512 -21.458   4.286  1.00  0.00     0.170 HD
HETATM   33  O   UNL     1      44.734 -22.653   1.999  1.00  0.00    -0.247 OA
HETATM   34  C   UNL     1      43.622 -17.689   4.729  1.00  0.00     0.032 A 
HETATM   35  H   UNL     1      43.067 -20.782   1.003  1.00  0.00     0.170 HD
ENDBRANCH  21  24
ENDBRANCH  19  20
ENDBRANCH   1  19
TORSDOF 6
ENDMDL
MODEL 8
REMARK VINA RESULT:      -8.8      3.963      9.139
REMARK  6 active torsions:
REMARK  status: ('A' for Active; 'I' for Inactive)
REMARK    1  A    between atoms: C_3  and  C_4 
REMARK    2  A    between atoms: N_5  and  C_6 
REMARK    3  A    between atoms: C_11  and  S_12 
REMARK    4  A    between atoms: S_12  and  C_13 
REMARK    5  A    between atoms: C_13  and  C_14 
REMARK       I    between atoms: C_14  and  N_15 
REMARK    6  A    between atoms: N_15  and  C_16 
ROOT
HETATM    1  S   UNL     1      40.458 -13.909   1.943  1.00  0.00    -0.081 SA
ENDROOT
BRANCH   1   2
HETATM    2  C   UNL     1      41.508 -13.235   0.745  1.00  0.00     0.192 C 
HETATM    3  N   UNL     1      41.312 -13.308  -0.611  1.00  0.00    -0.302 N 
HETATM    4  C   UNL     1      41.927 -12.156  -1.092  1.00  0.00     0.166 C 
HETATM    5  N   UNL     1      42.693 -11.661  -0.136  1.00  0.00    -0.128 NA
HETATM    6  N   UNL     1      42.421 -12.333   1.022  1.00  0.00    -0.122 NA
BRANCH   3   7
HETATM    7  C   UNL     1      40.555 -14.264  -1.402  1.00  0.00     0.094 C 
HETATM    8  C   UNL     1      39.232 -13.693  -1.945  1.00  0.00     0.026 C 
HETATM    9  C   UNL     1      38.782 -14.670  -3.021  1.00  0.00     0.002 C 
HETATM   10  C   UNL     1      40.048 -15.333  -3.537  1.00  0.00     0.002 C 
HETATM   11  C   UNL     1      41.194 -14.760  -2.710  1.00  0.00     0.026 C 
ENDBRANCH   3   7
BRANCH   4  12
HETATM   12  C   UNL     1      41.665 -11.506  -2.375  1.00  0.00     0.034 A 
HETATM   13  C   UNL     1      42.504 -11.804  -3.464  1.00  0.00     0.017 A 
HETATM   14  C   UNL     1      42.276 -11.244  -4.723  1.00  0.00     0.001 A 
HETATM   15  C   UNL     1      41.203 -10.379  -4.911  1.00  0.00     0.002 A 
HETATM   16  C   UNL     1      40.356 -10.077  -3.842  1.00  0.00     0.025 A 
HETATM   17  C   UNL     1      40.580 -10.640  -2.580  1.00  0.00     0.048 A 
HETATM   18 CL   UNL     1      39.506 -10.191  -1.303  1.00  0.00    -0.083 Cl
ENDBRANCH   4  12
ENDBRANCH   1   2
BRANCH   1  19
HETATM   19  C   UNL     1      41.555 -13.821   3.394  1.00  0.00     0.185 C 
BRANCH  19  20
HETATM   20  C   UNL     1      42.628 -14.907   3.337  1.00  0.00     0.231 C 
HETATM   21  N   UNL     1      42.114 -16.182   3.512  1.00  0.00    -0.326 N 
HETATM   22  H   UNL     1      41.101 -16.268   3.417  1.00  0.00     0.169 HD
HETATM   23  O   UNL     1      43.804 -14.630   3.115  1.00  0.00    -0.272 OA
BRANCH  21  24
HETATM   24  C   UNL     1      42.814 -17.406   3.522  1.00  0.00     0.037 A 
HETATM   25  C   UNL     1      42.744 -18.349   2.493  1.00  0.00     0.061 A 
HETATM   26  C   UNL     1      43.454 -19.517   2.668  1.00  0.00     0.065 A 
HETATM   27  C   UNL     1      44.228 -19.761   3.800  1.00  0.00     0.063 A 
HETATM   28  N   UNL     1      43.549 -20.630   1.840  1.00  0.00    -0.306 N 
HETATM   29  N   UNL     1      44.801 -21.020   3.667  1.00  0.00    -0.307 N 
HETATM   30  C   UNL     1      44.336 -18.852   4.820  1.00  0.00     0.034 A 
HETATM   31  C   UNL     1      44.385 -21.577   2.450  1.00  0.00     0.325 A 
HETATM   32  H   UNL     1      45.414 -21.484   4.317  1.00  0.00     0.170 HD
HETATM   33  O   UNL     1      44.684 -22.673   2.012  1.00  0.00    -0.247 OA
HETATM   34  C   UNL     1      43.614 -17.661   4.671  1.00  0.00     0.032 A 
HETATM   35  H   UNL     1      43.105 -20.764   0.945  1.00  0.00     0.170 HD
ENDBRANCH  21  24
ENDBRANCH  19  20
ENDBRANCH   1  19
TORSDOF 6
ENDMDL
MODEL 9
REMARK VINA RESULT:      -8.8      3.788      8.200
REMARK  6 active torsions:
REMARK  status: ('A' for Active; 'I' for Inactive)
REMARK    1  A    between atoms: C_3  and  C_4 
REMARK    2  A    between atoms: N_5  and  C_6 
REMARK    3  A    between atoms: C_11  and  S_12 
REMARK    4  A    between atoms: S_12  and  C_13 
REMARK    5  A    between atoms: C_13  and  C_14 
REMARK       I    between atoms: C_14  and  N_15 
REMARK    6  A    between atoms: N_15  and  C_16 
ROOT
HETATM    1  S   UNL     1      40.517 -12.886   4.627  1.00  0.00    -0.081 SA
ENDROOT
BRANCH   1   2
HETATM    2  C   UNL     1      40.879 -12.478   2.986  1.00  0.00     0.192 C 
HETATM    3  N   UNL     1      40.955 -13.371   1.946  1.00  0.00    -0.302 N 
HETATM    4  C   UNL     1      40.593 -12.612   0.838  1.00  0.00     0.166 C 
HETATM    5  N   UNL     1      40.645 -11.334   1.170  1.00  0.00    -0.128 NA
HETATM    6  N   UNL     1      40.814 -11.251   2.524  1.00  0.00    -0.122 NA
BRANCH   3   7
HETATM    7  C   UNL     1      41.225 -14.799   1.951  1.00  0.00     0.094 C 
HETATM    8  C   UNL     1      39.951 -15.659   2.047  1.00  0.00     0.026 C 
HETATM    9  C   UNL     1      40.384 -17.067   1.666  1.00  0.00     0.002 C 
HETATM   10  C   UNL     1      41.596 -16.900   0.763  1.00  0.00     0.002 C 
HETATM   11  C   UNL     1      41.863 -15.401   0.687  1.00  0.00     0.026 C 
ENDBRANCH   3   7
BRANCH   4  12
HETATM   12  C   UNL     1      40.091 -13.125  -0.436  1.00  0.00     0.034 A 
HETATM   13  C   UNL     1      38.761 -13.580  -0.501  1.00  0.00     0.017 A 
HETATM   14  C   UNL     1      38.216 -14.041  -1.701  1.00  0.00     0.001 A 
HETATM   15  C   UNL     1      38.993 -14.052  -2.854  1.00  0.00     0.002 A 
HETATM   16  C   UNL     1      40.313 -13.598  -2.810  1.00  0.00     0.025 A 
HETATM   17  C   UNL     1      40.860 -13.131  -1.609  1.00  0.00     0.048 A 
HETATM   18 CL   UNL     1      42.510 -12.616  -1.629  1.00  0.00    -0.083 Cl
ENDBRANCH   4  12
ENDBRANCH   1   2
BRANCH   1  19
HETATM   19  C   UNL     1      42.174 -12.699   5.360  1.00  0.00     0.185 C 
BRANCH  19  20
HETATM   20  C   UNL     1      43.094 -13.842   4.935  1.00  0.00     0.231 C 
HETATM   21  N   UNL     1      42.706 -15.067   5.453  1.00  0.00    -0.326 N 
HETATM   22  H   UNL     1      41.760 -15.107   5.834  1.00  0.00     0.169 HD
HETATM   23  O   UNL     1      44.043 -13.648   4.179  1.00  0.00    -0.272 OA
BRANCH  21  24
HETATM   24  C   UNL     1      43.325 -16.321   5.269  1.00  0.00     0.037 A 
HETATM   25  C   UNL     1      43.134 -17.123   4.140  1.00  0.00     0.061 A 
HETATM   26  C   UNL     1      43.775 -18.343   4.127  1.00  0.00     0.065 A 
HETATM   27  C   UNL     1      44.595 -18.771   5.168  1.00  0.00     0.063 A 
HETATM   28  N   UNL     1      43.749 -19.348   3.166  1.00  0.00    -0.306 N 
HETATM   29  N   UNL     1      45.076 -20.034   4.847  1.00  0.00    -0.307 N 
HETATM   30  C   UNL     1      44.819 -18.003   6.281  1.00  0.00     0.034 A 
HETATM   31  C   UNL     1      44.555 -20.410   3.602  1.00  0.00     0.325 A 
HETATM   32  H   UNL     1      45.693 -20.610   5.395  1.00  0.00     0.170 HD
HETATM   33  O   UNL     1      44.756 -21.459   3.015  1.00  0.00    -0.247 OA
HETATM   34  C   UNL     1      44.170 -16.764   6.324  1.00  0.00     0.032 A 
HETATM   35  H   UNL     1      43.248 -19.343   2.292  1.00  0.00     0.170 HD
ENDBRANCH  21  24
ENDBRANCH  19  20
ENDBRANCH   1  19
TORSDOF 6
ENDMDL
MODEL 10
REMARK VINA RESULT:      -8.8      1.907      2.804
REMARK  6 active torsions:
REMARK  status: ('A' for Active; 'I' for Inactive)
REMARK    1  A    between atoms: C_3  and  C_4 
REMARK    2  A    between atoms: N_5  and  C_6 
REMARK    3  A    between atoms: C_11  and  S_12 
REMARK    4  A    between atoms: S_12  and  C_13 
REMARK    5  A    between atoms: C_13  and  C_14 
REMARK       I    between atoms: C_14  and  N_15 
REMARK    6  A    between atoms: N_15  and  C_16 
ROOT
HETATM    1  S   UNL     1      43.460 -14.265   3.453  1.00  0.00    -0.081 SA
ENDROOT
BRANCH   1   2
HETATM    2  C   UNL     1      43.354 -15.594   4.553  1.00  0.00     0.192 C 
HETATM    3  N   UNL     1      43.020 -16.881   4.211  1.00  0.00    -0.302 N 
HETATM    4  C   UNL     1      43.686 -17.654   5.156  1.00  0.00     0.166 C 
HETATM    5  N   UNL     1      44.076 -16.865   6.142  1.00  0.00    -0.128 NA
HETATM    6  N   UNL     1      43.877 -15.569   5.757  1.00  0.00    -0.122 NA
BRANCH   3   7
HETATM    7  C   UNL     1      42.258 -17.385   3.080  1.00  0.00     0.094 C 
HETATM    8  C   UNL     1      40.818 -16.839   3.024  1.00  0.00     0.026 C 
HETATM    9  C   UNL     1      40.319 -17.160   1.622  1.00  0.00     0.002 C 
HETATM   10  C   UNL     1      41.559 -17.234   0.746  1.00  0.00     0.002 C 
HETATM   11  C   UNL     1      42.747 -17.004   1.672  1.00  0.00     0.026 C 
ENDBRANCH   3   7
BRANCH   4  12
HETATM   12  C   UNL     1      44.038 -19.067   5.026  1.00  0.00     0.034 A 
HETATM   13  C   UNL     1      44.410 -19.554   3.759  1.00  0.00     0.017 A 
HETATM   14  C   UNL     1      44.796 -20.885   3.586  1.00  0.00     0.001 A 
HETATM   15  C   UNL     1      44.818 -21.747   4.677  1.00  0.00     0.002 A 
HETATM   16  C   UNL     1      44.458 -21.279   5.942  1.00  0.00     0.025 A 
HETATM   17  C   UNL     1      44.075 -19.944   6.120  1.00  0.00     0.048 A 
HETATM   18 CL   UNL     1      43.614 -19.450   7.711  1.00  0.00    -0.083 Cl
ENDBRANCH   4  12
ENDBRANCH   1   2
BRANCH   1  19
HETATM   19  C   UNL     1      41.938 -13.373   3.905  1.00  0.00     0.185 C 
BRANCH  19  20
HETATM   20  C   UNL     1      41.005 -13.234   2.704  1.00  0.00     0.231 C 
HETATM   21  N   UNL     1      41.593 -13.638   1.516  1.00  0.00    -0.326 N 
HETATM   22  H   UNL     1      42.450 -14.185   1.610  1.00  0.00     0.169 HD
HETATM   23  O   UNL     1      39.849 -12.839   2.837  1.00  0.00    -0.272 OA
BRANCH  21  24
HETATM   24  C   UNL     1      41.026 -13.640   0.225  1.00  0.00     0.037 A 
HETATM   25  C   UNL     1      39.741 -14.112  -0.058  1.00  0.00     0.061 A 
HETATM   26  C   UNL     1      39.345 -14.088  -1.377  1.00  0.00     0.065 A 
HETATM   27  C   UNL     1      40.160 -13.602  -2.397  1.00  0.00     0.063 A 
HETATM   28  N   UNL     1      38.152 -14.513  -1.954  1.00  0.00    -0.306 N 
HETATM   29  N   UNL     1      39.470 -13.724  -3.596  1.00  0.00    -0.307 N 
HETATM   30  C   UNL     1      41.418 -13.115  -2.154  1.00  0.00     0.034 A 
HETATM   31  C   UNL     1      38.216 -14.294  -3.338  1.00  0.00     0.325 A 
HETATM   32  H   UNL     1      39.789 -13.461  -4.514  1.00  0.00     0.170 HD
HETATM   33  O   UNL     1      37.352 -14.555  -4.156  1.00  0.00    -0.247 OA
HETATM   34  C   UNL     1      41.848 -13.140  -0.822  1.00  0.00     0.032 A 
HETATM   35  H   UNL     1      37.356 -14.913  -1.483  1.00  0.00     0.170 HD
ENDBRANCH  21  24
ENDBRANCH  19  20
ENDBRANCH   1  19
TORSDOF 6
ENDMDL
