MODEL 1
REMARK VINA RESULT:      -8.3      0.000      0.000
REMARK  3 active torsions:
REMARK  status: ('A' for Active; 'I' for Inactive)
REMARK    1  A    between atoms: C_6  and  N_7 
REMARK       I    between atoms: N_7  and  C_8 
REMARK    2  A    between atoms: C_8  and  C_9 
REMARK    3  A    between atoms: C_9  and  C_10 
ROOT
HETATM    1  C   UNL     1      41.845 -15.562   1.367  1.00  0.00     0.286 C 
HETATM    2  N   UNL     1      41.759 -14.244   0.580  1.00  0.00    -0.056 N 
HETATM    3  H   UNL     1      42.418 -13.588   1.019  1.00  0.00     0.278 HD
HETATM    4  H   UNL     1      42.178 -14.383  -0.366  1.00  0.00     0.278 HD
HETATM    5  C   UNL     1      40.428 -13.575   0.470  1.00  0.00     0.209 C 
HETATM    6  C   UNL     1      39.712 -13.624   1.837  1.00  0.00     0.115 C 
HETATM    7  N   UNL     1      39.630 -14.987   2.347  1.00  0.00    -0.353 N 
HETATM    8  C   UNL     1      40.618 -15.923   2.213  1.00  0.00     0.249 C 
HETATM    9  O   UNL     1      40.516 -17.007   2.777  1.00  0.00    -0.271 OA
HETATM   10  C   UNL     1      39.608 -14.211  -0.654  1.00  0.00     0.035 C 
HETATM   11  C   UNL     1      38.222 -13.574  -0.736  1.00  0.00     0.002 C 
HETATM   12  C   UNL     1      37.491 -13.618   0.605  1.00  0.00     0.002 C 
HETATM   13  C   UNL     1      38.320 -12.997   1.730  1.00  0.00     0.027 C 
HETATM   14  H   UNL     1      38.892 -15.243   3.000  1.00  0.00     0.163 HD
ENDROOT
BRANCH   1  15
HETATM   15  C   UNL     1      42.229 -16.730   0.449  1.00  0.00     0.146 C 
BRANCH  15  16
HETATM   16  C   UNL     1      43.355 -17.454   1.138  1.00  0.00     0.224 C 
HETATM   17  N   UNL     1      42.998 -18.670   1.657  1.00  0.00    -0.327 N 
HETATM   18  H   UNL     1      42.132 -19.063   1.299  1.00  0.00     0.169 HD
HETATM   19  O   UNL     1      44.383 -16.802   1.306  1.00  0.00    -0.273 OA
BRANCH  17  20
HETATM   20  C   UNL     1      43.618 -19.499   2.629  1.00  0.00     0.040 A 
HETATM   21  C   UNL     1      43.958 -19.196   3.960  1.00  0.00    -0.035 A 
HETATM   22  C   UNL     1      44.519 -20.216   4.768  1.00  0.00     0.015 A 
HETATM   23  C   UNL     1      43.797 -17.865   4.634  1.00  0.00     0.050 C 
HETATM   24  C   UNL     1      44.762 -21.506   4.287  1.00  0.00    -0.061 A 
HETATM   25  C   UNL     1      45.339 -22.565   5.176  1.00  0.00     0.048 C 
HETATM   26  C   UNL     1      44.422 -21.798   2.973  1.00  0.00     0.009 A 
HETATM   27  C   UNL     1      43.868 -20.808   2.160  1.00  0.00     0.030 A 
ENDBRANCH  17  20
ENDBRANCH  15  16
ENDBRANCH   1  15
TORSDOF 3
ENDMDL
MODEL 2
REMARK VINA RESULT:      -8.3      1.721      2.571
REMARK  3 active torsions:
REMARK  status: ('A' for Active; 'I' for Inactive)
REMARK    1  A    between atoms: C_6  and  N_7 
REMARK       I    between atoms: N_7  and  C_8 
REMARK    2  A    between atoms: C_8  and  C_9 
REMARK    3  A    between atoms: C_9  and  C_10 
ROOT
HETATM    1  C   UNL     1      42.080 -14.851   1.961  1.00  0.00     0.286 C 
HETATM    2  N   UNL     1      41.023 -15.868   1.500  1.00  0.00    -0.056 N 
HETATM    3  H   UNL     1      41.507 -16.559   0.912  1.00  0.00     0.278 HD
HETATM    4  H   UNL     1      40.719 -16.441   2.316  1.00  0.00     0.278 HD
HETATM    5  C   UNL     1      39.837 -15.357   0.748  1.00  0.00     0.209 C 
HETATM    6  C   UNL     1      40.293 -14.301  -0.281  1.00  0.00     0.115 C 
HETATM    7  N   UNL     1      41.073 -13.244   0.350  1.00  0.00    -0.353 N 
HETATM    8  C   UNL     1      41.970 -13.444   1.362  1.00  0.00     0.249 C 
HETATM    9  O   UNL     1      42.672 -12.516   1.752  1.00  0.00    -0.271 OA
HETATM   10  C   UNL     1      38.786 -14.821   1.723  1.00  0.00     0.035 C 
HETATM   11  C   UNL     1      37.594 -14.242   0.963  1.00  0.00     0.002 C 
HETATM   12  C   UNL     1      38.022 -13.189  -0.057  1.00  0.00     0.002 C 
HETATM   13  C   UNL     1      39.084 -13.721  -1.019  1.00  0.00     0.027 C 
HETATM   14  H   UNL     1      41.117 -12.319  -0.076  1.00  0.00     0.163 HD
ENDROOT
BRANCH   1  15
HETATM   15  C   UNL     1      42.146 -14.781   3.493  1.00  0.00     0.146 C 
BRANCH  15  16
HETATM   16  C   UNL     1      42.300 -16.200   3.973  1.00  0.00     0.224 C 
HETATM   17  N   UNL     1      43.452 -16.806   3.549  1.00  0.00    -0.327 N 
HETATM   18  H   UNL     1      44.178 -16.182   3.209  1.00  0.00     0.169 HD
HETATM   19  O   UNL     1      41.314 -16.687   4.520  1.00  0.00    -0.273 OA
BRANCH  17  20
HETATM   20  C   UNL     1      43.830 -18.174   3.486  1.00  0.00     0.040 A 
HETATM   21  C   UNL     1      44.432 -18.969   4.477  1.00  0.00    -0.035 A 
HETATM   22  C   UNL     1      44.662 -20.341   4.203  1.00  0.00     0.015 A 
HETATM   23  C   UNL     1      44.882 -18.506   5.832  1.00  0.00     0.050 C 
HETATM   24  C   UNL     1      44.327 -20.928   2.979  1.00  0.00    -0.061 A 
HETATM   25  C   UNL     1      44.568 -22.386   2.731  1.00  0.00     0.048 C 
HETATM   26  C   UNL     1      43.732 -20.136   2.006  1.00  0.00     0.009 A 
HETATM   27  C   UNL     1      43.497 -18.783   2.256  1.00  0.00     0.030 A 
ENDBRANCH  17  20
ENDBRANCH  15  16
ENDBRANCH   1  15
TORSDOF 3
ENDMDL
MODEL 3
REMARK VINA RESULT:      -8.1      3.785      4.951
REMARK  3 active torsions:
REMARK  status: ('A' for Active; 'I' for Inactive)
REMARK    1  A    between atoms: C_6  and  N_7 
REMARK       I    between atoms: N_7  and  C_8 
REMARK    2  A    between atoms: C_8  and  C_9 
REMARK    3  A    between atoms: C_9  and  C_10 
ROOT
HETATM    1  C   UNL     1      44.063 -15.368   6.360  1.00  0.00     0.286 C 
HETATM    2  N   UNL     1      43.064 -15.485   5.197  1.00  0.00    -0.056 N 
HETATM    3  H   UNL     1      43.612 -15.458   4.327  1.00  0.00     0.278 HD
HETATM    4  H   UNL     1      42.667 -16.449   5.183  1.00  0.00     0.278 HD
HETATM    5  C   UNL     1      41.973 -14.468   5.102  1.00  0.00     0.209 C 
HETATM    6  C   UNL     1      42.548 -13.066   5.396  1.00  0.00     0.115 C 
HETATM    7  N   UNL     1      43.253 -13.036   6.672  1.00  0.00    -0.353 N 
HETATM    8  C   UNL     1      44.027 -14.056   7.152  1.00  0.00     0.249 C 
HETATM    9  O   UNL     1      44.680 -13.899   8.178  1.00  0.00    -0.271 OA
HETATM   10  C   UNL     1      40.819 -14.844   6.032  1.00  0.00     0.035 C 
HETATM   11  C   UNL     1      39.723 -13.779   5.986  1.00  0.00     0.002 C 
HETATM   12  C   UNL     1      40.269 -12.383   6.282  1.00  0.00     0.002 C 
HETATM   13  C   UNL     1      41.434 -12.017   5.363  1.00  0.00     0.027 C 
HETATM   14  H   UNL     1      43.348 -12.158   7.181  1.00  0.00     0.163 HD
ENDROOT
BRANCH   1  15
HETATM   15  C   UNL     1      43.951 -16.571   7.306  1.00  0.00     0.146 C 
BRANCH  15  16
HETATM   16  C   UNL     1      43.444 -17.717   6.471  1.00  0.00     0.224 C 
HETATM   17  N   UNL     1      44.392 -18.269   5.651  1.00  0.00    -0.327 N 
HETATM   18  H   UNL     1      45.356 -18.047   5.883  1.00  0.00     0.169 HD
HETATM   19  O   UNL     1      42.228 -17.894   6.492  1.00  0.00    -0.273 OA
BRANCH  17  20
HETATM   20  C   UNL     1      44.280 -19.104   4.509  1.00  0.00     0.040 A 
HETATM   21  C   UNL     1      43.935 -18.754   3.191  1.00  0.00    -0.035 A 
HETATM   22  C   UNL     1      43.949 -19.760   2.193  1.00  0.00     0.015 A 
HETATM   23  C   UNL     1      43.530 -17.390   2.714  1.00  0.00     0.050 C 
HETATM   24  C   UNL     1      44.277 -21.090   2.474  1.00  0.00    -0.061 A 
HETATM   25  C   UNL     1      44.299 -22.125   1.389  1.00  0.00     0.048 C 
HETATM   26  C   UNL     1      44.617 -21.428   3.777  1.00  0.00     0.009 A 
HETATM   27  C   UNL     1      44.610 -20.451   4.774  1.00  0.00     0.030 A 
ENDBRANCH  17  20
ENDBRANCH  15  16
ENDBRANCH   1  15
TORSDOF 3
ENDMDL
MODEL 4
REMARK VINA RESULT:      -8.1      2.148      3.221
REMARK  3 active torsions:
REMARK  status: ('A' for Active; 'I' for Inactive)
REMARK    1  A    between atoms: C_6  and  N_7 
REMARK       I    between atoms: N_7  and  C_8 
REMARK    2  A    between atoms: C_8  and  C_9 
REMARK    3  A    between atoms: C_9  and  C_10 
ROOT
HETATM    1  C   UNL     1      39.557 -14.078   1.154  1.00  0.00     0.286 C 
HETATM    2  N   UNL     1      40.949 -14.044   0.503  1.00  0.00    -0.056 N 
HETATM    3  H   UNL     1      41.401 -13.170   0.805  1.00  0.00     0.278 HD
HETATM    4  H   UNL     1      41.552 -14.772   0.944  1.00  0.00     0.278 HD
HETATM    5  C   UNL     1      41.032 -14.128  -0.987  1.00  0.00     0.209 C 
HETATM    6  C   UNL     1      39.941 -13.235  -1.615  1.00  0.00     0.115 C 
HETATM    7  N   UNL     1      38.619 -13.562  -1.093  1.00  0.00    -0.353 N 
HETATM    8  C   UNL     1      38.365 -13.905   0.206  1.00  0.00     0.249 C 
HETATM    9  O   UNL     1      37.207 -14.047   0.586  1.00  0.00    -0.271 OA
HETATM   10  C   UNL     1      40.941 -15.586  -1.439  1.00  0.00     0.035 C 
HETATM   11  C   UNL     1      40.965 -15.679  -2.964  1.00  0.00     0.002 C 
HETATM   12  C   UNL     1      39.887 -14.808  -3.607  1.00  0.00     0.002 C 
HETATM   13  C   UNL     1      39.970 -13.355  -3.141  1.00  0.00     0.027 C 
HETATM   14  H   UNL     1      37.789 -13.361  -1.648  1.00  0.00     0.163 HD
ENDROOT
BRANCH   1  15
HETATM   15  C   UNL     1      39.382 -15.337   2.015  1.00  0.00     0.146 C 
BRANCH  15  16
HETATM   16  C   UNL     1      40.750 -15.679   2.542  1.00  0.00     0.224 C 
HETATM   17  N   UNL     1      41.083 -17.000   2.403  1.00  0.00    -0.327 N 
HETATM   18  H   UNL     1      40.522 -17.528   1.740  1.00  0.00     0.169 HD
HETATM   19  O   UNL     1      41.312 -14.793   3.181  1.00  0.00    -0.273 OA
BRANCH  17  20
HETATM   20  C   UNL     1      42.083 -17.792   3.028  1.00  0.00     0.040 A 
HETATM   21  C   UNL     1      42.282 -18.039   4.399  1.00  0.00    -0.035 A 
HETATM   22  C   UNL     1      43.320 -18.923   4.787  1.00  0.00     0.015 A 
HETATM   23  C   UNL     1      41.498 -17.441   5.530  1.00  0.00     0.050 C 
HETATM   24  C   UNL     1      44.162 -19.544   3.860  1.00  0.00    -0.061 A 
HETATM   25  C   UNL     1      45.238 -20.488   4.306  1.00  0.00     0.048 C 
HETATM   26  C   UNL     1      43.958 -19.296   2.509  1.00  0.00     0.009 A 
HETATM   27  C   UNL     1      42.941 -18.429   2.106  1.00  0.00     0.030 A 
ENDBRANCH  17  20
ENDBRANCH  15  16
ENDBRANCH   1  15
TORSDOF 3
ENDMDL
MODEL 5
REMARK VINA RESULT:      -8.0      2.332      3.524
REMARK  3 active torsions:
REMARK  status: ('A' for Active; 'I' for Inactive)
REMARK    1  A    between atoms: C_6  and  N_7 
REMARK       I    between atoms: N_7  and  C_8 
REMARK    2  A    between atoms: C_8  and  C_9 
REMARK    3  A    between atoms: C_9  and  C_10 
ROOT
HETATM    1  C   UNL     1      41.788 -14.587   3.559  1.00  0.00     0.286 C 
HETATM    2  N   UNL     1      40.315 -14.309   3.219  1.00  0.00    -0.056 N 
HETATM    3  H   UNL     1      40.043 -14.983   2.491  1.00  0.00     0.278 HD
HETATM    4  H   UNL     1      39.717 -14.595   4.024  1.00  0.00     0.278 HD
HETATM    5  C   UNL     1      39.947 -12.937   2.754  1.00  0.00     0.209 C 
HETATM    6  C   UNL     1      41.007 -12.429   1.754  1.00  0.00     0.115 C 
HETATM    7  N   UNL     1      42.350 -12.505   2.316  1.00  0.00    -0.353 N 
HETATM    8  C   UNL     1      42.796 -13.518   3.118  1.00  0.00     0.249 C 
HETATM    9  O   UNL     1      43.976 -13.564   3.448  1.00  0.00    -0.271 OA
HETATM   10  C   UNL     1      39.766 -12.005   3.953  1.00  0.00     0.035 C 
HETATM   11  C   UNL     1      39.448 -10.585   3.487  1.00  0.00     0.002 C 
HETATM   12  C   UNL     1      40.489 -10.058   2.501  1.00  0.00     0.002 C 
HETATM   13  C   UNL     1      40.680 -11.000   1.312  1.00  0.00     0.027 C 
HETATM   14  H   UNL     1      43.081 -11.885   1.972  1.00  0.00     0.163 HD
ENDROOT
BRANCH   1  15
HETATM   15  C   UNL     1      41.959 -14.905   5.051  1.00  0.00     0.146 C 
BRANCH  15  16
HETATM   16  C   UNL     1      42.318 -16.365   5.131  1.00  0.00     0.224 C 
HETATM   17  N   UNL     1      43.237 -16.763   4.196  1.00  0.00    -0.327 N 
HETATM   18  H   UNL     1      43.765 -16.016   3.753  1.00  0.00     0.169 HD
HETATM   19  O   UNL     1      41.625 -17.043   5.885  1.00  0.00    -0.273 OA
BRANCH  17  20
HETATM   20  C   UNL     1      43.594 -18.049   3.713  1.00  0.00     0.040 A 
HETATM   21  C   UNL     1      44.300 -19.073   4.370  1.00  0.00    -0.035 A 
HETATM   22  C   UNL     1      44.487 -20.309   3.701  1.00  0.00     0.015 A 
HETATM   23  C   UNL     1      44.906 -18.993   5.740  1.00  0.00     0.050 C 
HETATM   24  C   UNL     1      44.010 -20.541   2.407  1.00  0.00    -0.061 A 
HETATM   25  C   UNL     1      44.209 -21.867   1.738  1.00  0.00     0.048 C 
HETATM   26  C   UNL     1      43.313 -19.526   1.766  1.00  0.00     0.009 A 
HETATM   27  C   UNL     1      43.118 -18.301   2.407  1.00  0.00     0.030 A 
ENDBRANCH  17  20
ENDBRANCH  15  16
ENDBRANCH   1  15
TORSDOF 3
ENDMDL
MODEL 6
REMARK VINA RESULT:      -8.0      3.105      4.416
REMARK  3 active torsions:
REMARK  status: ('A' for Active; 'I' for Inactive)
REMARK    1  A    between atoms: C_6  and  N_7 
REMARK       I    between atoms: N_7  and  C_8 
REMARK    2  A    between atoms: C_8  and  C_9 
REMARK    3  A    between atoms: C_9  and  C_10 
ROOT
HETATM    1  C   UNL     1      40.697 -14.785   5.380  1.00  0.00     0.286 C 
HETATM    2  N   UNL     1      40.109 -13.983   6.553  1.00  0.00    -0.056 N 
HETATM    3  H   UNL     1      39.238 -14.455   6.833  1.00  0.00     0.278 HD
HETATM    4  H   UNL     1      40.714 -14.111   7.393  1.00  0.00     0.278 HD
HETATM    5  C   UNL     1      39.813 -12.534   6.337  1.00  0.00     0.209 C 
HETATM    6  C   UNL     1      39.154 -12.343   4.954  1.00  0.00     0.115 C 
HETATM    7  N   UNL     1      39.962 -12.930   3.892  1.00  0.00    -0.353 N 
HETATM    8  C   UNL     1      40.659 -14.101   4.009  1.00  0.00     0.249 C 
HETATM    9  O   UNL     1      41.215 -14.583   3.027  1.00  0.00    -0.271 OA
HETATM   10  C   UNL     1      41.087 -11.705   6.508  1.00  0.00     0.035 C 
HETATM   11  C   UNL     1      40.808 -10.228   6.230  1.00  0.00     0.002 C 
HETATM   12  C   UNL     1      40.162 -10.014   4.863  1.00  0.00     0.002 C 
HETATM   13  C   UNL     1      38.898 -10.858   4.688  1.00  0.00     0.027 C 
HETATM   14  H   UNL     1      39.886 -12.576   2.940  1.00  0.00     0.163 HD
ENDROOT
BRANCH   1  15
HETATM   15  C   UNL     1      42.117 -15.270   5.701  1.00  0.00     0.146 C 
BRANCH  15  16
HETATM   16  C   UNL     1      42.138 -16.744   5.391  1.00  0.00     0.224 C 
HETATM   17  N   UNL     1      43.163 -17.123   4.566  1.00  0.00    -0.327 N 
HETATM   18  H   UNL     1      43.927 -16.458   4.480  1.00  0.00     0.169 HD
HETATM   19  O   UNL     1      41.152 -17.379   5.758  1.00  0.00    -0.273 OA
BRANCH  17  20
HETATM   20  C   UNL     1      43.361 -18.292   3.784  1.00  0.00     0.040 A 
HETATM   21  C   UNL     1      42.841 -18.602   2.515  1.00  0.00    -0.035 A 
HETATM   22  C   UNL     1      43.232 -19.816   1.897  1.00  0.00     0.015 A 
HETATM   23  C   UNL     1      41.877 -17.767   1.724  1.00  0.00     0.050 C 
HETATM   24  C   UNL     1      44.103 -20.723   2.510  1.00  0.00    -0.061 A 
HETATM   25  C   UNL     1      44.510 -21.989   1.819  1.00  0.00     0.048 C 
HETATM   26  C   UNL     1      44.613 -20.409   3.762  1.00  0.00     0.009 A 
HETATM   27  C   UNL     1      44.240 -19.218   4.388  1.00  0.00     0.030 A 
ENDBRANCH  17  20
ENDBRANCH  15  16
ENDBRANCH   1  15
TORSDOF 3
ENDMDL
MODEL 7
REMARK VINA RESULT:      -7.9      7.886      9.412
REMARK  3 active torsions:
REMARK  status: ('A' for Active; 'I' for Inactive)
REMARK    1  A    between atoms: C_6  and  N_7 
REMARK       I    between atoms: N_7  and  C_8 
REMARK    2  A    between atoms: C_8  and  C_9 
REMARK    3  A    between atoms: C_9  and  C_10 
ROOT
HETATM    1  C   UNL     1      43.551 -11.915   9.640  1.00  0.00     0.286 C 
HETATM    2  N   UNL     1      43.519 -12.312  11.125  1.00  0.00    -0.056 N 
HETATM    3  H   UNL     1      43.039 -13.220  11.183  1.00  0.00     0.278 HD
HETATM    4  H   UNL     1      44.486 -12.549  11.437  1.00  0.00     0.278 HD
HETATM    5  C   UNL     1      42.872 -11.373  12.091  1.00  0.00     0.209 C 
HETATM    6  C   UNL     1      41.563 -10.827  11.482  1.00  0.00     0.115 C 
HETATM    7  N   UNL     1      41.793 -10.234  10.170  1.00  0.00    -0.353 N 
HETATM    8  C   UNL     1      42.664 -10.730   9.240  1.00  0.00     0.249 C 
HETATM    9  O   UNL     1      42.706 -10.239   8.116  1.00  0.00    -0.271 OA
HETATM   10  C   UNL     1      43.851 -10.267  12.487  1.00  0.00     0.035 C 
HETATM   11  C   UNL     1      43.180  -9.267  13.429  1.00  0.00     0.002 C 
HETATM   12  C   UNL     1      41.885  -8.708  12.842  1.00  0.00     0.002 C 
HETATM   13  C   UNL     1      40.916  -9.816  12.431  1.00  0.00     0.027 C 
HETATM   14  H   UNL     1      41.160  -9.518   9.817  1.00  0.00     0.163 HD
ENDROOT
BRANCH   1  15
HETATM   15  C   UNL     1      44.991 -11.696   9.159  1.00  0.00     0.146 C 
BRANCH  15  16
HETATM   16  C   UNL     1      45.182 -12.608   7.975  1.00  0.00     0.224 C 
HETATM   17  N   UNL     1      44.030 -13.216   7.552  1.00  0.00    -0.327 N 
HETATM   18  H   UNL     1      43.165 -12.796   7.881  1.00  0.00     0.169 HD
HETATM   19  O   UNL     1      46.347 -12.831   7.658  1.00  0.00    -0.273 OA
BRANCH  17  20
HETATM   20  C   UNL     1      43.811 -14.352   6.729  1.00  0.00     0.040 A 
HETATM   21  C   UNL     1      43.323 -14.404   5.410  1.00  0.00    -0.035 A 
HETATM   22  C   UNL     1      43.246 -15.662   4.762  1.00  0.00     0.015 A 
HETATM   23  C   UNL     1      42.849 -13.237   4.594  1.00  0.00     0.050 C 
HETATM   24  C   UNL     1      43.622 -16.854   5.390  1.00  0.00    -0.061 A 
HETATM   25  C   UNL     1      43.546 -18.164   4.668  1.00  0.00     0.048 C 
HETATM   26  C   UNL     1      44.104 -16.793   6.691  1.00  0.00     0.009 A 
HETATM   27  C   UNL     1      44.187 -15.564   7.347  1.00  0.00     0.030 A 
ENDBRANCH  17  20
ENDBRANCH  15  16
ENDBRANCH   1  15
TORSDOF 3
ENDMDL
MODEL 8
REMARK VINA RESULT:      -7.9      1.742      2.887
REMARK  3 active torsions:
REMARK  status: ('A' for Active; 'I' for Inactive)
REMARK    1  A    between atoms: C_6  and  N_7 
REMARK       I    between atoms: N_7  and  C_8 
REMARK    2  A    between atoms: C_8  and  C_9 
REMARK    3  A    between atoms: C_9  and  C_10 
ROOT
HETATM    1  C   UNL     1      41.282 -15.544   1.526  1.00  0.00     0.286 C 
HETATM    2  N   UNL     1      40.447 -14.318   1.120  1.00  0.00    -0.056 N 
HETATM    3  H   UNL     1      39.458 -14.579   1.232  1.00  0.00     0.278 HD
HETATM    4  H   UNL     1      40.564 -13.571   1.838  1.00  0.00     0.278 HD
HETATM    5  C   UNL     1      40.636 -13.760  -0.253  1.00  0.00     0.209 C 
HETATM    6  C   UNL     1      40.728 -14.917  -1.272  1.00  0.00     0.115 C 
HETATM    7  N   UNL     1      41.756 -15.879  -0.895  1.00  0.00    -0.353 N 
HETATM    8  C   UNL     1      42.023 -16.260   0.391  1.00  0.00     0.249 C 
HETATM    9  O   UNL     1      42.823 -17.165   0.608  1.00  0.00    -0.271 OA
HETATM   10  C   UNL     1      41.859 -12.842  -0.285  1.00  0.00     0.035 C 
HETATM   11  C   UNL     1      42.097 -12.313  -1.699  1.00  0.00     0.002 C 
HETATM   12  C   UNL     1      42.198 -13.442  -2.724  1.00  0.00     0.002 C 
HETATM   13  C   UNL     1      40.983 -14.368  -2.677  1.00  0.00     0.027 C 
HETATM   14  H   UNL     1      42.198 -16.457  -1.607  1.00  0.00     0.163 HD
ENDROOT
BRANCH   1  15
HETATM   15  C   UNL     1      42.249 -15.199   2.667  1.00  0.00     0.146 C 
BRANCH  15  16
HETATM   16  C   UNL     1      42.278 -16.404   3.571  1.00  0.00     0.224 C 
HETATM   17  N   UNL     1      43.524 -16.948   3.728  1.00  0.00    -0.327 N 
HETATM   18  H   UNL     1      44.302 -16.351   3.462  1.00  0.00     0.169 HD
HETATM   19  O   UNL     1      41.182 -16.848   3.901  1.00  0.00    -0.273 OA
BRANCH  17  20
HETATM   20  C   UNL     1      43.945 -18.222   4.196  1.00  0.00     0.040 A 
HETATM   21  C   UNL     1      44.162 -18.648   5.519  1.00  0.00    -0.035 A 
HETATM   22  C   UNL     1      44.523 -19.999   5.748  1.00  0.00     0.015 A 
HETATM   23  C   UNL     1      44.059 -17.797   6.751  1.00  0.00     0.050 C 
HETATM   24  C   UNL     1      44.689 -20.918   4.708  1.00  0.00    -0.061 A 
HETATM   25  C   UNL     1      45.054 -22.344   4.990  1.00  0.00     0.048 C 
HETATM   26  C   UNL     1      44.472 -20.490   3.405  1.00  0.00     0.009 A 
HETATM   27  C   UNL     1      44.114 -19.164   3.158  1.00  0.00     0.030 A 
ENDBRANCH  17  20
ENDBRANCH  15  16
ENDBRANCH   1  15
TORSDOF 3
ENDMDL
MODEL 9
REMARK VINA RESULT:      -7.9      1.598      2.259
REMARK  3 active torsions:
REMARK  status: ('A' for Active; 'I' for Inactive)
REMARK    1  A    between atoms: C_6  and  N_7 
REMARK       I    between atoms: N_7  and  C_8 
REMARK    2  A    between atoms: C_8  and  C_9 
REMARK    3  A    between atoms: C_9  and  C_10 
ROOT
HETATM    1  C   UNL     1      40.669 -15.238   3.217  1.00  0.00     0.286 C 
HETATM    2  N   UNL     1      39.909 -13.941   3.541  1.00  0.00    -0.056 N 
HETATM    3  H   UNL     1      39.201 -14.177   4.249  1.00  0.00     0.278 HD
HETATM    4  H   UNL     1      40.541 -13.295   4.062  1.00  0.00     0.278 HD
HETATM    5  C   UNL     1      39.234 -13.222   2.418  1.00  0.00     0.209 C 
HETATM    6  C   UNL     1      38.524 -14.243   1.504  1.00  0.00     0.115 C 
HETATM    7  N   UNL     1      39.441 -15.282   1.052  1.00  0.00    -0.353 N 
HETATM    8  C   UNL     1      40.426 -15.832   1.825  1.00  0.00     0.249 C 
HETATM    9  O   UNL     1      41.074 -16.786   1.404  1.00  0.00    -0.271 OA
HETATM   10  C   UNL     1      40.244 -12.352   1.667  1.00  0.00     0.035 C 
HETATM   11  C   UNL     1      39.577 -11.658   0.480  1.00  0.00     0.002 C 
HETATM   12  C   UNL     1      38.874 -12.651  -0.443  1.00  0.00     0.002 C 
HETATM   13  C   UNL     1      37.878 -13.530   0.313  1.00  0.00     0.027 C 
HETATM   14  H   UNL     1      39.257 -15.781   0.183  1.00  0.00     0.163 HD
ENDROOT
BRANCH   1  15
HETATM   15  C   UNL     1      42.172 -15.076   3.479  1.00  0.00     0.146 C 
BRANCH  15  16
HETATM   16  C   UNL     1      42.625 -16.356   4.133  1.00  0.00     0.224 C 
HETATM   17  N   UNL     1      43.501 -17.086   3.376  1.00  0.00    -0.327 N 
HETATM   18  H   UNL     1      43.951 -16.583   2.616  1.00  0.00     0.169 HD
HETATM   19  O   UNL     1      42.027 -16.668   5.160  1.00  0.00    -0.273 OA
BRANCH  17  20
HETATM   20  C   UNL     1      43.904 -18.446   3.449  1.00  0.00     0.040 A 
HETATM   21  C   UNL     1      44.526 -19.126   4.511  1.00  0.00    -0.035 A 
HETATM   22  C   UNL     1      44.780 -20.514   4.375  1.00  0.00     0.015 A 
HETATM   23  C   UNL     1      44.976 -18.520   5.808  1.00  0.00     0.050 C 
HETATM   24  C   UNL     1      44.449 -21.227   3.220  1.00  0.00    -0.061 A 
HETATM   25  C   UNL     1      44.715 -22.699   3.119  1.00  0.00     0.048 C 
HETATM   26  C   UNL     1      43.834 -20.549   2.176  1.00  0.00     0.009 A 
HETATM   27  C   UNL     1      43.575 -19.183   2.290  1.00  0.00     0.030 A 
ENDBRANCH  17  20
ENDBRANCH  15  16
ENDBRANCH   1  15
TORSDOF 3
ENDMDL
MODEL 10
REMARK VINA RESULT:      -7.8      2.008      3.191
REMARK  3 active torsions:
REMARK  status: ('A' for Active; 'I' for Inactive)
REMARK    1  A    between atoms: C_6  and  N_7 
REMARK       I    between atoms: N_7  and  C_8 
REMARK    2  A    between atoms: C_8  and  C_9 
REMARK    3  A    between atoms: C_9  and  C_10 
ROOT
HETATM    1  C   UNL     1      41.630 -14.736   0.375  1.00  0.00     0.286 C 
HETATM    2  N   UNL     1      40.996 -15.560  -0.757  1.00  0.00    -0.056 N 
HETATM    3  H   UNL     1      41.691 -16.262  -1.044  1.00  0.00     0.278 HD
HETATM    4  H   UNL     1      40.230 -16.150  -0.364  1.00  0.00     0.278 HD
HETATM    5  C   UNL     1      40.525 -14.836  -1.977  1.00  0.00     0.209 C 
HETATM    6  C   UNL     1      41.570 -13.774  -2.381  1.00  0.00     0.115 C 
HETATM    7  N   UNL     1      41.884 -12.885  -1.269  1.00  0.00    -0.353 N 
HETATM    8  C   UNL     1      41.987 -13.285   0.034  1.00  0.00     0.249 C 
HETATM    9  O   UNL     1      42.374 -12.494   0.889  1.00  0.00    -0.271 OA
HETATM   10  C   UNL     1      39.137 -14.242  -1.734  1.00  0.00     0.035 C 
HETATM   11  C   UNL     1      38.671 -13.448  -2.954  1.00  0.00     0.002 C 
HETATM   12  C   UNL     1      39.687 -12.385  -3.368  1.00  0.00     0.002 C 
HETATM   13  C   UNL     1      41.078 -12.979  -3.593  1.00  0.00     0.027 C 
HETATM   14  H   UNL     1      42.231 -11.945  -1.451  1.00  0.00     0.163 HD
ENDROOT
BRANCH   1  15
HETATM   15  C   UNL     1      40.774 -14.796   1.647  1.00  0.00     0.146 C 
BRANCH  15  16
HETATM   16  C   UNL     1      40.956 -16.181   2.212  1.00  0.00     0.224 C 
HETATM   17  N   UNL     1      42.245 -16.466   2.577  1.00  0.00    -0.327 N 
HETATM   18  H   UNL     1      42.858 -15.664   2.688  1.00  0.00     0.169 HD
HETATM   19  O   UNL     1      39.988 -16.929   2.108  1.00  0.00    -0.273 OA
BRANCH  17  20
HETATM   20  C   UNL     1      42.903 -17.699   2.828  1.00  0.00     0.040 A 
HETATM   21  C   UNL     1      43.489 -18.159   4.021  1.00  0.00    -0.035 A 
HETATM   22  C   UNL     1      44.040 -19.465   4.050  1.00  0.00     0.015 A 
HETATM   23  C   UNL     1      43.610 -17.388   5.303  1.00  0.00     0.050 C 
HETATM   24  C   UNL     1      44.035 -20.306   2.934  1.00  0.00    -0.061 A 
HETATM   25  C   UNL     1      44.610 -21.688   3.006  1.00  0.00     0.048 C 
HETATM   26  C   UNL     1      43.453 -19.845   1.760  1.00  0.00     0.009 A 
HETATM   27  C   UNL     1      42.906 -18.562   1.710  1.00  0.00     0.030 A 
ENDBRANCH  17  20
ENDBRANCH  15  16
ENDBRANCH   1  15
TORSDOF 3
ENDMDL
