MODEL 1
REMARK VINA RESULT:      -8.3      0.000      0.000
REMARK  6 active torsions:
REMARK  status: ('A' for Active; 'I' for Inactive)
REMARK    1  A    between atoms: C_2  and  N_3 
REMARK    2  A    between atoms: C_2  and  C_21 
REMARK       I    between atoms: N_3  and  C_4 
REMARK       I    between atoms: C_4  and  N_5 
REMARK    3  A    between atoms: N_5  and  C_6 
REMARK    4  A    between atoms: C_9  and  O_10 
REMARK    5  A    between atoms: O_10  and  C_11 
REMARK    6  A    between atoms: C_11  and  C_12 
ROOT
HETATM    1  C   UNL     1      43.865 -15.087   6.888  1.00  0.00     0.036 A 
HETATM    2  C   UNL     1      44.168 -16.447   6.961  1.00  0.00     0.032 A 
HETATM    3  C   UNL     1      43.749 -17.329   5.955  1.00  0.00     0.039 A 
HETATM    4  C   UNL     1      43.034 -16.855   4.858  1.00  0.00     0.068 A 
HETATM    5  C   UNL     1      42.694 -15.504   4.800  1.00  0.00     0.039 A 
HETATM    6  C   UNL     1      43.108 -14.625   5.806  1.00  0.00     0.032 A 
ENDROOT
BRANCH   1   7
HETATM    7  N   UNL     1      44.299 -14.128   7.827  1.00  0.00    -0.309 N 
HETATM    8  C   UNL     1      45.307 -13.214   7.686  1.00  0.00     0.321 C 
HETATM    9  N   UNL     1      45.419 -12.295   8.681  1.00  0.00    -0.332 N 
HETATM   10  O   UNL     1      46.095 -13.139   6.749  1.00  0.00    -0.247 OA
HETATM   11  H   UNL     1      46.167 -11.626   8.526  1.00  0.00     0.165 HD
HETATM   12  H   UNL     1      43.805 -14.127   8.703  1.00  0.00     0.170 HD
BRANCH   9  13
HETATM   13  C   UNL     1      44.631 -12.085   9.892  1.00  0.00     0.155 C 
HETATM   14  C   UNL     1      45.458 -11.357  10.947  1.00  0.00     0.041 C 
BRANCH  13  15
HETATM   15  C   UNL     1      43.396 -11.308   9.529  1.00  0.00     0.169 A 
HETATM   16  N   UNL     1      42.494 -10.903  10.435  1.00  0.00    -0.156 NA
HETATM   17  N   UNL     1      41.578 -10.305   9.654  1.00  0.00    -0.270 N 
HETATM   18  H   UNL     1      40.751  -9.899  10.077  1.00  0.00     0.190 HD
HETATM   19  C   UNL     1      41.939 -10.354   8.346  1.00  0.00     0.227 A 
HETATM   20  N   UNL     1      43.086 -10.977   8.228  1.00  0.00    -0.223 NA
ENDBRANCH  13  15
ENDBRANCH   9  13
ENDBRANCH   1   7
BRANCH   4  21
HETATM   21  O   UNL     1      42.611 -17.607   3.798  1.00  0.00    -0.351 OA
BRANCH  21  22
HETATM   22  C   UNL     1      42.885 -19.010   3.869  1.00  0.00     0.180 C 
BRANCH  22  23
HETATM   23  C   UNL     1      44.197 -19.300   3.116  1.00  0.00     0.010 C 
HETATM   24  C   UNL     1      45.152 -20.195   3.927  1.00  0.00     0.007 C 
HETATM   25  C   UNL     1      44.671 -21.643   4.022  1.00  0.00     0.000 C 
HETATM   26  C   UNL     1      44.396 -22.237   2.644  1.00  0.00     0.000 C 
HETATM   27  C   UNL     1      43.444 -21.372   1.824  1.00  0.00     0.000 C 
HETATM   28  C   UNL     1      43.925 -19.923   1.738  1.00  0.00     0.007 C 
ENDBRANCH  22  23
ENDBRANCH  21  22
ENDBRANCH   4  21
TORSDOF 6
ENDMDL
MODEL 2
REMARK VINA RESULT:      -8.0      6.149      8.365
REMARK  6 active torsions:
REMARK  status: ('A' for Active; 'I' for Inactive)
REMARK    1  A    between atoms: C_2  and  N_3 
REMARK    2  A    between atoms: C_2  and  C_21 
REMARK       I    between atoms: N_3  and  C_4 
REMARK       I    between atoms: C_4  and  N_5 
REMARK    3  A    between atoms: N_5  and  C_6 
REMARK    4  A    between atoms: C_9  and  O_10 
REMARK    5  A    between atoms: O_10  and  C_11 
REMARK    6  A    between atoms: C_11  and  C_12 
ROOT
HETATM    1  C   UNL     1      40.930 -15.754   1.440  1.00  0.00     0.036 A 
HETATM    2  C   UNL     1      42.094 -15.142   1.907  1.00  0.00     0.032 A 
HETATM    3  C   UNL     1      42.799 -15.679   2.994  1.00  0.00     0.039 A 
HETATM    4  C   UNL     1      42.353 -16.842   3.615  1.00  0.00     0.068 A 
HETATM    5  C   UNL     1      41.168 -17.435   3.179  1.00  0.00     0.039 A 
HETATM    6  C   UNL     1      40.463 -16.897   2.098  1.00  0.00     0.032 A 
ENDROOT
BRANCH   1   7
HETATM    7  N   UNL     1      40.198 -15.310   0.319  1.00  0.00    -0.309 N 
HETATM    8  C   UNL     1      39.259 -14.317   0.271  1.00  0.00     0.321 C 
HETATM    9  N   UNL     1      38.817 -13.977  -0.967  1.00  0.00    -0.332 N 
HETATM   10  O   UNL     1      38.800 -13.703   1.229  1.00  0.00    -0.247 OA
HETATM   11  H   UNL     1      38.136 -13.223  -0.957  1.00  0.00     0.165 HD
HETATM   12  H   UNL     1      40.395 -15.791  -0.542  1.00  0.00     0.170 HD
BRANCH   9  13
HETATM   13  C   UNL     1      39.183 -14.473  -2.291  1.00  0.00     0.155 C 
HETATM   14  C   UNL     1      38.225 -13.931  -3.348  1.00  0.00     0.041 C 
BRANCH  13  15
HETATM   15  C   UNL     1      40.602 -14.069  -2.577  1.00  0.00     0.169 A 
HETATM   16  N   UNL     1      41.376 -14.699  -3.474  1.00  0.00    -0.156 NA
HETATM   17  N   UNL     1      42.533 -14.027  -3.349  1.00  0.00    -0.270 N 
HETATM   18  H   UNL     1      43.330 -14.297  -3.916  1.00  0.00     0.190 HD
HETATM   19  C   UNL     1      42.433 -13.039  -2.422  1.00  0.00     0.227 A 
HETATM   20  N   UNL     1      41.224 -13.033  -1.915  1.00  0.00    -0.223 NA
ENDBRANCH  13  15
ENDBRANCH   9  13
ENDBRANCH   1   7
BRANCH   4  21
HETATM   21  O   UNL     1      42.975 -17.481   4.651  1.00  0.00    -0.351 OA
BRANCH  21  22
HETATM   22  C   UNL     1      43.146 -18.894   4.510  1.00  0.00     0.180 C 
BRANCH  22  23
HETATM   23  C   UNL     1      44.455 -19.164   3.746  1.00  0.00     0.010 C 
HETATM   24  C   UNL     1      45.226 -20.371   4.312  1.00  0.00     0.007 C 
HETATM   25  C   UNL     1      44.552 -21.707   3.999  1.00  0.00     0.000 C 
HETATM   26  C   UNL     1      44.295 -21.870   2.504  1.00  0.00     0.000 C 
HETATM   27  C   UNL     1      43.524 -20.690   1.921  1.00  0.00     0.000 C 
HETATM   28  C   UNL     1      44.198 -19.356   2.244  1.00  0.00     0.007 C 
ENDBRANCH  22  23
ENDBRANCH  21  22
ENDBRANCH   4  21
TORSDOF 6
ENDMDL
MODEL 3
REMARK VINA RESULT:      -7.7      2.738      3.253
REMARK  6 active torsions:
REMARK  status: ('A' for Active; 'I' for Inactive)
REMARK    1  A    between atoms: C_2  and  N_3 
REMARK    2  A    between atoms: C_2  and  C_21 
REMARK       I    between atoms: N_3  and  C_4 
REMARK       I    between atoms: C_4  and  N_5 
REMARK    3  A    between atoms: N_5  and  C_6 
REMARK    4  A    between atoms: C_9  and  O_10 
REMARK    5  A    between atoms: O_10  and  C_11 
REMARK    6  A    between atoms: C_11  and  C_12 
ROOT
HETATM    1  C   UNL     1      41.182 -14.321   5.630  1.00  0.00     0.036 A 
HETATM    2  C   UNL     1      40.720 -15.510   6.196  1.00  0.00     0.032 A 
HETATM    3  C   UNL     1      40.964 -16.742   5.572  1.00  0.00     0.039 A 
HETATM    4  C   UNL     1      41.685 -16.797   4.382  1.00  0.00     0.068 A 
HETATM    5  C   UNL     1      42.114 -15.609   3.791  1.00  0.00     0.039 A 
HETATM    6  C   UNL     1      41.867 -14.380   4.411  1.00  0.00     0.032 A 
ENDROOT
BRANCH   1   7
HETATM    7  N   UNL     1      41.030 -13.050   6.224  1.00  0.00    -0.309 N 
HETATM    8  C   UNL     1      39.881 -12.320   6.356  1.00  0.00     0.321 C 
HETATM    9  N   UNL     1      39.975 -11.195   7.111  1.00  0.00    -0.332 N 
HETATM   10  O   UNL     1      38.785 -12.594   5.877  1.00  0.00    -0.247 OA
HETATM   11  H   UNL     1      39.096 -10.695   7.198  1.00  0.00     0.165 HD
HETATM   12  H   UNL     1      41.872 -12.640   6.586  1.00  0.00     0.170 HD
BRANCH   9  13
HETATM   13  C   UNL     1      41.100 -10.617   7.842  1.00  0.00     0.155 C 
HETATM   14  C   UNL     1      41.242  -9.133   7.517  1.00  0.00     0.041 C 
BRANCH  13  15
HETATM   15  C   UNL     1      40.878 -10.839   9.312  1.00  0.00     0.169 A 
HETATM   16  N   UNL     1      39.688 -11.176   9.831  1.00  0.00    -0.156 NA
HETATM   17  N   UNL     1      39.969 -11.218  11.144  1.00  0.00    -0.270 N 
HETATM   18  H   UNL     1      39.234 -11.447  11.805  1.00  0.00     0.190 HD
HETATM   19  C   UNL     1      41.275 -10.926  11.379  1.00  0.00     0.227 A 
HETATM   20  N   UNL     1      41.883 -10.684  10.242  1.00  0.00    -0.223 NA
ENDBRANCH  13  15
ENDBRANCH   9  13
ENDBRANCH   1   7
BRANCH   4  21
HETATM   21  O   UNL     1      42.020 -17.937   3.707  1.00  0.00    -0.351 OA
BRANCH  21  22
HETATM   22  C   UNL     1      42.830 -18.877   4.418  1.00  0.00     0.180 C 
BRANCH  22  23
HETATM   23  C   UNL     1      44.192 -18.997   3.710  1.00  0.00     0.010 C 
HETATM   24  C   UNL     1      45.076 -20.099   4.324  1.00  0.00     0.007 C 
HETATM   25  C   UNL     1      44.578 -21.508   4.004  1.00  0.00     0.000 C 
HETATM   26  C   UNL     1      44.403 -21.716   2.502  1.00  0.00     0.000 C 
HETATM   27  C   UNL     1      43.523 -20.641   1.872  1.00  0.00     0.000 C 
HETATM   28  C   UNL     1      44.021 -19.233   2.202  1.00  0.00     0.007 C 
ENDBRANCH  22  23
ENDBRANCH  21  22
ENDBRANCH   4  21
TORSDOF 6
ENDMDL
MODEL 4
REMARK VINA RESULT:      -7.6      6.469      8.674
REMARK  6 active torsions:
REMARK  status: ('A' for Active; 'I' for Inactive)
REMARK    1  A    between atoms: C_2  and  N_3 
REMARK    2  A    between atoms: C_2  and  C_21 
REMARK       I    between atoms: N_3  and  C_4 
REMARK       I    between atoms: C_4  and  N_5 
REMARK    3  A    between atoms: N_5  and  C_6 
REMARK    4  A    between atoms: C_9  and  O_10 
REMARK    5  A    between atoms: O_10  and  C_11 
REMARK    6  A    between atoms: C_11  and  C_12 
ROOT
HETATM    1  C   UNL     1      41.313 -15.155   1.080  1.00  0.00     0.036 A 
HETATM    2  C   UNL     1      42.376 -14.680   1.849  1.00  0.00     0.032 A 
HETATM    3  C   UNL     1      42.791 -15.366   2.999  1.00  0.00     0.039 A 
HETATM    4  C   UNL     1      42.154 -16.543   3.384  1.00  0.00     0.068 A 
HETATM    5  C   UNL     1      41.066 -17.001   2.642  1.00  0.00     0.039 A 
HETATM    6  C   UNL     1      40.649 -16.314   1.498  1.00  0.00     0.032 A 
ENDROOT
BRANCH   1   7
HETATM    7  N   UNL     1      40.874 -14.557  -0.119  1.00  0.00    -0.309 N 
HETATM    8  C   UNL     1      40.040 -13.483  -0.263  1.00  0.00     0.321 C 
HETATM    9  N   UNL     1      39.901 -13.003  -1.526  1.00  0.00    -0.332 N 
HETATM   10  O   UNL     1      39.429 -12.911   0.634  1.00  0.00    -0.247 OA
HETATM   11  H   UNL     1      39.289 -12.195  -1.583  1.00  0.00     0.165 HD
HETATM   12  H   UNL     1      41.218 -14.980  -0.963  1.00  0.00     0.170 HD
BRANCH   9  13
HETATM   13  C   UNL     1      40.508 -13.419  -2.787  1.00  0.00     0.155 C 
HETATM   14  C   UNL     1      42.027 -13.478  -2.654  1.00  0.00     0.041 C 
BRANCH  13  15
HETATM   15  C   UNL     1      39.938 -14.754  -3.175  1.00  0.00     0.169 A 
HETATM   16  N   UNL     1      40.555 -15.917  -2.916  1.00  0.00    -0.156 NA
HETATM   17  N   UNL     1      39.708 -16.800  -3.473  1.00  0.00    -0.270 N 
HETATM   18  H   UNL     1      39.926 -17.790  -3.438  1.00  0.00     0.190 HD
HETATM   19  C   UNL     1      38.637 -16.175  -4.026  1.00  0.00     0.227 A 
HETATM   20  N   UNL     1      38.746 -14.880  -3.854  1.00  0.00    -0.223 NA
ENDBRANCH  13  15
ENDBRANCH   9  13
ENDBRANCH   1   7
BRANCH   4  21
HETATM   21  O   UNL     1      42.495 -17.320   4.456  1.00  0.00    -0.351 OA
BRANCH  21  22
HETATM   22  C   UNL     1      42.726 -18.705   4.184  1.00  0.00     0.180 C 
BRANCH  22  23
HETATM   23  C   UNL     1      44.112 -18.862   3.533  1.00  0.00     0.010 C 
HETATM   24  C   UNL     1      45.012 -19.849   4.301  1.00  0.00     0.007 C 
HETATM   25  C   UNL     1      44.569 -21.303   4.141  1.00  0.00     0.000 C 
HETATM   26  C   UNL     1      44.447 -21.697   2.672  1.00  0.00     0.000 C 
HETATM   27  C   UNL     1      43.553 -20.738   1.892  1.00  0.00     0.000 C 
HETATM   28  C   UNL     1      43.995 -19.284   2.061  1.00  0.00     0.007 C 
ENDBRANCH  22  23
ENDBRANCH  21  22
ENDBRANCH   4  21
TORSDOF 6
ENDMDL
MODEL 5
REMARK VINA RESULT:      -7.6      6.290      9.162
REMARK  6 active torsions:
REMARK  status: ('A' for Active; 'I' for Inactive)
REMARK    1  A    between atoms: C_2  and  N_3 
REMARK    2  A    between atoms: C_2  and  C_21 
REMARK       I    between atoms: N_3  and  C_4 
REMARK       I    between atoms: C_4  and  N_5 
REMARK    3  A    between atoms: N_5  and  C_6 
REMARK    4  A    between atoms: C_9  and  O_10 
REMARK    5  A    between atoms: O_10  and  C_11 
REMARK    6  A    between atoms: C_11  and  C_12 
ROOT
HETATM    1  C   UNL     1      42.399 -15.800   1.874  1.00  0.00     0.036 A 
HETATM    2  C   UNL     1      42.418 -14.434   2.156  1.00  0.00     0.032 A 
HETATM    3  C   UNL     1      41.847 -13.512   1.266  1.00  0.00     0.039 A 
HETATM    4  C   UNL     1      41.240 -13.951   0.093  1.00  0.00     0.068 A 
HETATM    5  C   UNL     1      41.255 -15.311  -0.213  1.00  0.00     0.039 A 
HETATM    6  C   UNL     1      41.827 -16.230   0.672  1.00  0.00     0.032 A 
ENDROOT
BRANCH   1   7
HETATM    7  N   UNL     1      42.898 -16.794   2.743  1.00  0.00    -0.309 N 
HETATM    8  C   UNL     1      42.201 -17.530   3.661  1.00  0.00     0.321 C 
HETATM    9  N   UNL     1      42.889 -18.537   4.260  1.00  0.00    -0.332 N 
HETATM   10  O   UNL     1      41.025 -17.379   3.974  1.00  0.00    -0.247 OA
HETATM   11  H   UNL     1      42.328 -19.069   4.919  1.00  0.00     0.165 HD
HETATM   12  H   UNL     1      43.885 -16.971   2.674  1.00  0.00     0.170 HD
BRANCH   9  13
HETATM   13  C   UNL     1      44.262 -19.003   4.087  1.00  0.00     0.155 C 
HETATM   14  C   UNL     1      44.955 -19.136   5.440  1.00  0.00     0.041 C 
BRANCH  13  15
HETATM   15  C   UNL     1      44.233 -20.314   3.353  1.00  0.00     0.169 A 
HETATM   16  N   UNL     1      44.694 -21.458   3.880  1.00  0.00    -0.156 NA
HETATM   17  N   UNL     1      44.501 -22.318   2.865  1.00  0.00    -0.270 N 
HETATM   18  H   UNL     1      44.772 -23.289   2.975  1.00  0.00     0.190 HD
HETATM   19  C   UNL     1      43.940 -21.699   1.794  1.00  0.00     0.227 A 
HETATM   20  N   UNL     1      43.753 -20.431   2.067  1.00  0.00    -0.223 NA
ENDBRANCH  13  15
ENDBRANCH   9  13
ENDBRANCH   1   7
BRANCH   4  21
HETATM   21  O   UNL     1      40.616 -13.155  -0.827  1.00  0.00    -0.351 OA
BRANCH  21  22
HETATM   22  C   UNL     1      39.359 -13.627  -1.320  1.00  0.00     0.180 C 
BRANCH  22  23
HETATM   23  C   UNL     1      39.312 -13.418  -2.845  1.00  0.00     0.010 C 
HETATM   24  C   UNL     1      40.346 -14.286  -3.587  1.00  0.00     0.007 C 
HETATM   25  C   UNL     1      39.981 -15.770  -3.593  1.00  0.00     0.000 C 
HETATM   26  C   UNL     1      38.575 -16.001  -4.140  1.00  0.00     0.000 C 
HETATM   27  C   UNL     1      37.530 -15.158  -3.414  1.00  0.00     0.000 C 
HETATM   28  C   UNL     1      37.905 -13.676  -3.403  1.00  0.00     0.007 C 
ENDBRANCH  22  23
ENDBRANCH  21  22
ENDBRANCH   4  21
TORSDOF 6
ENDMDL
MODEL 6
REMARK VINA RESULT:      -7.6      6.342      8.920
REMARK  6 active torsions:
REMARK  status: ('A' for Active; 'I' for Inactive)
REMARK    1  A    between atoms: C_2  and  N_3 
REMARK    2  A    between atoms: C_2  and  C_21 
REMARK       I    between atoms: N_3  and  C_4 
REMARK       I    between atoms: C_4  and  N_5 
REMARK    3  A    between atoms: N_5  and  C_6 
REMARK    4  A    between atoms: C_9  and  O_10 
REMARK    5  A    between atoms: O_10  and  C_11 
REMARK    6  A    between atoms: C_11  and  C_12 
ROOT
HETATM    1  C   UNL     1      41.564 -16.553   0.844  1.00  0.00     0.036 A 
HETATM    2  C   UNL     1      42.953 -16.557   0.708  1.00  0.00     0.032 A 
HETATM    3  C   UNL     1      43.753 -17.336   1.556  1.00  0.00     0.039 A 
HETATM    4  C   UNL     1      43.169 -18.130   2.540  1.00  0.00     0.068 A 
HETATM    5  C   UNL     1      41.785 -18.099   2.706  1.00  0.00     0.039 A 
HETATM    6  C   UNL     1      40.987 -17.319   1.864  1.00  0.00     0.032 A 
ENDROOT
BRANCH   1   7
HETATM    7  N   UNL     1      40.688 -15.844  -0.004  1.00  0.00    -0.309 N 
HETATM    8  C   UNL     1      39.957 -14.727   0.292  1.00  0.00     0.321 C 
HETATM    9  N   UNL     1      39.313 -14.144  -0.753  1.00  0.00    -0.332 N 
HETATM   10  O   UNL     1      39.847 -14.200   1.394  1.00  0.00    -0.247 OA
HETATM   11  H   UNL     1      38.800 -13.308  -0.492  1.00  0.00     0.165 HD
HETATM   12  H   UNL     1      40.594 -16.215  -0.933  1.00  0.00     0.170 HD
BRANCH   9  13
HETATM   13  C   UNL     1      39.272 -14.487  -2.172  1.00  0.00     0.155 C 
HETATM   14  C   UNL     1      37.922 -14.111  -2.773  1.00  0.00     0.041 C 
BRANCH  13  15
HETATM   15  C   UNL     1      40.400 -13.777  -2.867  1.00  0.00     0.169 A 
HETATM   16  N   UNL     1      41.658 -14.244  -2.886  1.00  0.00    -0.156 NA
HETATM   17  N   UNL     1      42.293 -13.276  -3.569  1.00  0.00    -0.270 N 
HETATM   18  H   UNL     1      43.290 -13.356  -3.736  1.00  0.00     0.190 HD
HETATM   19  C   UNL     1      41.436 -12.290  -3.940  1.00  0.00     0.227 A 
HETATM   20  N   UNL     1      40.228 -12.575  -3.517  1.00  0.00    -0.223 NA
ENDBRANCH  13  15
ENDBRANCH   9  13
ENDBRANCH   1   7
BRANCH   4  21
HETATM   21  O   UNL     1      43.839 -18.961   3.394  1.00  0.00    -0.351 OA
BRANCH  21  22
HETATM   22  C   UNL     1      43.487 -18.864   4.777  1.00  0.00     0.180 C 
BRANCH  22  23
HETATM   23  C   UNL     1      44.233 -17.668   5.397  1.00  0.00     0.010 C 
HETATM   24  C   UNL     1      43.275 -16.544   5.835  1.00  0.00     0.007 C 
HETATM   25  C   UNL     1      42.454 -16.910   7.071  1.00  0.00     0.000 C 
HETATM   26  C   UNL     1      43.345 -17.355   8.227  1.00  0.00     0.000 C 
HETATM   27  C   UNL     1      44.297 -18.476   7.820  1.00  0.00     0.000 C 
HETATM   28  C   UNL     1      45.110 -18.108   6.579  1.00  0.00     0.007 C 
ENDBRANCH  22  23
ENDBRANCH  21  22
ENDBRANCH   4  21
TORSDOF 6
ENDMDL
MODEL 7
REMARK VINA RESULT:      -7.5      2.278      3.507
REMARK  6 active torsions:
REMARK  status: ('A' for Active; 'I' for Inactive)
REMARK    1  A    between atoms: C_2  and  N_3 
REMARK    2  A    between atoms: C_2  and  C_21 
REMARK       I    between atoms: N_3  and  C_4 
REMARK       I    between atoms: C_4  and  N_5 
REMARK    3  A    between atoms: N_5  and  C_6 
REMARK    4  A    between atoms: C_9  and  O_10 
REMARK    5  A    between atoms: O_10  and  C_11 
REMARK    6  A    between atoms: C_11  and  C_12 
ROOT
HETATM    1  C   UNL     1      43.940 -14.713   6.357  1.00  0.00     0.036 A 
HETATM    2  C   UNL     1      43.568 -14.147   5.136  1.00  0.00     0.032 A 
HETATM    3  C   UNL     1      43.190 -14.959   4.057  1.00  0.00     0.039 A 
HETATM    4  C   UNL     1      43.167 -16.345   4.194  1.00  0.00     0.068 A 
HETATM    5  C   UNL     1      43.576 -16.916   5.398  1.00  0.00     0.039 A 
HETATM    6  C   UNL     1      43.958 -16.107   6.473  1.00  0.00     0.032 A 
ENDROOT
BRANCH   1   7
HETATM    7  N   UNL     1      44.276 -13.965   7.505  1.00  0.00    -0.309 N 
HETATM    8  C   UNL     1      45.357 -13.147   7.685  1.00  0.00     0.321 C 
HETATM    9  N   UNL     1      45.365 -12.416   8.829  1.00  0.00    -0.332 N 
HETATM   10  O   UNL     1      46.297 -13.002   6.910  1.00  0.00    -0.247 OA
HETATM   11  H   UNL     1      46.174 -11.809   8.912  1.00  0.00     0.165 HD
HETATM   12  H   UNL     1      43.642 -14.056   8.279  1.00  0.00     0.170 HD
BRANCH   9  13
HETATM   13  C   UNL     1      44.399 -12.324   9.921  1.00  0.00     0.155 C 
HETATM   14  C   UNL     1      45.112 -12.066  11.244  1.00  0.00     0.041 C 
BRANCH  13  15
HETATM   15  C   UNL     1      43.420 -11.229   9.601  1.00  0.00     0.169 A 
HETATM   16  N   UNL     1      42.942 -10.382  10.525  1.00  0.00    -0.156 NA
HETATM   17  N   UNL     1      42.095  -9.637   9.793  1.00  0.00    -0.270 N 
HETATM   18  H   UNL     1      41.567  -8.896  10.242  1.00  0.00     0.190 HD
HETATM   19  C   UNL     1      42.089 -10.030   8.493  1.00  0.00     0.227 A 
HETATM   20  N   UNL     1      42.918 -11.033   8.333  1.00  0.00    -0.223 NA
ENDBRANCH  13  15
ENDBRANCH   9  13
ENDBRANCH   1   7
BRANCH   4  21
HETATM   21  O   UNL     1      42.777 -17.234   3.231  1.00  0.00    -0.351 OA
BRANCH  21  22
HETATM   22  C   UNL     1      42.868 -16.779   1.878  1.00  0.00     0.180 C 
BRANCH  22  23
HETATM   23  C   UNL     1      41.569 -17.151   1.139  1.00  0.00     0.010 C 
HETATM   24  C   UNL     1      40.319 -16.953   2.017  1.00  0.00     0.007 C 
HETATM   25  C   UNL     1      39.983 -15.479   2.249  1.00  0.00     0.000 C 
HETATM   26  C   UNL     1      39.859 -14.717   0.933  1.00  0.00     0.000 C 
HETATM   27  C   UNL     1      41.090 -14.891   0.049  1.00  0.00     0.000 C 
HETATM   28  C   UNL     1      41.426 -16.366  -0.173  1.00  0.00     0.007 C 
ENDBRANCH  22  23
ENDBRANCH  21  22
ENDBRANCH   4  21
TORSDOF 6
ENDMDL
MODEL 8
REMARK VINA RESULT:      -7.2      6.653      9.229
REMARK  6 active torsions:
REMARK  status: ('A' for Active; 'I' for Inactive)
REMARK    1  A    between atoms: C_2  and  N_3 
REMARK    2  A    between atoms: C_2  and  C_21 
REMARK       I    between atoms: N_3  and  C_4 
REMARK       I    between atoms: C_4  and  N_5 
REMARK    3  A    between atoms: N_5  and  C_6 
REMARK    4  A    between atoms: C_9  and  O_10 
REMARK    5  A    between atoms: O_10  and  C_11 
REMARK    6  A    between atoms: C_11  and  C_12 
ROOT
HETATM    1  C   UNL     1      40.907 -15.543   0.836  1.00  0.00     0.036 A 
HETATM    2  C   UNL     1      41.586 -14.583   1.587  1.00  0.00     0.032 A 
HETATM    3  C   UNL     1      42.482 -14.966   2.596  1.00  0.00     0.039 A 
HETATM    4  C   UNL     1      42.716 -16.314   2.854  1.00  0.00     0.068 A 
HETATM    5  C   UNL     1      42.010 -17.277   2.134  1.00  0.00     0.039 A 
HETATM    6  C   UNL     1      41.113 -16.895   1.131  1.00  0.00     0.032 A 
ENDROOT
BRANCH   1   7
HETATM    7  N   UNL     1      40.036 -15.241  -0.232  1.00  0.00    -0.309 N 
HETATM    8  C   UNL     1      38.969 -14.387  -0.227  1.00  0.00     0.321 C 
HETATM    9  N   UNL     1      38.389 -14.151  -1.433  1.00  0.00    -0.332 N 
HETATM   10  O   UNL     1      38.504 -13.808   0.751  1.00  0.00    -0.247 OA
HETATM   11  H   UNL     1      37.614 -13.497  -1.385  1.00  0.00     0.165 HD
HETATM   12  H   UNL     1      40.230 -15.719  -1.095  1.00  0.00     0.170 HD
BRANCH   9  13
HETATM   13  C   UNL     1      38.717 -14.638  -2.770  1.00  0.00     0.155 C 
HETATM   14  C   UNL     1      37.667 -14.178  -3.777  1.00  0.00     0.041 C 
BRANCH  13  15
HETATM   15  C   UNL     1      40.087 -14.139  -3.138  1.00  0.00     0.169 A 
HETATM   16  N   UNL     1      41.154 -14.944  -3.246  1.00  0.00    -0.156 NA
HETATM   17  N   UNL     1      42.126 -14.064  -3.541  1.00  0.00    -0.270 N 
HETATM   18  H   UNL     1      43.075 -14.395  -3.676  1.00  0.00     0.190 HD
HETATM   19  C   UNL     1      41.640 -12.798  -3.611  1.00  0.00     0.227 A 
HETATM   20  N   UNL     1      40.352 -12.806  -3.365  1.00  0.00    -0.223 NA
ENDBRANCH  13  15
ENDBRANCH   9  13
ENDBRANCH   1   7
BRANCH   4  21
HETATM   21  O   UNL     1      43.594 -16.807   3.778  1.00  0.00    -0.351 OA
BRANCH  21  22
HETATM   22  C   UNL     1      43.369 -16.416   5.135  1.00  0.00     0.180 C 
BRANCH  22  23
HETATM   23  C   UNL     1      42.535 -17.504   5.836  1.00  0.00     0.010 C 
HETATM   24  C   UNL     1      43.195 -18.893   5.752  1.00  0.00     0.007 C 
HETATM   25  C   UNL     1      44.436 -19.015   6.635  1.00  0.00     0.000 C 
HETATM   26  C   UNL     1      44.137 -18.635   8.082  1.00  0.00     0.000 C 
HETATM   27  C   UNL     1      43.490 -17.257   8.193  1.00  0.00     0.000 C 
HETATM   28  C   UNL     1      42.254 -17.138   7.301  1.00  0.00     0.007 C 
ENDBRANCH  22  23
ENDBRANCH  21  22
ENDBRANCH   4  21
TORSDOF 6
ENDMDL
MODEL 9
REMARK VINA RESULT:      -7.2      6.272      9.498
REMARK  6 active torsions:
REMARK  status: ('A' for Active; 'I' for Inactive)
REMARK    1  A    between atoms: C_2  and  N_3 
REMARK    2  A    between atoms: C_2  and  C_21 
REMARK       I    between atoms: N_3  and  C_4 
REMARK       I    between atoms: C_4  and  N_5 
REMARK    3  A    between atoms: N_5  and  C_6 
REMARK    4  A    between atoms: C_9  and  O_10 
REMARK    5  A    between atoms: O_10  and  C_11 
REMARK    6  A    between atoms: C_11  and  C_12 
ROOT
HETATM    1  C   UNL     1      41.969 -16.207   1.610  1.00  0.00     0.036 A 
HETATM    2  C   UNL     1      41.742 -16.606   0.293  1.00  0.00     0.032 A 
HETATM    3  C   UNL     1      41.139 -15.734  -0.625  1.00  0.00     0.039 A 
HETATM    4  C   UNL     1      40.770 -14.449  -0.237  1.00  0.00     0.068 A 
HETATM    5  C   UNL     1      40.959 -14.059   1.089  1.00  0.00     0.039 A 
HETATM    6  C   UNL     1      41.556 -14.930   2.006  1.00  0.00     0.032 A 
ENDROOT
BRANCH   1   7
HETATM    7  N   UNL     1      42.622 -17.002   2.576  1.00  0.00    -0.309 N 
HETATM    8  C   UNL     1      42.079 -17.580   3.690  1.00  0.00     0.321 C 
HETATM    9  N   UNL     1      42.890 -18.431   4.372  1.00  0.00    -0.332 N 
HETATM   10  O   UNL     1      40.939 -17.418   4.112  1.00  0.00    -0.247 OA
HETATM   11  H   UNL     1      42.440 -18.852   5.179  1.00  0.00     0.165 HD
HETATM   12  H   UNL     1      43.604 -17.150   2.420  1.00  0.00     0.170 HD
BRANCH   9  13
HETATM   13  C   UNL     1      44.260 -18.868   4.119  1.00  0.00     0.155 C 
HETATM   14  C   UNL     1      44.991 -19.120   5.434  1.00  0.00     0.041 C 
BRANCH  13  15
HETATM   15  C   UNL     1      44.217 -20.106   3.268  1.00  0.00     0.169 A 
HETATM   16  N   UNL     1      43.687 -20.129   2.035  1.00  0.00    -0.156 NA
HETATM   17  N   UNL     1      43.837 -21.423   1.703  1.00  0.00    -0.270 N 
HETATM   18  H   UNL     1      43.509 -21.747   0.800  1.00  0.00     0.190 HD
HETATM   19  C   UNL     1      44.438 -22.122   2.700  1.00  0.00     0.227 A 
HETATM   20  N   UNL     1      44.697 -21.321   3.705  1.00  0.00    -0.223 NA
ENDBRANCH  13  15
ENDBRANCH   9  13
ENDBRANCH   1   7
BRANCH   4  21
HETATM   21  O   UNL     1      40.217 -13.499  -1.049  1.00  0.00    -0.351 OA
BRANCH  21  22
HETATM   22  C   UNL     1      40.896 -12.241  -1.104  1.00  0.00     0.180 C 
BRANCH  22  23
HETATM   23  C   UNL     1      42.284 -12.452  -1.735  1.00  0.00     0.010 C 
HETATM   24  C   UNL     1      42.203 -12.733  -3.247  1.00  0.00     0.007 C 
HETATM   25  C   UNL     1      41.817 -11.499  -4.061  1.00  0.00     0.000 C 
HETATM   26  C   UNL     1      42.740 -10.319  -3.769  1.00  0.00     0.000 C 
HETATM   27  C   UNL     1      42.829 -10.015  -2.277  1.00  0.00     0.000 C 
HETATM   28  C   UNL     1      43.209 -11.255  -1.467  1.00  0.00     0.007 C 
ENDBRANCH  22  23
ENDBRANCH  21  22
ENDBRANCH   4  21
TORSDOF 6
ENDMDL
MODEL 10
REMARK VINA RESULT:      -7.2      5.921      8.057
REMARK  6 active torsions:
REMARK  status: ('A' for Active; 'I' for Inactive)
REMARK    1  A    between atoms: C_2  and  N_3 
REMARK    2  A    between atoms: C_2  and  C_21 
REMARK       I    between atoms: N_3  and  C_4 
REMARK       I    between atoms: C_4  and  N_5 
REMARK    3  A    between atoms: N_5  and  C_6 
REMARK    4  A    between atoms: C_9  and  O_10 
REMARK    5  A    between atoms: O_10  and  C_11 
REMARK    6  A    between atoms: C_11  and  C_12 
ROOT
HETATM    1  C   UNL     1      41.941 -15.391   0.602  1.00  0.00     0.036 A 
HETATM    2  C   UNL     1      41.962 -16.778   0.453  1.00  0.00     0.032 A 
HETATM    3  C   UNL     1      41.906 -17.618   1.574  1.00  0.00     0.039 A 
HETATM    4  C   UNL     1      41.814 -17.078   2.854  1.00  0.00     0.068 A 
HETATM    5  C   UNL     1      41.833 -15.693   3.011  1.00  0.00     0.039 A 
HETATM    6  C   UNL     1      41.893 -14.854   1.893  1.00  0.00     0.032 A 
ENDROOT
BRANCH   1   7
HETATM    7  N   UNL     1      41.935 -14.480  -0.476  1.00  0.00    -0.309 N 
HETATM    8  C   UNL     1      40.856 -13.858  -1.040  1.00  0.00     0.321 C 
HETATM    9  N   UNL     1      41.137 -12.902  -1.964  1.00  0.00    -0.332 N 
HETATM   10  O   UNL     1      39.675 -14.068  -0.779  1.00  0.00    -0.247 OA
HETATM   11  H   UNL     1      40.308 -12.453  -2.342  1.00  0.00     0.165 HD
HETATM   12  H   UNL     1      42.835 -14.274  -0.871  1.00  0.00     0.170 HD
BRANCH   9  13
HETATM   13  C   UNL     1      42.409 -12.389  -2.463  1.00  0.00     0.155 C 
HETATM   14  C   UNL     1      42.285 -11.986  -3.929  1.00  0.00     0.041 C 
BRANCH  13  15
HETATM   15  C   UNL     1      42.825 -11.225  -1.606  1.00  0.00     0.169 A 
HETATM   16  N   UNL     1      42.760 -11.243  -0.267  1.00  0.00    -0.156 NA
HETATM   17  N   UNL     1      43.182 -10.004   0.039  1.00  0.00    -0.270 N 
HETATM   18  H   UNL     1      43.231  -9.719   1.011  1.00  0.00     0.190 HD
HETATM   19  C   UNL     1      43.489  -9.298  -1.080  1.00  0.00     0.227 A 
HETATM   20  N   UNL     1      43.279 -10.039  -2.140  1.00  0.00    -0.223 NA
ENDBRANCH  13  15
ENDBRANCH   9  13
ENDBRANCH   1   7
BRANCH   4  21
HETATM   21  O   UNL     1      41.710 -17.793   4.015  1.00  0.00    -0.351 OA
BRANCH  21  22
HETATM   22  C   UNL     1      42.003 -17.083   5.222  1.00  0.00     0.180 C 
BRANCH  22  23
HETATM   23  C   UNL     1      43.519 -17.149   5.483  1.00  0.00     0.010 C 
HETATM   24  C   UNL     1      43.905 -16.543   6.845  1.00  0.00     0.007 C 
HETATM   25  C   UNL     1      43.477 -17.414   8.026  1.00  0.00     0.000 C 
HETATM   26  C   UNL     1      43.999 -18.842   7.891  1.00  0.00     0.000 C 
HETATM   27  C   UNL     1      43.620 -19.468   6.552  1.00  0.00     0.000 C 
HETATM   28  C   UNL     1      44.044 -18.589   5.375  1.00  0.00     0.007 C 
ENDBRANCH  22  23
ENDBRANCH  21  22
ENDBRANCH   4  21
TORSDOF 6
ENDMDL
