MODEL 1
REMARK VINA RESULT:      -7.4      0.000      0.000
REMARK  6 active torsions:
REMARK  status: ('A' for Active; 'I' for Inactive)
REMARK    1  A    between atoms: C_2  and  C_3 
REMARK    2  A    between atoms: C_3  and  O_4 
REMARK    3  A    between atoms: O_4  and  C_5 
REMARK    4  A    between atoms: C_6  and  O_7 
REMARK    5  A    between atoms: C_10  and  C_11 
REMARK    6  A    between atoms: C_25  and  O_26 
ROOT
HETATM    1  C   UNL     1      43.281 -15.261   4.367  1.00  0.00     0.269 C 
HETATM    2  N   UNL     1      43.183 -15.139   5.867  1.00  0.00    -0.061 N 
HETATM    3  H   UNL     1      42.257 -15.479   6.148  1.00  0.00     0.278 HD
HETATM    4  H   UNL     1      43.214 -14.145   6.115  1.00  0.00     0.278 HD
HETATM    5  C   UNL     1      44.239 -15.916   6.618  1.00  0.00     0.238 C 
HETATM    6  C   UNL     1      44.098 -17.428   6.358  1.00  0.00     0.069 C 
HETATM    7  C   UNL     1      43.903 -17.688   4.903  1.00  0.00    -0.019 A 
HETATM    8  C   UNL     1      43.520 -16.691   4.023  1.00  0.00     0.052 A 
HETATM    9  N   UNL     1      43.437 -17.241   2.769  1.00  0.00    -0.356 N 
HETATM   10  H   UNL     1      43.176 -16.763   1.915  1.00  0.00     0.166 HD
HETATM   11  C   UNL     1      43.738 -18.584   2.833  1.00  0.00     0.043 A 
HETATM   12  C   UNL     1      44.035 -18.891   4.162  1.00  0.00     0.002 A 
HETATM   13  C   UNL     1      43.770 -19.546   1.817  1.00  0.00     0.033 A 
HETATM   14  C   UNL     1      44.115 -20.858   2.168  1.00  0.00     0.039 A 
HETATM   15  C   UNL     1      44.418 -21.196   3.486  1.00  0.00     0.069 A 
HETATM   16  C   UNL     1      44.379 -20.216   4.488  1.00  0.00     0.051 A 
ENDROOT
BRANCH   1  17
HETATM   17  C   UNL     1      42.052 -14.665   3.711  1.00  0.00    -0.019 A 
HETATM   18  C   UNL     1      42.160 -13.638   2.753  1.00  0.00     0.049 A 
HETATM   19  C   UNL     1      41.021 -13.108   2.136  1.00  0.00     0.102 A 
HETATM   20  C   UNL     1      39.749 -13.610   2.466  1.00  0.00     0.102 A 
HETATM   21  C   UNL     1      39.638 -14.630   3.414  1.00  0.00     0.040 A 
HETATM   22  C   UNL     1      40.778 -15.153   4.031  1.00  0.00     0.012 A 
BRANCH  19  23
HETATM   23  O   UNL     1      41.061 -12.128   1.178  1.00  0.00    -0.353 OA
HETATM   24  C   UNL     1      42.037 -12.248   0.153  1.00  0.00     0.210 C 
ENDBRANCH  19  23
BRANCH  20  25
HETATM   25  O   UNL     1      38.690 -13.044   1.806  1.00  0.00    -0.348 OA
BRANCH  25  26
HETATM   26  C   UNL     1      37.882 -13.883   0.982  1.00  0.00     0.175 C 
BRANCH  26  27
HETATM   27  C   UNL     1      37.916 -13.317  -0.434  1.00  0.00     0.022 C 
HETATM   28  C   UNL     1      39.065 -13.892  -1.245  1.00  0.00     0.007 C 
ENDBRANCH  26  27
ENDBRANCH  25  26
ENDBRANCH  20  25
ENDBRANCH   1  17
BRANCH  15  29
HETATM   29  O   UNL     1      44.765 -22.442   3.936  1.00  0.00    -0.356 OA
HETATM   30  C   UNL     1      45.187 -22.546   5.291  1.00  0.00     0.210 C 
ENDBRANCH  15  29
TORSDOF 6
ENDMDL
MODEL 2
REMARK VINA RESULT:      -7.4      2.455      8.217
REMARK  6 active torsions:
REMARK  status: ('A' for Active; 'I' for Inactive)
REMARK    1  A    between atoms: C_2  and  C_3 
REMARK    2  A    between atoms: C_3  and  O_4 
REMARK    3  A    between atoms: O_4  and  C_5 
REMARK    4  A    between atoms: C_6  and  O_7 
REMARK    5  A    between atoms: C_10  and  C_11 
REMARK    6  A    between atoms: C_25  and  O_26 
ROOT
HETATM    1  C   UNL     1      40.678 -16.431   2.336  1.00  0.00     0.269 C 
HETATM    2  N   UNL     1      40.709 -15.380   3.419  1.00  0.00    -0.061 N 
HETATM    3  H   UNL     1      41.679 -15.061   3.514  1.00  0.00     0.278 HD
HETATM    4  H   UNL     1      40.462 -15.825   4.309  1.00  0.00     0.278 HD
HETATM    5  C   UNL     1      39.823 -14.188   3.147  1.00  0.00     0.238 C 
HETATM    6  C   UNL     1      40.287 -13.435   1.885  1.00  0.00     0.069 C 
HETATM    7  C   UNL     1      40.570 -14.397   0.782  1.00  0.00    -0.019 A 
HETATM    8  C   UNL     1      40.756 -15.748   1.013  1.00  0.00     0.052 A 
HETATM    9  N   UNL     1      40.985 -16.358  -0.194  1.00  0.00    -0.356 N 
HETATM   10  H   UNL     1      41.161 -17.344  -0.349  1.00  0.00     0.166 HD
HETATM   11  C   UNL     1      40.974 -15.415  -1.198  1.00  0.00     0.043 A 
HETATM   12  C   UNL     1      40.715 -14.174  -0.612  1.00  0.00     0.002 A 
HETATM   13  C   UNL     1      41.172 -15.567  -2.574  1.00  0.00     0.033 A 
HETATM   14  C   UNL     1      41.104 -14.421  -3.376  1.00  0.00     0.039 A 
HETATM   15  C   UNL     1      40.846 -13.167  -2.823  1.00  0.00     0.069 A 
HETATM   16  C   UNL     1      40.650 -13.038  -1.441  1.00  0.00     0.051 A 
ENDROOT
BRANCH   1  17
HETATM   17  C   UNL     1      41.769 -17.456   2.567  1.00  0.00    -0.019 A 
HETATM   18  C   UNL     1      42.568 -17.425   3.726  1.00  0.00     0.049 A 
HETATM   19  C   UNL     1      43.560 -18.388   3.941  1.00  0.00     0.102 A 
HETATM   20  C   UNL     1      43.760 -19.411   2.996  1.00  0.00     0.102 A 
HETATM   21  C   UNL     1      42.967 -19.447   1.846  1.00  0.00     0.040 A 
HETATM   22  C   UNL     1      41.981 -18.479   1.632  1.00  0.00     0.012 A 
BRANCH  19  23
HETATM   23  O   UNL     1      44.352 -18.429   5.060  1.00  0.00    -0.353 OA
HETATM   24  C   UNL     1      43.721 -18.698   6.304  1.00  0.00     0.210 C 
ENDBRANCH  19  23
BRANCH  20  25
HETATM   25  O   UNL     1      44.742 -20.319   3.291  1.00  0.00    -0.348 OA
BRANCH  25  26
HETATM   26  C   UNL     1      44.677 -21.606   2.677  1.00  0.00     0.175 C 
BRANCH  26  27
HETATM   27  C   UNL     1      44.635 -22.651   3.787  1.00  0.00     0.022 C 
HETATM   28  C   UNL     1      45.008 -22.058   5.135  1.00  0.00     0.007 C 
ENDBRANCH  26  27
ENDBRANCH  25  26
ENDBRANCH  20  25
ENDBRANCH   1  17
BRANCH  15  29
HETATM   29  O   UNL     1      40.758 -11.988  -3.513  1.00  0.00    -0.356 OA
HETATM   30  C   UNL     1      41.922 -11.559  -4.211  1.00  0.00     0.210 C 
ENDBRANCH  15  29
TORSDOF 6
ENDMDL
MODEL 3
REMARK VINA RESULT:      -7.3      1.865      3.044
REMARK  6 active torsions:
REMARK  status: ('A' for Active; 'I' for Inactive)
REMARK    1  A    between atoms: C_2  and  C_3 
REMARK    2  A    between atoms: C_3  and  O_4 
REMARK    3  A    between atoms: O_4  and  C_5 
REMARK    4  A    between atoms: C_6  and  O_7 
REMARK    5  A    between atoms: C_10  and  C_11 
REMARK    6  A    between atoms: C_25  and  O_26 
ROOT
HETATM    1  C   UNL     1      42.499 -14.226   2.032  1.00  0.00     0.269 C 
HETATM    2  N   UNL     1      42.120 -13.445   3.266  1.00  0.00    -0.061 N 
HETATM    3  H   UNL     1      41.185 -13.753   3.554  1.00  0.00     0.278 HD
HETATM    4  H   UNL     1      42.033 -12.456   3.011  1.00  0.00     0.278 HD
HETATM    5  C   UNL     1      43.074 -13.622   4.424  1.00  0.00     0.238 C 
HETATM    6  C   UNL     1      43.094 -15.086   4.901  1.00  0.00     0.069 C 
HETATM    7  C   UNL     1      43.187 -16.011   3.735  1.00  0.00    -0.019 A 
HETATM    8  C   UNL     1      42.900 -15.600   2.446  1.00  0.00     0.052 A 
HETATM    9  N   UNL     1      43.089 -16.670   1.608  1.00  0.00    -0.356 N 
HETATM   10  H   UNL     1      42.954 -16.682   0.603  1.00  0.00     0.166 HD
HETATM   11  C   UNL     1      43.469 -17.771   2.343  1.00  0.00     0.043 A 
HETATM   12  C   UNL     1      43.539 -17.385   3.682  1.00  0.00     0.002 A 
HETATM   13  C   UNL     1      43.756 -19.074   1.923  1.00  0.00     0.033 A 
HETATM   14  C   UNL     1      44.126 -20.010   2.898  1.00  0.00     0.039 A 
HETATM   15  C   UNL     1      44.206 -19.656   4.244  1.00  0.00     0.069 A 
HETATM   16  C   UNL     1      43.914 -18.344   4.642  1.00  0.00     0.051 A 
ENDROOT
BRANCH   1  17
HETATM   17  C   UNL     1      41.371 -14.190   1.021  1.00  0.00    -0.019 A 
HETATM   18  C   UNL     1      40.033 -14.013   1.423  1.00  0.00     0.049 A 
HETATM   19  C   UNL     1      39.000 -13.960   0.481  1.00  0.00     0.102 A 
HETATM   20  C   UNL     1      39.296 -14.076  -0.889  1.00  0.00     0.102 A 
HETATM   21  C   UNL     1      40.622 -14.249  -1.293  1.00  0.00     0.040 A 
HETATM   22  C   UNL     1      41.651 -14.307  -0.348  1.00  0.00     0.012 A 
BRANCH  19  23
HETATM   23  O   UNL     1      37.682 -13.763   0.806  1.00  0.00    -0.353 OA
HETATM   24  C   UNL     1      37.246 -12.425   1.000  1.00  0.00     0.210 C 
ENDBRANCH  19  23
BRANCH  20  25
HETATM   25  O   UNL     1      38.228 -14.000  -1.744  1.00  0.00    -0.348 OA
BRANCH  25  26
HETATM   26  C   UNL     1      38.483 -14.035  -3.147  1.00  0.00     0.175 C 
BRANCH  26  27
HETATM   27  C   UNL     1      37.875 -15.321  -3.699  1.00  0.00     0.022 C 
HETATM   28  C   UNL     1      38.940 -16.277  -4.208  1.00  0.00     0.007 C 
ENDBRANCH  26  27
ENDBRANCH  25  26
ENDBRANCH  20  25
ENDBRANCH   1  17
BRANCH  15  29
HETATM   29  O   UNL     1      44.555 -20.488   5.274  1.00  0.00    -0.356 OA
HETATM   30  C   UNL     1      43.891 -20.292   6.517  1.00  0.00     0.210 C 
ENDBRANCH  15  29
TORSDOF 6
ENDMDL
MODEL 4
REMARK VINA RESULT:      -7.3      1.345      1.516
REMARK  6 active torsions:
REMARK  status: ('A' for Active; 'I' for Inactive)
REMARK    1  A    between atoms: C_2  and  C_3 
REMARK    2  A    between atoms: C_3  and  O_4 
REMARK    3  A    between atoms: O_4  and  C_5 
REMARK    4  A    between atoms: C_6  and  O_7 
REMARK    5  A    between atoms: C_10  and  C_11 
REMARK    6  A    between atoms: C_25  and  O_26 
ROOT
HETATM    1  C   UNL     1      42.774 -14.900   3.612  1.00  0.00     0.269 C 
HETATM    2  N   UNL     1      42.416 -14.481   5.016  1.00  0.00    -0.061 N 
HETATM    3  H   UNL     1      41.505 -14.894   5.241  1.00  0.00     0.278 HD
HETATM    4  H   UNL     1      42.283 -13.464   5.027  1.00  0.00     0.278 HD
HETATM    5  C   UNL     1      43.420 -14.905   6.061  1.00  0.00     0.238 C 
HETATM    6  C   UNL     1      43.511 -16.441   6.144  1.00  0.00     0.069 C 
HETATM    7  C   UNL     1      43.593 -17.030   4.777  1.00  0.00    -0.019 A 
HETATM    8  C   UNL     1      43.241 -16.316   3.646  1.00  0.00     0.052 A 
HETATM    9  N   UNL     1      43.435 -17.125   2.555  1.00  0.00    -0.356 N 
HETATM   10  H   UNL     1      43.262 -16.885   1.586  1.00  0.00     0.166 HD
HETATM   11  C   UNL     1      43.884 -18.359   2.970  1.00  0.00     0.043 A 
HETATM   12  C   UNL     1      43.992 -18.327   4.362  1.00  0.00     0.002 A 
HETATM   13  C   UNL     1      44.201 -19.497   2.220  1.00  0.00     0.033 A 
HETATM   14  C   UNL     1      44.642 -20.634   2.910  1.00  0.00     0.039 A 
HETATM   15  C   UNL     1      44.762 -20.634   4.299  1.00  0.00     0.069 A 
HETATM   16  C   UNL     1      44.438 -19.482   5.030  1.00  0.00     0.051 A 
ENDROOT
BRANCH   1  17
HETATM   17  C   UNL     1      41.607 -14.658   2.676  1.00  0.00    -0.019 A 
HETATM   18  C   UNL     1      41.766 -13.925   1.484  1.00  0.00     0.049 A 
HETATM   19  C   UNL     1      40.688 -13.723   0.616  1.00  0.00     0.102 A 
HETATM   20  C   UNL     1      39.427 -14.265   0.927  1.00  0.00     0.102 A 
HETATM   21  C   UNL     1      39.266 -14.994   2.107  1.00  0.00     0.040 A 
HETATM   22  C   UNL     1      40.345 -15.189   2.975  1.00  0.00     0.012 A 
BRANCH  19  23
HETATM   23  O   UNL     1      40.783 -13.043  -0.572  1.00  0.00    -0.353 OA
HETATM   24  C   UNL     1      41.672 -13.557  -1.555  1.00  0.00     0.210 C 
ENDBRANCH  19  23
BRANCH  20  25
HETATM   25  O   UNL     1      38.431 -14.031   0.016  1.00  0.00    -0.348 OA
BRANCH  25  26
HETATM   26  C   UNL     1      37.153 -13.625   0.505  1.00  0.00     0.175 C 
BRANCH  26  27
HETATM   27  C   UNL     1      37.236 -12.143   0.852  1.00  0.00     0.022 C 
HETATM   28  C   UNL     1      35.930 -11.421   0.569  1.00  0.00     0.007 C 
ENDBRANCH  26  27
ENDBRANCH  25  26
ENDBRANCH  20  25
ENDBRANCH   1  17
BRANCH  15  29
HETATM   29  O   UNL     1      45.181 -21.686   5.069  1.00  0.00    -0.356 OA
HETATM   30  C   UNL     1      44.792 -22.989   4.650  1.00  0.00     0.210 C 
ENDBRANCH  15  29
TORSDOF 6
ENDMDL
MODEL 5
REMARK VINA RESULT:      -7.2      5.361      7.761
REMARK  6 active torsions:
REMARK  status: ('A' for Active; 'I' for Inactive)
REMARK    1  A    between atoms: C_2  and  C_3 
REMARK    2  A    between atoms: C_3  and  O_4 
REMARK    3  A    between atoms: O_4  and  C_5 
REMARK    4  A    between atoms: C_6  and  O_7 
REMARK    5  A    between atoms: C_10  and  C_11 
REMARK    6  A    between atoms: C_25  and  O_26 
ROOT
HETATM    1  C   UNL     1      39.416 -11.960   6.185  1.00  0.00     0.269 C 
HETATM    2  N   UNL     1      39.646 -10.976   5.064  1.00  0.00    -0.061 N 
HETATM    3  H   UNL     1      40.638 -10.715   5.079  1.00  0.00     0.278 HD
HETATM    4  H   UNL     1      39.119 -10.121   5.269  1.00  0.00     0.278 HD
HETATM    5  C   UNL     1      39.299 -11.510   3.695  1.00  0.00     0.238 C 
HETATM    6  C   UNL     1      40.195 -12.708   3.328  1.00  0.00     0.069 C 
HETATM    7  C   UNL     1      40.288 -13.656   4.475  1.00  0.00    -0.019 A 
HETATM    8  C   UNL     1      39.942 -13.289   5.763  1.00  0.00     0.052 A 
HETATM    9  N   UNL     1      40.127 -14.376   6.579  1.00  0.00    -0.356 N 
HETATM   10  H   UNL     1      39.962 -14.418   7.578  1.00  0.00     0.166 HD
HETATM   11  C   UNL     1      40.613 -15.432   5.839  1.00  0.00     0.043 A 
HETATM   12  C   UNL     1      40.723 -15.007   4.514  1.00  0.00     0.002 A 
HETATM   13  C   UNL     1      40.960 -16.726   6.242  1.00  0.00     0.033 A 
HETATM   14  C   UNL     1      41.434 -17.611   5.265  1.00  0.00     0.039 A 
HETATM   15  C   UNL     1      41.555 -17.218   3.933  1.00  0.00     0.069 A 
HETATM   16  C   UNL     1      41.201 -15.916   3.551  1.00  0.00     0.051 A 
ENDROOT
BRANCH   1  17
HETATM   17  C   UNL     1      40.018 -11.439   7.474  1.00  0.00    -0.019 A 
HETATM   18  C   UNL     1      41.397 -11.178   7.584  1.00  0.00     0.049 A 
HETATM   19  C   UNL     1      41.942 -10.677   8.772  1.00  0.00     0.102 A 
HETATM   20  C   UNL     1      41.104 -10.419   9.871  1.00  0.00     0.102 A 
HETATM   21  C   UNL     1      39.734 -10.673   9.766  1.00  0.00     0.040 A 
HETATM   22  C   UNL     1      39.195 -11.179   8.579  1.00  0.00     0.012 A 
BRANCH  19  23
HETATM   23  O   UNL     1      43.270 -10.377   8.933  1.00  0.00    -0.353 OA
HETATM   24  C   UNL     1      44.179 -11.462   9.063  1.00  0.00     0.210 C 
ENDBRANCH  19  23
BRANCH  20  25
HETATM   25  O   UNL     1      41.716  -9.917  10.990  1.00  0.00    -0.348 OA
BRANCH  25  26
HETATM   26  C   UNL     1      41.895 -10.786  12.107  1.00  0.00     0.175 C 
BRANCH  26  27
HETATM   27  C   UNL     1      43.296 -10.549  12.661  1.00  0.00     0.022 C 
HETATM   28  C   UNL     1      43.313  -9.446  13.705  1.00  0.00     0.007 C 
ENDBRANCH  26  27
ENDBRANCH  25  26
ENDBRANCH  20  25
ENDBRANCH   1  17
BRANCH  15  29
HETATM   29  O   UNL     1      42.005 -18.000   2.903  1.00  0.00    -0.356 OA
HETATM   30  C   UNL     1      43.404 -17.989   2.646  1.00  0.00     0.210 C 
ENDBRANCH  15  29
TORSDOF 6
ENDMDL
MODEL 6
REMARK VINA RESULT:      -7.0      5.389      7.884
REMARK  6 active torsions:
REMARK  status: ('A' for Active; 'I' for Inactive)
REMARK    1  A    between atoms: C_2  and  C_3 
REMARK    2  A    between atoms: C_3  and  O_4 
REMARK    3  A    between atoms: O_4  and  C_5 
REMARK    4  A    between atoms: C_6  and  O_7 
REMARK    5  A    between atoms: C_10  and  C_11 
REMARK    6  A    between atoms: C_25  and  O_26 
ROOT
HETATM    1  C   UNL     1      39.286 -11.902   6.272  1.00  0.00     0.269 C 
HETATM    2  N   UNL     1      39.265 -10.931   5.118  1.00  0.00    -0.061 N 
HETATM    3  H   UNL     1      40.227 -10.608   4.967  1.00  0.00     0.278 HD
HETATM    4  H   UNL     1      38.724 -10.106   5.397  1.00  0.00     0.278 HD
HETATM    5  C   UNL     1      38.735 -11.514   3.831  1.00  0.00     0.238 C 
HETATM    6  C   UNL     1      39.636 -12.662   3.335  1.00  0.00     0.069 C 
HETATM    7  C   UNL     1      39.976 -13.577   4.461  1.00  0.00    -0.019 A 
HETATM    8  C   UNL     1      39.821 -13.205   5.784  1.00  0.00     0.052 A 
HETATM    9  N   UNL     1      40.207 -14.261   6.571  1.00  0.00    -0.356 N 
HETATM   10  H   UNL     1      40.210 -14.291   7.584  1.00  0.00     0.166 HD
HETATM   11  C   UNL     1      40.633 -15.299   5.772  1.00  0.00     0.043 A 
HETATM   12  C   UNL     1      40.498 -14.897   4.442  1.00  0.00     0.002 A 
HETATM   13  C   UNL     1      41.126 -16.560   6.127  1.00  0.00     0.033 A 
HETATM   14  C   UNL     1      41.490 -17.435   5.095  1.00  0.00     0.039 A 
HETATM   15  C   UNL     1      41.366 -17.064   3.757  1.00  0.00     0.069 A 
HETATM   16  C   UNL     1      40.871 -15.795   3.425  1.00  0.00     0.051 A 
ENDROOT
BRANCH   1  17
HETATM   17  C   UNL     1      40.055 -11.317   7.439  1.00  0.00    -0.019 A 
HETATM   18  C   UNL     1      39.445 -11.123   8.693  1.00  0.00     0.049 A 
HETATM   19  C   UNL     1      40.168 -10.601   9.771  1.00  0.00     0.102 A 
HETATM   20  C   UNL     1      41.526 -10.273   9.610  1.00  0.00     0.102 A 
HETATM   21  C   UNL     1      42.136 -10.466   8.367  1.00  0.00     0.040 A 
HETATM   22  C   UNL     1      41.408 -10.983   7.292  1.00  0.00     0.012 A 
BRANCH  19  23
HETATM   23  O   UNL     1      39.640 -10.414  11.023  1.00  0.00    -0.353 OA
HETATM   24  C   UNL     1      38.677  -9.383  11.184  1.00  0.00     0.210 C 
ENDBRANCH  19  23
BRANCH  20  25
HETATM   25  O   UNL     1      42.162  -9.781  10.719  1.00  0.00    -0.348 OA
BRANCH  25  26
HETATM   26  C   UNL     1      43.530 -10.131  10.923  1.00  0.00     0.175 C 
BRANCH  26  27
HETATM   27  C   UNL     1      43.564 -11.414  11.747  1.00  0.00     0.022 C 
HETATM   28  C   UNL     1      44.380 -12.501  11.070  1.00  0.00     0.007 C 
ENDBRANCH  26  27
ENDBRANCH  25  26
ENDBRANCH  20  25
ENDBRANCH   1  17
BRANCH  15  29
HETATM   29  O   UNL     1      41.692 -17.838   2.676  1.00  0.00    -0.356 OA
HETATM   30  C   UNL     1      41.264 -17.378   1.399  1.00  0.00     0.210 C 
ENDBRANCH  15  29
TORSDOF 6
ENDMDL
MODEL 7
REMARK VINA RESULT:      -7.0      1.850      2.513
REMARK  6 active torsions:
REMARK  status: ('A' for Active; 'I' for Inactive)
REMARK    1  A    between atoms: C_2  and  C_3 
REMARK    2  A    between atoms: C_3  and  O_4 
REMARK    3  A    between atoms: O_4  and  C_5 
REMARK    4  A    between atoms: C_6  and  O_7 
REMARK    5  A    between atoms: C_10  and  C_11 
REMARK    6  A    between atoms: C_25  and  O_26 
ROOT
HETATM    1  C   UNL     1      42.625 -14.271   2.448  1.00  0.00     0.269 C 
HETATM    2  N   UNL     1      42.252 -13.558   3.724  1.00  0.00    -0.061 N 
HETATM    3  H   UNL     1      41.317 -13.879   3.998  1.00  0.00     0.278 HD
HETATM    4  H   UNL     1      42.166 -12.556   3.524  1.00  0.00     0.278 HD
HETATM    5  C   UNL     1      43.209 -13.799   4.867  1.00  0.00     0.238 C 
HETATM    6  C   UNL     1      43.227 -15.288   5.263  1.00  0.00     0.069 C 
HETATM    7  C   UNL     1      43.315 -16.148   4.048  1.00  0.00    -0.019 A 
HETATM    8  C   UNL     1      43.024 -15.667   2.784  1.00  0.00     0.052 A 
HETATM    9  N   UNL     1      43.207 -16.689   1.888  1.00  0.00    -0.356 N 
HETATM   10  H   UNL     1      43.069 -16.646   0.885  1.00  0.00     0.166 HD
HETATM   11  C   UNL     1      43.588 -17.830   2.561  1.00  0.00     0.043 A 
HETATM   12  C   UNL     1      43.663 -17.517   3.919  1.00  0.00     0.002 A 
HETATM   13  C   UNL     1      43.870 -19.109   2.069  1.00  0.00     0.033 A 
HETATM   14  C   UNL     1      44.241 -20.097   2.990  1.00  0.00     0.039 A 
HETATM   15  C   UNL     1      44.327 -19.818   4.353  1.00  0.00     0.069 A 
HETATM   16  C   UNL     1      44.039 -18.529   4.824  1.00  0.00     0.051 A 
ENDROOT
BRANCH   1  17
HETATM   17  C   UNL     1      41.493 -14.177   1.444  1.00  0.00    -0.019 A 
HETATM   18  C   UNL     1      41.736 -14.258   0.059  1.00  0.00     0.049 A 
HETATM   19  C   UNL     1      40.683 -14.192  -0.860  1.00  0.00     0.102 A 
HETATM   20  C   UNL     1      39.361 -14.053  -0.401  1.00  0.00     0.102 A 
HETATM   21  C   UNL     1      39.115 -13.974   0.973  1.00  0.00     0.040 A 
HETATM   22  C   UNL     1      40.171 -14.036   1.887  1.00  0.00     0.012 A 
BRANCH  19  23
HETATM   23  O   UNL     1      40.850 -14.292  -2.218  1.00  0.00    -0.353 OA
HETATM   24  C   UNL     1      41.005 -15.592  -2.768  1.00  0.00     0.210 C 
ENDBRANCH  19  23
BRANCH  20  25
HETATM   25  O   UNL     1      38.390 -14.009  -1.366  1.00  0.00    -0.348 OA
BRANCH  25  26
HETATM   26  C   UNL     1      37.754 -12.759  -1.628  1.00  0.00     0.175 C 
BRANCH  26  27
HETATM   27  C   UNL     1      37.698 -12.572  -3.141  1.00  0.00     0.022 C 
HETATM   28  C   UNL     1      38.916 -11.832  -3.665  1.00  0.00     0.007 C 
ENDBRANCH  26  27
ENDBRANCH  25  26
ENDBRANCH  20  25
ENDBRANCH   1  17
BRANCH  15  29
HETATM   29  O   UNL     1      44.678 -20.705   5.335  1.00  0.00    -0.356 OA
HETATM   30  C   UNL     1      45.001 -22.029   4.924  1.00  0.00     0.210 C 
ENDBRANCH  15  29
TORSDOF 6
ENDMDL
MODEL 8
REMARK VINA RESULT:      -6.9      1.824      2.150
REMARK  6 active torsions:
REMARK  status: ('A' for Active; 'I' for Inactive)
REMARK    1  A    between atoms: C_2  and  C_3 
REMARK    2  A    between atoms: C_3  and  O_4 
REMARK    3  A    between atoms: O_4  and  C_5 
REMARK    4  A    between atoms: C_6  and  O_7 
REMARK    5  A    between atoms: C_10  and  C_11 
REMARK    6  A    between atoms: C_25  and  O_26 
ROOT
HETATM    1  C   UNL     1      43.041 -15.508   5.911  1.00  0.00     0.269 C 
HETATM    2  N   UNL     1      42.626 -15.964   7.288  1.00  0.00    -0.061 N 
HETATM    3  H   UNL     1      41.662 -16.307   7.225  1.00  0.00     0.278 HD
HETATM    4  H   UNL     1      42.603 -15.148   7.908  1.00  0.00     0.278 HD
HETATM    5  C   UNL     1      43.498 -17.054   7.865  1.00  0.00     0.238 C 
HETATM    6  C   UNL     1      43.417 -18.333   7.009  1.00  0.00     0.069 C 
HETATM    7  C   UNL     1      43.536 -17.997   5.561  1.00  0.00    -0.019 A 
HETATM    8  C   UNL     1      43.348 -16.711   5.087  1.00  0.00     0.052 A 
HETATM    9  N   UNL     1      43.535 -16.728   3.728  1.00  0.00    -0.356 N 
HETATM   10  H   UNL     1      43.461 -15.938   3.098  1.00  0.00     0.166 HD
HETATM   11  C   UNL     1      43.815 -18.013   3.317  1.00  0.00     0.043 A 
HETATM   12  C   UNL     1      43.823 -18.829   4.448  1.00  0.00     0.002 A 
HETATM   13  C   UNL     1      44.063 -18.509   2.032  1.00  0.00     0.033 A 
HETATM   14  C   UNL     1      44.326 -19.879   1.899  1.00  0.00     0.039 A 
HETATM   15  C   UNL     1      44.342 -20.722   3.010  1.00  0.00     0.069 A 
HETATM   16  C   UNL     1      44.090 -20.202   4.287  1.00  0.00     0.051 A 
ENDROOT
BRANCH   1  17
HETATM   17  C   UNL     1      41.980 -14.605   5.315  1.00  0.00    -0.019 A 
HETATM   18  C   UNL     1      42.057 -13.205   5.440  1.00  0.00     0.049 A 
HETATM   19  C   UNL     1      41.083 -12.378   4.869  1.00  0.00     0.102 A 
HETATM   20  C   UNL     1      40.016 -12.946   4.150  1.00  0.00     0.102 A 
HETATM   21  C   UNL     1      39.937 -14.335   4.022  1.00  0.00     0.040 A 
HETATM   22  C   UNL     1      40.909 -15.158   4.599  1.00  0.00     0.012 A 
BRANCH  19  23
HETATM   23  O   UNL     1      41.116 -11.008   4.931  1.00  0.00    -0.353 OA
HETATM   24  C   UNL     1      41.506 -10.414   6.161  1.00  0.00     0.210 C 
ENDBRANCH  19  23
BRANCH  20  25
HETATM   25  O   UNL     1      39.116 -12.064   3.612  1.00  0.00    -0.348 OA
BRANCH  25  26
HETATM   26  C   UNL     1      39.177 -11.808   2.210  1.00  0.00     0.175 C 
BRANCH  26  27
HETATM   27  C   UNL     1      37.750 -11.614   1.709  1.00  0.00     0.022 C 
HETATM   28  C   UNL     1      37.319 -12.735   0.780  1.00  0.00     0.007 C 
ENDBRANCH  26  27
ENDBRANCH  25  26
ENDBRANCH  20  25
ENDBRANCH   1  17
BRANCH  15  29
HETATM   29  O   UNL     1      44.586 -22.069   2.992  1.00  0.00    -0.356 OA
HETATM   30  C   UNL     1      44.675 -22.726   4.251  1.00  0.00     0.210 C 
ENDBRANCH  15  29
TORSDOF 6
ENDMDL
MODEL 9
REMARK VINA RESULT:      -6.8      2.820      8.411
REMARK  6 active torsions:
REMARK  status: ('A' for Active; 'I' for Inactive)
REMARK    1  A    between atoms: C_2  and  C_3 
REMARK    2  A    between atoms: C_3  and  O_4 
REMARK    3  A    between atoms: O_4  and  C_5 
REMARK    4  A    between atoms: C_6  and  O_7 
REMARK    5  A    between atoms: C_10  and  C_11 
REMARK    6  A    between atoms: C_25  and  O_26 
ROOT
HETATM    1  C   UNL     1      40.193 -15.800   1.045  1.00  0.00     0.269 C 
HETATM    2  N   UNL     1      39.114 -15.309   1.979  1.00  0.00    -0.061 N 
HETATM    3  H   UNL     1      39.570 -14.777   2.728  1.00  0.00     0.278 HD
HETATM    4  H   UNL     1      38.677 -16.122   2.426  1.00  0.00     0.278 HD
HETATM    5  C   UNL     1      38.076 -14.435   1.317  1.00  0.00     0.238 C 
HETATM    6  C   UNL     1      38.713 -13.142   0.772  1.00  0.00     0.069 C 
HETATM    7  C   UNL     1      39.975 -13.453   0.041  1.00  0.00    -0.019 A 
HETATM    8  C   UNL     1      40.633 -14.660   0.192  1.00  0.00     0.052 A 
HETATM    9  N   UNL     1      41.743 -14.642  -0.614  1.00  0.00    -0.356 N 
HETATM   10  H   UNL     1      42.428 -15.382  -0.718  1.00  0.00     0.166 HD
HETATM   11  C   UNL     1      41.822 -13.429  -1.263  1.00  0.00     0.043 A 
HETATM   12  C   UNL     1      40.723 -12.664  -0.870  1.00  0.00     0.002 A 
HETATM   13  C   UNL     1      42.781 -12.955  -2.166  1.00  0.00     0.033 A 
HETATM   14  C   UNL     1      42.612 -11.664  -2.682  1.00  0.00     0.039 A 
HETATM   15  C   UNL     1      41.525 -10.874  -2.310  1.00  0.00     0.069 A 
HETATM   16  C   UNL     1      40.577 -11.369  -1.404  1.00  0.00     0.051 A 
ENDROOT
BRANCH   1  17
HETATM   17  C   UNL     1      41.312 -16.452   1.831  1.00  0.00    -0.019 A 
HETATM   18  C   UNL     1      41.853 -15.839   2.978  1.00  0.00     0.049 A 
HETATM   19  C   UNL     1      42.873 -16.458   3.710  1.00  0.00     0.102 A 
HETATM   20  C   UNL     1      43.361 -17.713   3.306  1.00  0.00     0.102 A 
HETATM   21  C   UNL     1      42.826 -18.326   2.170  1.00  0.00     0.040 A 
HETATM   22  C   UNL     1      41.811 -17.701   1.439  1.00  0.00     0.012 A 
BRANCH  19  23
HETATM   23  O   UNL     1      43.422 -15.927   4.849  1.00  0.00    -0.353 OA
HETATM   24  C   UNL     1      43.186 -14.552   5.115  1.00  0.00     0.210 C 
ENDBRANCH  19  23
BRANCH  20  25
HETATM   25  O   UNL     1      44.350 -18.254   4.086  1.00  0.00    -0.348 OA
BRANCH  25  26
HETATM   26  C   UNL     1      44.082 -19.484   4.758  1.00  0.00     0.175 C 
BRANCH  26  27
HETATM   27  C   UNL     1      45.107 -20.508   4.280  1.00  0.00     0.022 C 
HETATM   28  C   UNL     1      44.590 -21.320   3.106  1.00  0.00     0.007 C 
ENDBRANCH  26  27
ENDBRANCH  25  26
ENDBRANCH  20  25
ENDBRANCH   1  17
BRANCH  15  29
HETATM   29  O   UNL     1      41.267  -9.604  -2.752  1.00  0.00    -0.356 OA
HETATM   30  C   UNL     1      42.176  -9.050  -3.696  1.00  0.00     0.210 C 
ENDBRANCH  15  29
TORSDOF 6
ENDMDL
MODEL 10
REMARK VINA RESULT:      -6.8      1.836      2.656
REMARK  6 active torsions:
REMARK  status: ('A' for Active; 'I' for Inactive)
REMARK    1  A    between atoms: C_2  and  C_3 
REMARK    2  A    between atoms: C_3  and  O_4 
REMARK    3  A    between atoms: O_4  and  C_5 
REMARK    4  A    between atoms: C_6  and  O_7 
REMARK    5  A    between atoms: C_10  and  C_11 
REMARK    6  A    between atoms: C_25  and  O_26 
ROOT
HETATM    1  C   UNL     1      40.702 -14.314   3.441  1.00  0.00     0.269 C 
HETATM    2  N   UNL     1      39.760 -14.542   4.597  1.00  0.00    -0.061 N 
HETATM    3  H   UNL     1      39.010 -15.160   4.269  1.00  0.00     0.278 HD
HETATM    4  H   UNL     1      39.315 -13.649   4.835  1.00  0.00     0.278 HD
HETATM    5  C   UNL     1      40.412 -15.161   5.811  1.00  0.00     0.238 C 
HETATM    6  C   UNL     1      40.952 -16.567   5.488  1.00  0.00     0.069 C 
HETATM    7  C   UNL     1      41.691 -16.554   4.193  1.00  0.00    -0.019 A 
HETATM    8  C   UNL     1      41.551 -15.528   3.276  1.00  0.00     0.052 A 
HETATM    9  N   UNL     1      42.363 -15.802   2.205  1.00  0.00    -0.356 N 
HETATM   10  H   UNL     1      42.475 -15.237   1.371  1.00  0.00     0.166 HD
HETATM   11  C   UNL     1      43.005 -17.004   2.408  1.00  0.00     0.043 A 
HETATM   12  C   UNL     1      42.601 -17.497   3.649  1.00  0.00     0.002 A 
HETATM   13  C   UNL     1      43.909 -17.687   1.588  1.00  0.00     0.033 A 
HETATM   14  C   UNL     1      44.417 -18.909   2.049  1.00  0.00     0.039 A 
HETATM   15  C   UNL     1      44.035 -19.429   3.284  1.00  0.00     0.069 A 
HETATM   16  C   UNL     1      43.127 -18.727   4.089  1.00  0.00     0.051 A 
ENDROOT
BRANCH   1  17
HETATM   17  C   UNL     1      39.926 -13.930   2.198  1.00  0.00    -0.019 A 
HETATM   18  C   UNL     1      40.302 -12.823   1.414  1.00  0.00     0.049 A 
HETATM   19  C   UNL     1      39.592 -12.487   0.256  1.00  0.00     0.102 A 
HETATM   20  C   UNL     1      38.492 -13.269  -0.142  1.00  0.00     0.102 A 
HETATM   21  C   UNL     1      38.117 -14.370   0.632  1.00  0.00     0.040 A 
HETATM   22  C   UNL     1      38.826 -14.698   1.791  1.00  0.00     0.012 A 
BRANCH  19  23
HETATM   23  O   UNL     1      39.923 -11.439  -0.565  1.00  0.00    -0.353 OA
HETATM   24  C   UNL     1      41.299 -11.243  -0.858  1.00  0.00     0.210 C 
ENDBRANCH  19  23
BRANCH  20  25
HETATM   25  O   UNL     1      37.862 -12.879  -1.294  1.00  0.00    -0.348 OA
BRANCH  25  26
HETATM   26  C   UNL     1      38.385 -13.341  -2.539  1.00  0.00     0.175 C 
BRANCH  26  27
HETATM   27  C   UNL     1      37.499 -14.483  -3.023  1.00  0.00     0.022 C 
HETATM   28  C   UNL     1      38.285 -15.513  -3.814  1.00  0.00     0.007 C 
ENDBRANCH  26  27
ENDBRANCH  25  26
ENDBRANCH  20  25
ENDBRANCH   1  17
BRANCH  15  29
HETATM   29  O   UNL     1      44.468 -20.609   3.828  1.00  0.00    -0.356 OA
HETATM   30  C   UNL     1      44.622 -20.651   5.242  1.00  0.00     0.210 C 
ENDBRANCH  15  29
TORSDOF 6
ENDMDL
