MODEL 1
REMARK VINA RESULT:      -8.3      0.000      0.000
REMARK  4 active torsions:
REMARK  status: ('A' for Active; 'I' for Inactive)
REMARK    1  A    between atoms: C_5  and  C_6 
REMARK    2  A    between atoms: C_10  and  N_11 
REMARK       I    between atoms: N_11  and  C_12 
REMARK    3  A    between atoms: C_12  and  C_13 
REMARK    4  A    between atoms: C_13  and  O_14 
ROOT
HETATM    1  C   UNL     1      42.519 -17.626   2.045  1.00  0.00     0.070 A 
HETATM    2  N   UNL     1      41.221 -17.227   2.249  1.00  0.00    -0.275 N 
HETATM    3  H   UNL     1      40.655 -17.377   3.079  1.00  0.00     0.189 HD
HETATM    4  N   UNL     1      40.673 -16.571   1.213  1.00  0.00    -0.156 NA
HETATM    5  C   UNL     1      41.629 -16.581   0.283  1.00  0.00     0.152 A 
HETATM    6  C   UNL     1      42.799 -17.212   0.756  1.00  0.00     0.084 A 
ENDROOT
BRANCH   5   7
HETATM    7  N   UNL     1      41.373 -16.012  -0.936  1.00  0.00    -0.308 N 
HETATM    8  C   UNL     1      41.477 -14.672  -1.243  1.00  0.00     0.258 C 
HETATM    9  O   UNL     1      41.806 -13.785  -0.463  1.00  0.00    -0.270 OA
HETATM   10  H   UNL     1      41.213 -16.673  -1.688  1.00  0.00     0.170 HD
BRANCH   8  11
HETATM   11  C   UNL     1      41.100 -14.384  -2.722  1.00  0.00     0.140 C 
HETATM   12  C   UNL     1      39.712 -14.962  -3.038  1.00  0.00     0.058 C 
HETATM   13  C   UNL     1      38.565 -14.213  -2.375  1.00  0.00     0.077 C 
HETATM   14  S   UNL     1      38.490 -12.497  -2.952  1.00  0.00    -0.169 SA
HETATM   15  C   UNL     1      40.162 -11.982  -2.482  1.00  0.00     0.077 C 
HETATM   16  C   UNL     1      41.228 -12.895  -3.076  1.00  0.00     0.058 C 
BRANCH  11  17
HETATM   17  O   UNL     1      42.038 -15.114  -3.544  1.00  0.00    -0.380 OA
HETATM   18  H   UNL     1      41.896 -14.837  -4.468  1.00  0.00     0.211 HD
ENDBRANCH  11  17
ENDBRANCH   8  11
ENDBRANCH   5   7
BRANCH   1  19
HETATM   19  C   UNL     1      43.319 -18.341   3.044  1.00  0.00     0.069 A 
HETATM   20  C   UNL     1      43.737 -19.664   2.839  1.00  0.00     0.132 A 
HETATM   21  C   UNL     1      44.515 -20.348   3.774  1.00  0.00     0.043 A 
HETATM   22  F   UNL     1      43.391 -20.315   1.715  1.00  0.00    -0.205 F 
HETATM   23  C   UNL     1      44.891 -19.719   4.957  1.00  0.00     0.006 A 
HETATM   24  C   UNL     1      44.484 -18.409   5.194  1.00  0.00     0.043 A 
HETATM   25  C   UNL     1      43.710 -17.734   4.245  1.00  0.00     0.132 A 
HETATM   26  F   UNL     1      43.335 -16.479   4.533  1.00  0.00    -0.205 F 
ENDBRANCH   1  19
TORSDOF 4
ENDMDL
MODEL 2
REMARK VINA RESULT:      -8.2      0.035      1.723
REMARK  4 active torsions:
REMARK  status: ('A' for Active; 'I' for Inactive)
REMARK    1  A    between atoms: C_5  and  C_6 
REMARK    2  A    between atoms: C_10  and  N_11 
REMARK       I    between atoms: N_11  and  C_12 
REMARK    3  A    between atoms: C_12  and  C_13 
REMARK    4  A    between atoms: C_13  and  O_14 
ROOT
HETATM    1  C   UNL     1      42.531 -17.631   2.049  1.00  0.00     0.070 A 
HETATM    2  N   UNL     1      41.233 -17.236   2.262  1.00  0.00    -0.275 N 
HETATM    3  H   UNL     1      40.673 -17.389   3.095  1.00  0.00     0.189 HD
HETATM    4  N   UNL     1      40.678 -16.578   1.230  1.00  0.00    -0.156 NA
HETATM    5  C   UNL     1      41.629 -16.583   0.295  1.00  0.00     0.152 A 
HETATM    6  C   UNL     1      42.803 -17.212   0.760  1.00  0.00     0.084 A 
ENDROOT
BRANCH   5   7
HETATM    7  N   UNL     1      41.364 -16.011  -0.921  1.00  0.00    -0.308 N 
HETATM    8  C   UNL     1      41.467 -14.671  -1.225  1.00  0.00     0.258 C 
HETATM    9  O   UNL     1      41.802 -13.785  -0.445  1.00  0.00    -0.270 OA
HETATM   10  H   UNL     1      41.200 -16.670  -1.673  1.00  0.00     0.170 HD
BRANCH   8  11
HETATM   11  C   UNL     1      41.079 -14.379  -2.701  1.00  0.00     0.140 C 
HETATM   12  C   UNL     1      39.680 -14.934  -3.002  1.00  0.00     0.058 C 
HETATM   13  C   UNL     1      38.552 -14.165  -2.329  1.00  0.00     0.077 C 
HETATM   14  S   UNL     1      38.499 -12.449  -2.908  1.00  0.00    -0.169 SA
HETATM   15  C   UNL     1      40.184 -11.961  -2.456  1.00  0.00     0.077 C 
HETATM   16  C   UNL     1      41.229 -12.893  -3.058  1.00  0.00     0.058 C 
BRANCH  11  17
HETATM   17  O   UNL     1      41.997 -15.126  -3.531  1.00  0.00    -0.380 OA
HETATM   18  H   UNL     1      42.893 -14.997  -3.168  1.00  0.00     0.211 HD
ENDBRANCH  11  17
ENDBRANCH   8  11
ENDBRANCH   5   7
BRANCH   1  19
HETATM   19  C   UNL     1      43.339 -18.347   3.041  1.00  0.00     0.069 A 
HETATM   20  C   UNL     1      43.727 -17.742   4.245  1.00  0.00     0.132 A 
HETATM   21  C   UNL     1      44.480 -18.419   5.205  1.00  0.00     0.043 A 
HETATM   22  F   UNL     1      43.376 -16.471   4.506  1.00  0.00    -0.205 F 
HETATM   23  C   UNL     1      44.875 -19.734   4.977  1.00  0.00     0.006 A 
HETATM   24  C   UNL     1      44.514 -20.359   3.786  1.00  0.00     0.043 A 
HETATM   25  C   UNL     1      43.754 -19.670   2.836  1.00  0.00     0.132 A 
HETATM   26  F   UNL     1      43.447 -20.318   1.703  1.00  0.00    -0.205 F 
ENDBRANCH   1  19
TORSDOF 4
ENDMDL
MODEL 3
REMARK VINA RESULT:      -8.0      1.066      1.282
REMARK  4 active torsions:
REMARK  status: ('A' for Active; 'I' for Inactive)
REMARK    1  A    between atoms: C_5  and  C_6 
REMARK    2  A    between atoms: C_10  and  N_11 
REMARK       I    between atoms: N_11  and  C_12 
REMARK    3  A    between atoms: C_12  and  C_13 
REMARK    4  A    between atoms: C_13  and  O_14 
ROOT
HETATM    1  C   UNL     1      42.897 -18.133   2.082  1.00  0.00     0.070 A 
HETATM    2  N   UNL     1      41.568 -17.822   2.240  1.00  0.00    -0.275 N 
HETATM    3  H   UNL     1      40.942 -18.152   2.968  1.00  0.00     0.189 HD
HETATM    4  N   UNL     1      41.080 -16.987   1.308  1.00  0.00    -0.156 NA
HETATM    5  C   UNL     1      42.111 -16.781   0.487  1.00  0.00     0.152 A 
HETATM    6  C   UNL     1      43.265 -17.459   0.932  1.00  0.00     0.084 A 
ENDROOT
BRANCH   5   7
HETATM    7  N   UNL     1      41.932 -15.986  -0.614  1.00  0.00    -0.308 N 
HETATM    8  C   UNL     1      41.337 -14.743  -0.627  1.00  0.00     0.258 C 
HETATM    9  O   UNL     1      40.868 -14.166   0.349  1.00  0.00    -0.270 OA
HETATM   10  H   UNL     1      42.395 -16.313  -1.454  1.00  0.00     0.170 HD
BRANCH   8  11
HETATM   11  C   UNL     1      41.297 -14.133  -2.055  1.00  0.00     0.140 C 
HETATM   12  C   UNL     1      41.280 -15.250  -3.108  1.00  0.00     0.058 C 
HETATM   13  C   UNL     1      39.970 -16.023  -3.169  1.00  0.00     0.077 C 
HETATM   14  S   UNL     1      38.596 -14.937  -3.631  1.00  0.00    -0.169 SA
HETATM   15  C   UNL     1      38.751 -13.726  -2.293  1.00  0.00     0.077 C 
HETATM   16  C   UNL     1      40.150 -13.126  -2.225  1.00  0.00     0.058 C 
BRANCH  11  17
HETATM   17  O   UNL     1      42.540 -13.420  -2.242  1.00  0.00    -0.380 OA
HETATM   18  H   UNL     1      42.700 -12.893  -1.437  1.00  0.00     0.211 HD
ENDBRANCH  11  17
ENDBRANCH   8  11
ENDBRANCH   5   7
BRANCH   1  19
HETATM   19  C   UNL     1      43.643 -19.011   2.989  1.00  0.00     0.069 A 
HETATM   20  C   UNL     1      43.971 -20.327   2.631  1.00  0.00     0.132 A 
HETATM   21  C   UNL     1      44.697 -21.165   3.479  1.00  0.00     0.043 A 
HETATM   22  F   UNL     1      43.587 -20.819   1.442  1.00  0.00    -0.205 F 
HETATM   23  C   UNL     1      45.110 -20.703   4.725  1.00  0.00     0.006 A 
HETATM   24  C   UNL     1      44.790 -19.405   5.113  1.00  0.00     0.043 A 
HETATM   25  C   UNL     1      44.068 -18.574   4.251  1.00  0.00     0.132 A 
HETATM   26  F   UNL     1      43.777 -17.338   4.683  1.00  0.00    -0.205 F 
ENDBRANCH   1  19
TORSDOF 4
ENDMDL
MODEL 4
REMARK VINA RESULT:      -7.8      3.968      4.939
REMARK  4 active torsions:
REMARK  status: ('A' for Active; 'I' for Inactive)
REMARK    1  A    between atoms: C_5  and  C_6 
REMARK    2  A    between atoms: C_10  and  N_11 
REMARK       I    between atoms: N_11  and  C_12 
REMARK    3  A    between atoms: C_12  and  C_13 
REMARK    4  A    between atoms: C_13  and  O_14 
ROOT
HETATM    1  C   UNL     1      43.882 -18.642   2.917  1.00  0.00     0.070 A 
HETATM    2  N   UNL     1      44.440 -18.055   1.808  1.00  0.00    -0.275 N 
HETATM    3  H   UNL     1      45.138 -18.454   1.188  1.00  0.00     0.189 HD
HETATM    4  N   UNL     1      43.989 -16.817   1.549  1.00  0.00    -0.156 NA
HETATM    5  C   UNL     1      43.140 -16.568   2.547  1.00  0.00     0.152 A 
HETATM    6  C   UNL     1      43.028 -17.675   3.415  1.00  0.00     0.084 A 
ENDROOT
BRANCH   5   7
HETATM    7  N   UNL     1      42.521 -15.347   2.601  1.00  0.00    -0.308 N 
HETATM    8  C   UNL     1      42.915 -14.273   3.370  1.00  0.00     0.258 C 
HETATM    9  O   UNL     1      43.876 -14.256   4.133  1.00  0.00    -0.270 OA
HETATM   10  H   UNL     1      41.788 -15.212   1.914  1.00  0.00     0.170 HD
BRANCH   8  11
HETATM   11  C   UNL     1      41.973 -13.052   3.187  1.00  0.00     0.140 C 
HETATM   12  C   UNL     1      40.553 -13.523   2.844  1.00  0.00     0.058 C 
HETATM   13  C   UNL     1      39.823 -14.183   4.005  1.00  0.00     0.077 C 
HETATM   14  S   UNL     1      39.601 -13.022   5.377  1.00  0.00    -0.169 SA
HETATM   15  C   UNL     1      41.341 -12.603   5.658  1.00  0.00     0.077 C 
HETATM   16  C   UNL     1      42.018 -12.098   4.390  1.00  0.00     0.058 C 
BRANCH  11  17
HETATM   17  O   UNL     1      42.448 -12.325   2.031  1.00  0.00    -0.380 OA
HETATM   18  H   UNL     1      43.208 -11.785   2.316  1.00  0.00     0.211 HD
ENDBRANCH  11  17
ENDBRANCH   8  11
ENDBRANCH   5   7
BRANCH   1  19
HETATM   19  C   UNL     1      44.211 -19.994   3.378  1.00  0.00     0.069 A 
HETATM   20  C   UNL     1      44.624 -20.239   4.696  1.00  0.00     0.132 A 
HETATM   21  C   UNL     1      44.922 -21.524   5.152  1.00  0.00     0.043 A 
HETATM   22  F   UNL     1      44.742 -19.223   5.566  1.00  0.00    -0.205 F 
HETATM   23  C   UNL     1      44.821 -22.609   4.285  1.00  0.00     0.006 A 
HETATM   24  C   UNL     1      44.424 -22.396   2.968  1.00  0.00     0.043 A 
HETATM   25  C   UNL     1      44.123 -21.104   2.527  1.00  0.00     0.132 A 
HETATM   26  F   UNL     1      43.759 -20.957   1.245  1.00  0.00    -0.205 F 
ENDBRANCH   1  19
TORSDOF 4
ENDMDL
MODEL 5
REMARK VINA RESULT:      -7.7      2.265      3.485
REMARK  4 active torsions:
REMARK  status: ('A' for Active; 'I' for Inactive)
REMARK    1  A    between atoms: C_5  and  C_6 
REMARK    2  A    between atoms: C_10  and  N_11 
REMARK       I    between atoms: N_11  and  C_12 
REMARK    3  A    between atoms: C_12  and  C_13 
REMARK    4  A    between atoms: C_13  and  O_14 
ROOT
HETATM    1  C   UNL     1      43.640 -19.047   2.411  1.00  0.00     0.070 A 
HETATM    2  N   UNL     1      44.485 -18.243   1.686  1.00  0.00    -0.275 N 
HETATM    3  H   UNL     1      45.492 -18.334   1.595  1.00  0.00     0.189 HD
HETATM    4  N   UNL     1      43.873 -17.235   1.043  1.00  0.00    -0.156 NA
HETATM    5  C   UNL     1      42.592 -17.357   1.394  1.00  0.00     0.152 A 
HETATM    6  C   UNL     1      42.394 -18.475   2.231  1.00  0.00     0.084 A 
ENDROOT
BRANCH   5   7
HETATM    7  N   UNL     1      41.688 -16.441   0.927  1.00  0.00    -0.308 N 
HETATM    8  C   UNL     1      41.398 -15.223   1.502  1.00  0.00     0.258 C 
HETATM    9  O   UNL     1      41.903 -14.781   2.529  1.00  0.00    -0.270 OA
HETATM   10  H   UNL     1      41.304 -16.651   0.012  1.00  0.00     0.170 HD
BRANCH   8  11
HETATM   11  C   UNL     1      40.314 -14.447   0.706  1.00  0.00     0.140 C 
HETATM   12  C   UNL     1      40.190 -13.011   1.237  1.00  0.00     0.058 C 
HETATM   13  C   UNL     1      41.379 -12.123   0.899  1.00  0.00     0.077 C 
HETATM   14  S   UNL     1      41.560 -11.935  -0.894  1.00  0.00    -0.169 SA
HETATM   15  C   UNL     1      41.717 -13.685  -1.332  1.00  0.00     0.077 C 
HETATM   16  C   UNL     1      40.548 -14.511  -0.811  1.00  0.00     0.058 C 
BRANCH  11  17
HETATM   17  O   UNL     1      39.049 -15.090   0.984  1.00  0.00    -0.380 OA
HETATM   18  H   UNL     1      38.555 -15.140   0.145  1.00  0.00     0.211 HD
ENDBRANCH  11  17
ENDBRANCH   8  11
ENDBRANCH   5   7
BRANCH   1  19
HETATM   19  C   UNL     1      44.083 -20.216   3.178  1.00  0.00     0.069 A 
HETATM   20  C   UNL     1      44.390 -20.123   4.543  1.00  0.00     0.132 A 
HETATM   21  C   UNL     1      44.796 -21.232   5.287  1.00  0.00     0.043 A 
HETATM   22  F   UNL     1      44.298 -18.943   5.177  1.00  0.00    -0.205 F 
HETATM   23  C   UNL     1      44.914 -22.475   4.672  1.00  0.00     0.006 A 
HETATM   24  C   UNL     1      44.626 -22.597   3.315  1.00  0.00     0.043 A 
HETATM   25  C   UNL     1      44.215 -21.478   2.584  1.00  0.00     0.132 A 
HETATM   26  F   UNL     1      43.965 -21.652   1.278  1.00  0.00    -0.205 F 
ENDBRANCH   1  19
TORSDOF 4
ENDMDL
MODEL 6
REMARK VINA RESULT:      -7.5      1.479      2.541
REMARK  4 active torsions:
REMARK  status: ('A' for Active; 'I' for Inactive)
REMARK    1  A    between atoms: C_5  and  C_6 
REMARK    2  A    between atoms: C_10  and  N_11 
REMARK       I    between atoms: N_11  and  C_12 
REMARK    3  A    between atoms: C_12  and  C_13 
REMARK    4  A    between atoms: C_13  and  O_14 
ROOT
HETATM    1  C   UNL     1      42.016 -17.333   2.595  1.00  0.00     0.070 A 
HETATM    2  N   UNL     1      40.762 -17.008   3.052  1.00  0.00    -0.275 N 
HETATM    3  H   UNL     1      40.361 -17.232   3.958  1.00  0.00     0.189 HD
HETATM    4  N   UNL     1      40.013 -16.320   2.175  1.00  0.00    -0.156 NA
HETATM    5  C   UNL     1      40.786 -16.230   1.092  1.00  0.00     0.152 A 
HETATM    6  C   UNL     1      42.044 -16.831   1.307  1.00  0.00     0.084 A 
ENDROOT
BRANCH   5   7
HETATM    7  N   UNL     1      40.293 -15.604  -0.022  1.00  0.00    -0.308 N 
HETATM    8  C   UNL     1      40.192 -14.242  -0.208  1.00  0.00     0.258 C 
HETATM    9  O   UNL     1      40.519 -13.384   0.605  1.00  0.00    -0.270 OA
HETATM   10  H   UNL     1      40.109 -16.218  -0.808  1.00  0.00     0.170 HD
BRANCH   8  11
HETATM   11  C   UNL     1      39.577 -13.888  -1.590  1.00  0.00     0.140 C 
HETATM   12  C   UNL     1      39.561 -12.366  -1.790  1.00  0.00     0.058 C 
HETATM   13  C   UNL     1      40.938 -11.756  -2.007  1.00  0.00     0.077 C 
HETATM   14  S   UNL     1      41.707 -12.408  -3.512  1.00  0.00    -0.169 SA
HETATM   15  C   UNL     1      41.667 -14.170  -3.092  1.00  0.00     0.077 C 
HETATM   16  C   UNL     1      40.261 -14.641  -2.741  1.00  0.00     0.058 C 
BRANCH  11  17
HETATM   17  O   UNL     1      38.193 -14.305  -1.553  1.00  0.00    -0.380 OA
HETATM   18  H   UNL     1      37.658 -13.526  -1.314  1.00  0.00     0.211 HD
ENDBRANCH  11  17
ENDBRANCH   8  11
ENDBRANCH   5   7
BRANCH   1  19
HETATM   19  C   UNL     1      43.009 -18.066   3.387  1.00  0.00     0.069 A 
HETATM   20  C   UNL     1      43.551 -17.527   4.562  1.00  0.00     0.132 A 
HETATM   21  C   UNL     1      44.483 -18.223   5.334  1.00  0.00     0.043 A 
HETATM   22  F   UNL     1      43.178 -16.306   4.980  1.00  0.00    -0.205 F 
HETATM   23  C   UNL     1      44.906 -19.488   4.938  1.00  0.00     0.006 A 
HETATM   24  C   UNL     1      44.393 -20.045   3.769  1.00  0.00     0.043 A 
HETATM   25  C   UNL     1      43.456 -19.339   3.010  1.00  0.00     0.132 A 
HETATM   26  F   UNL     1      43.007 -19.919   1.887  1.00  0.00    -0.205 F 
ENDBRANCH   1  19
TORSDOF 4
ENDMDL
MODEL 7
REMARK VINA RESULT:      -7.4      2.125      2.701
REMARK  4 active torsions:
REMARK  status: ('A' for Active; 'I' for Inactive)
REMARK    1  A    between atoms: C_5  and  C_6 
REMARK    2  A    between atoms: C_10  and  N_11 
REMARK       I    between atoms: N_11  and  C_12 
REMARK    3  A    between atoms: C_12  and  C_13 
REMARK    4  A    between atoms: C_13  and  O_14 
ROOT
HETATM    1  C   UNL     1      42.591 -17.389   2.209  1.00  0.00     0.070 A 
HETATM    2  N   UNL     1      43.107 -16.676   1.154  1.00  0.00    -0.275 N 
HETATM    3  H   UNL     1      44.074 -16.649   0.845  1.00  0.00     0.189 HD
HETATM    4  N   UNL     1      42.201 -15.946   0.483  1.00  0.00    -0.156 NA
HETATM    5  C   UNL     1      41.064 -16.152   1.147  1.00  0.00     0.152 A 
HETATM    6  C   UNL     1      41.250 -17.050   2.218  1.00  0.00     0.084 A 
ENDROOT
BRANCH   5   7
HETATM    7  N   UNL     1      39.929 -15.507   0.733  1.00  0.00    -0.308 N 
HETATM    8  C   UNL     1      39.488 -14.278   1.176  1.00  0.00     0.258 C 
HETATM    9  O   UNL     1      40.043 -13.582   2.020  1.00  0.00    -0.270 OA
HETATM   10  H   UNL     1      39.459 -15.937  -0.056  1.00  0.00     0.170 HD
BRANCH   8  11
HETATM   11  C   UNL     1      38.157 -13.858   0.495  1.00  0.00     0.140 C 
HETATM   12  C   UNL     1      37.674 -12.513   1.056  1.00  0.00     0.058 C 
HETATM   13  C   UNL     1      38.520 -11.324   0.624  1.00  0.00     0.077 C 
HETATM   14  S   UNL     1      38.474 -11.113  -1.175  1.00  0.00    -0.169 SA
HETATM   15  C   UNL     1      39.087 -12.749  -1.652  1.00  0.00     0.077 C 
HETATM   16  C   UNL     1      38.259 -13.871  -1.038  1.00  0.00     0.058 C 
BRANCH  11  17
HETATM   17  O   UNL     1      37.163 -14.835   0.878  1.00  0.00    -0.380 OA
HETATM   18  H   UNL     1      37.049 -14.775   1.844  1.00  0.00     0.211 HD
ENDBRANCH  11  17
ENDBRANCH   8  11
ENDBRANCH   5   7
BRANCH   1  19
HETATM   19  C   UNL     1      43.390 -18.266   3.069  1.00  0.00     0.069 A 
HETATM   20  C   UNL     1      43.811 -19.532   2.636  1.00  0.00     0.132 A 
HETATM   21  C   UNL     1      44.588 -20.369   3.439  1.00  0.00     0.043 A 
HETATM   22  F   UNL     1      43.471 -19.975   1.414  1.00  0.00    -0.205 F 
HETATM   23  C   UNL     1      44.959 -19.957   4.716  1.00  0.00     0.006 A 
HETATM   24  C   UNL     1      44.547 -18.710   5.178  1.00  0.00     0.043 A 
HETATM   25  C   UNL     1      43.774 -17.880   4.360  1.00  0.00     0.132 A 
HETATM   26  F   UNL     1      43.395 -16.696   4.863  1.00  0.00    -0.205 F 
ENDBRANCH   1  19
TORSDOF 4
ENDMDL
MODEL 8
REMARK VINA RESULT:      -7.3      2.149      3.351
REMARK  4 active torsions:
REMARK  status: ('A' for Active; 'I' for Inactive)
REMARK    1  A    between atoms: C_5  and  C_6 
REMARK    2  A    between atoms: C_10  and  N_11 
REMARK       I    between atoms: N_11  and  C_12 
REMARK    3  A    between atoms: C_12  and  C_13 
REMARK    4  A    between atoms: C_13  and  O_14 
ROOT
HETATM    1  C   UNL     1      43.440 -18.498   2.954  1.00  0.00     0.070 A 
HETATM    2  N   UNL     1      44.244 -17.391   2.833  1.00  0.00    -0.275 N 
HETATM    3  H   UNL     1      45.237 -17.328   3.035  1.00  0.00     0.189 HD
HETATM    4  N   UNL     1      43.610 -16.291   2.397  1.00  0.00    -0.156 NA
HETATM    5  C   UNL     1      42.340 -16.678   2.271  1.00  0.00     0.152 A 
HETATM    6  C   UNL     1      42.186 -18.043   2.592  1.00  0.00     0.084 A 
ENDROOT
BRANCH   5   7
HETATM    7  N   UNL     1      41.405 -15.761   1.871  1.00  0.00    -0.308 N 
HETATM    8  C   UNL     1      40.952 -15.575   0.583  1.00  0.00     0.258 C 
HETATM    9  O   UNL     1      41.330 -16.200  -0.403  1.00  0.00    -0.270 OA
HETATM   10  H   UNL     1      40.934 -15.276   2.627  1.00  0.00     0.170 HD
BRANCH   8  11
HETATM   11  C   UNL     1      39.895 -14.440   0.496  1.00  0.00     0.140 C 
HETATM   12  C   UNL     1      40.311 -13.259   1.385  1.00  0.00     0.058 C 
HETATM   13  C   UNL     1      41.507 -12.479   0.857  1.00  0.00     0.077 C 
HETATM   14  S   UNL     1      41.137 -11.733  -0.752  1.00  0.00    -0.169 SA
HETATM   15  C   UNL     1      40.703 -13.243  -1.654  1.00  0.00     0.077 C 
HETATM   16  C   UNL     1      39.601 -14.029  -0.954  1.00  0.00     0.058 C 
BRANCH  11  17
HETATM   17  O   UNL     1      38.672 -14.961   1.063  1.00  0.00    -0.380 OA
HETATM   18  H   UNL     1      38.440 -14.400   1.827  1.00  0.00     0.211 HD
ENDBRANCH  11  17
ENDBRANCH   8  11
ENDBRANCH   5   7
BRANCH   1  19
HETATM   19  C   UNL     1      43.920 -19.811   3.396  1.00  0.00     0.069 A 
HETATM   20  C   UNL     1      44.283 -20.049   4.729  1.00  0.00     0.132 A 
HETATM   21  C   UNL     1      44.724 -21.299   5.165  1.00  0.00     0.043 A 
HETATM   22  F   UNL     1      44.212 -19.059   5.635  1.00  0.00    -0.205 F 
HETATM   23  C   UNL     1      44.822 -22.354   4.262  1.00  0.00     0.006 A 
HETATM   24  C   UNL     1      44.478 -22.146   2.929  1.00  0.00     0.043 A 
HETATM   25  C   UNL     1      44.033 -20.890   2.508  1.00  0.00     0.132 A 
HETATM   26  F   UNL     1      43.729 -20.744   1.210  1.00  0.00    -0.205 F 
ENDBRANCH   1  19
TORSDOF 4
ENDMDL
MODEL 9
REMARK VINA RESULT:      -7.2      2.317      3.161
REMARK  4 active torsions:
REMARK  status: ('A' for Active; 'I' for Inactive)
REMARK    1  A    between atoms: C_5  and  C_6 
REMARK    2  A    between atoms: C_10  and  N_11 
REMARK       I    between atoms: N_11  and  C_12 
REMARK    3  A    between atoms: C_12  and  C_13 
REMARK    4  A    between atoms: C_13  and  O_14 
ROOT
HETATM    1  C   UNL     1      43.311 -18.546   3.185  1.00  0.00     0.070 A 
HETATM    2  N   UNL     1      44.068 -17.403   3.101  1.00  0.00    -0.275 N 
HETATM    3  H   UNL     1      45.061 -17.308   3.292  1.00  0.00     0.189 HD
HETATM    4  N   UNL     1      43.383 -16.311   2.723  1.00  0.00    -0.156 NA
HETATM    5  C   UNL     1      42.128 -16.745   2.599  1.00  0.00     0.152 A 
HETATM    6  C   UNL     1      42.034 -18.128   2.861  1.00  0.00     0.084 A 
ENDROOT
BRANCH   5   7
HETATM    7  N   UNL     1      41.149 -15.851   2.253  1.00  0.00    -0.308 N 
HETATM    8  C   UNL     1      40.758 -15.535   0.970  1.00  0.00     0.258 C 
HETATM    9  O   UNL     1      41.238 -16.001  -0.058  1.00  0.00    -0.270 OA
HETATM   10  H   UNL     1      40.601 -15.500   3.030  1.00  0.00     0.170 HD
BRANCH   8  11
HETATM   11  C   UNL     1      39.625 -14.473   0.953  1.00  0.00     0.140 C 
HETATM   12  C   UNL     1      39.956 -13.328   1.922  1.00  0.00     0.058 C 
HETATM   13  C   UNL     1      41.094 -12.433   1.455  1.00  0.00     0.077 C 
HETATM   14  S   UNL     1      40.675 -11.608  -0.102  1.00  0.00    -0.169 SA
HETATM   15  C   UNL     1      40.350 -13.080  -1.106  1.00  0.00     0.077 C 
HETATM   16  C   UNL     1      39.304 -13.986  -0.468  1.00  0.00     0.058 C 
BRANCH  11  17
HETATM   17  O   UNL     1      38.440 -15.115   1.476  1.00  0.00    -0.380 OA
HETATM   18  H   UNL     1      38.169 -14.625   2.274  1.00  0.00     0.211 HD
ENDBRANCH  11  17
ENDBRANCH   8  11
ENDBRANCH   5   7
BRANCH   1  19
HETATM   19  C   UNL     1      43.852 -19.856   3.561  1.00  0.00     0.069 A 
HETATM   20  C   UNL     1      43.965 -20.897   2.628  1.00  0.00     0.132 A 
HETATM   21  C   UNL     1      44.495 -22.143   2.969  1.00  0.00     0.043 A 
HETATM   22  F   UNL     1      43.559 -20.716   1.360  1.00  0.00    -0.205 F 
HETATM   23  C   UNL     1      44.922 -22.382   4.272  1.00  0.00     0.006 A 
HETATM   24  C   UNL     1      44.813 -21.371   5.223  1.00  0.00     0.043 A 
HETATM   25  C   UNL     1      44.286 -20.126   4.865  1.00  0.00     0.132 A 
HETATM   26  F   UNL     1      44.192 -19.195   5.826  1.00  0.00    -0.205 F 
ENDBRANCH   1  19
TORSDOF 4
ENDMDL
MODEL 10
REMARK VINA RESULT:      -7.1      1.855      2.210
REMARK  4 active torsions:
REMARK  status: ('A' for Active; 'I' for Inactive)
REMARK    1  A    between atoms: C_5  and  C_6 
REMARK    2  A    between atoms: C_10  and  N_11 
REMARK       I    between atoms: N_11  and  C_12 
REMARK    3  A    between atoms: C_12  and  C_13 
REMARK    4  A    between atoms: C_13  and  O_14 
ROOT
HETATM    1  C   UNL     1      42.122 -16.459   1.903  1.00  0.00     0.070 A 
HETATM    2  N   UNL     1      42.395 -15.114   1.861  1.00  0.00    -0.275 N 
HETATM    3  H   UNL     1      42.951 -14.579   2.522  1.00  0.00     0.189 HD
HETATM    4  N   UNL     1      41.848 -14.470   0.818  1.00  0.00    -0.156 NA
HETATM    5  C   UNL     1      41.157 -15.416   0.180  1.00  0.00     0.152 A 
HETATM    6  C   UNL     1      41.307 -16.671   0.807  1.00  0.00     0.084 A 
ENDROOT
BRANCH   5   7
HETATM    7  N   UNL     1      40.436 -15.073  -0.932  1.00  0.00    -0.308 N 
HETATM    8  C   UNL     1      39.332 -14.248  -0.960  1.00  0.00     0.258 C 
HETATM    9  O   UNL     1      38.823 -13.705   0.016  1.00  0.00    -0.270 OA
HETATM   10  H   UNL     1      40.846 -15.367  -1.812  1.00  0.00     0.170 HD
BRANCH   8  11
HETATM   11  C   UNL     1      38.762 -14.088  -2.395  1.00  0.00     0.140 C 
HETATM   12  C   UNL     1      38.041 -12.739  -2.533  1.00  0.00     0.058 C 
HETATM   13  C   UNL     1      38.974 -11.537  -2.538  1.00  0.00     0.077 C 
HETATM   14  S   UNL     1      40.104 -11.599  -3.953  1.00  0.00    -0.169 SA
HETATM   15  C   UNL     1      40.869 -13.206  -3.615  1.00  0.00     0.077 C 
HETATM   16  C   UNL     1      39.831 -14.313  -3.475  1.00  0.00     0.058 C 
BRANCH  11  17
HETATM   17  O   UNL     1      37.749 -15.106  -2.560  1.00  0.00    -0.380 OA
HETATM   18  H   UNL     1      36.889 -14.653  -2.647  1.00  0.00     0.211 HD
ENDBRANCH  11  17
ENDBRANCH   8  11
ENDBRANCH   5   7
BRANCH   1  19
HETATM   19  C   UNL     1      42.628 -17.362   2.941  1.00  0.00     0.069 A 
HETATM   20  C   UNL     1      43.773 -18.146   2.736  1.00  0.00     0.132 A 
HETATM   21  C   UNL     1      44.275 -18.996   3.724  1.00  0.00     0.043 A 
HETATM   22  F   UNL     1      44.425 -18.095   1.563  1.00  0.00    -0.205 F 
HETATM   23  C   UNL     1      43.630 -19.089   4.953  1.00  0.00     0.006 A 
HETATM   24  C   UNL     1      42.485 -18.331   5.183  1.00  0.00     0.043 A 
HETATM   25  C   UNL     1      41.997 -17.480   4.187  1.00  0.00     0.132 A 
HETATM   26  F   UNL     1      40.883 -16.784   4.459  1.00  0.00    -0.205 F 
ENDBRANCH   1  19
TORSDOF 4
ENDMDL
