MODEL 1
REMARK VINA RESULT:      -9.0      0.000      0.000
REMARK  10 active torsions:
REMARK  status: ('A' for Active; 'I' for Inactive)
REMARK    1  A    between atoms: C_2  and  C_3 
REMARK    2  A    between atoms: C_3  and  C_4 
REMARK    3  A    between atoms: C_4  and  O_5 
REMARK    4  A    between atoms: O_5  and  C_6 
REMARK    5  A    between atoms: C_9  and  C_10 
REMARK       I    between atoms: C_10  and  N_11 
REMARK    6  A    between atoms: N_11  and  C_12 
REMARK    7  A    between atoms: C_12  and  N_13 
REMARK    8  A    between atoms: N_13  and  C_14 
REMARK    9  A    between atoms: C_16  and  C_17 
REMARK   10  A    between atoms: C_26  and  O_27 
ROOT
HETATM    1  N   UNL     1      44.345 -14.015   7.943  1.00  0.00    -0.333 N 
HETATM    2  H   UNL     1      44.169 -14.591   8.768  1.00  0.00     0.168 HD
ENDROOT
BRANCH   1   3
HETATM    3  C   UNL     1      45.125 -12.914   8.214  1.00  0.00     0.179 C 
HETATM    4  S   UNL     1      46.654 -12.518   7.665  1.00  0.00    -0.040 SA
BRANCH   3   5
HETATM    5  N   UNL     1      44.560 -11.995   9.081  1.00  0.00    -0.299 N 
HETATM    6  C   UNL     1      44.147 -12.149  10.397  1.00  0.00     0.257 C 
HETATM    7  O   UNL     1      44.443 -13.097  11.113  1.00  0.00    -0.267 OA
HETATM    8  H   UNL     1      44.426 -11.088   8.654  1.00  0.00     0.171 HD
BRANCH   6   9
HETATM    9  C   UNL     1      43.369 -10.998  10.917  1.00  0.00     0.032 A 
HETATM   10  C   UNL     1      42.131 -10.675  10.344  1.00  0.00     0.020 A 
HETATM   11  C   UNL     1      41.433  -9.551  10.788  1.00  0.00     0.038 A 
HETATM   12  C   UNL     1      41.961  -8.764  11.811  1.00  0.00     0.068 A 
HETATM   13  C   UNL     1      43.197  -9.084  12.378  1.00  0.00     0.038 A 
HETATM   14  C   UNL     1      43.896 -10.215  11.946  1.00  0.00     0.020 A 
BRANCH  12  15
HETATM   15  O   UNL     1      41.362  -7.606  12.225  1.00  0.00    -0.351 OA
BRANCH  15  16
HETATM   16  C   UNL     1      41.663  -7.276  13.587  1.00  0.00     0.175 C 
BRANCH  16  17
HETATM   17  C   UNL     1      40.552  -7.817  14.486  1.00  0.00     0.026 C 
BRANCH  17  18
HETATM   18  C   UNL     1      41.109  -8.510  15.733  1.00  0.00    -0.002 C 
HETATM   19  C   UNL     1      41.703  -9.870  15.396  1.00  0.00     0.005 C 
ENDBRANCH  17  18
ENDBRANCH  16  17
ENDBRANCH  15  16
ENDBRANCH  12  15
ENDBRANCH   6   9
ENDBRANCH   3   5
ENDBRANCH   1   3
BRANCH   1  20
HETATM   20  C   UNL     1      43.821 -14.523   6.729  1.00  0.00     0.035 A 
HETATM   21  C   UNL     1      44.090 -15.872   6.428  1.00  0.00     0.046 A 
HETATM   22  C   UNL     1      43.612 -16.485   5.250  1.00  0.00     0.035 A 
HETATM   23  C   UNL     1      42.835 -15.693   4.383  1.00  0.00     0.078 A 
HETATM   24  C   UNL     1      42.537 -14.369   4.682  1.00  0.00     0.040 A 
HETATM   25  C   UNL     1      43.022 -13.791   5.854  1.00  0.00     0.032 A 
BRANCH  22  26
HETATM   26  C   UNL     1      43.892 -17.896   4.896  1.00  0.00     0.112 A 
HETATM   27  S   UNL     1      44.365 -19.081   6.050  1.00  0.00    -0.067 SA
HETATM   28  C   UNL     1      44.436 -20.281   4.820  1.00  0.00     0.035 A 
HETATM   29  C   UNL     1      44.093 -19.697   3.601  1.00  0.00     0.075 A 
HETATM   30  C   UNL     1      44.770 -21.641   4.920  1.00  0.00     0.021 A 
HETATM   31  N   UNL     1      43.785 -18.349   3.658  1.00  0.00    -0.239 NA
HETATM   32  C   UNL     1      44.085 -20.496   2.440  1.00  0.00     0.033 A 
HETATM   33  C   UNL     1      44.416 -21.852   2.528  1.00  0.00     0.002 A 
HETATM   34  C   UNL     1      44.754 -22.415   3.755  1.00  0.00     0.002 A 
ENDBRANCH  22  26
BRANCH  23  35
HETATM   35  O   UNL     1      42.311 -16.158   3.203  1.00  0.00    -0.360 OA
HETATM   36  H   UNL     1      41.359 -16.350   3.355  1.00  0.00     0.217 HD
ENDBRANCH  23  35
ENDBRANCH   1  20
TORSDOF 10
ENDMDL
MODEL 2
REMARK VINA RESULT:      -8.5      2.975      3.683
REMARK  10 active torsions:
REMARK  status: ('A' for Active; 'I' for Inactive)
REMARK    1  A    between atoms: C_2  and  C_3 
REMARK    2  A    between atoms: C_3  and  C_4 
REMARK    3  A    between atoms: C_4  and  O_5 
REMARK    4  A    between atoms: O_5  and  C_6 
REMARK    5  A    between atoms: C_9  and  C_10 
REMARK       I    between atoms: C_10  and  N_11 
REMARK    6  A    between atoms: N_11  and  C_12 
REMARK    7  A    between atoms: C_12  and  N_13 
REMARK    8  A    between atoms: N_13  and  C_14 
REMARK    9  A    between atoms: C_16  and  C_17 
REMARK   10  A    between atoms: C_26  and  O_27 
ROOT
HETATM    1  N   UNL     1      41.816 -11.897   3.970  1.00  0.00    -0.333 N 
HETATM    2  H   UNL     1      42.798 -11.767   3.724  1.00  0.00     0.168 HD
ENDROOT
BRANCH   1   3
HETATM    3  C   UNL     1      41.291 -10.830   4.664  1.00  0.00     0.179 C 
HETATM    4  S   UNL     1      40.591  -9.420   4.098  1.00  0.00    -0.040 SA
BRANCH   3   5
HETATM    5  N   UNL     1      41.358 -10.936   6.042  1.00  0.00    -0.299 N 
HETATM    6  C   UNL     1      40.343 -10.925   6.988  1.00  0.00     0.257 C 
HETATM    7  O   UNL     1      39.153 -11.061   6.732  1.00  0.00    -0.267 OA
HETATM    8  H   UNL     1      42.309 -11.017   6.380  1.00  0.00     0.171 HD
BRANCH   6   9
HETATM    9  C   UNL     1      40.829 -10.820   8.385  1.00  0.00     0.032 A 
HETATM   10  C   UNL     1      42.192 -10.615   8.637  1.00  0.00     0.020 A 
HETATM   11  C   UNL     1      42.658 -10.586   9.953  1.00  0.00     0.038 A 
HETATM   12  C   UNL     1      41.763 -10.744  11.010  1.00  0.00     0.068 A 
HETATM   13  C   UNL     1      40.405 -10.953  10.757  1.00  0.00     0.038 A 
HETATM   14  C   UNL     1      39.930 -10.972   9.443  1.00  0.00     0.020 A 
BRANCH  12  15
HETATM   15  O   UNL     1      42.175 -10.809  12.313  1.00  0.00    -0.351 OA
BRANCH  15  16
HETATM   16  C   UNL     1      43.430 -10.156  12.537  1.00  0.00     0.175 C 
BRANCH  16  17
HETATM   17  C   UNL     1      43.352  -9.363  13.841  1.00  0.00     0.026 C 
BRANCH  17  18
HETATM   18  C   UNL     1      42.350  -9.973  14.825  1.00  0.00    -0.002 C 
HETATM   19  C   UNL     1      42.010  -9.003  15.947  1.00  0.00     0.005 C 
ENDBRANCH  17  18
ENDBRANCH  16  17
ENDBRANCH  15  16
ENDBRANCH  12  15
ENDBRANCH   6   9
ENDBRANCH   3   5
ENDBRANCH   1   3
BRANCH   1  20
HETATM   20  C   UNL     1      41.222 -13.085   3.479  1.00  0.00     0.035 A 
HETATM   21  C   UNL     1      41.971 -14.273   3.597  1.00  0.00     0.046 A 
HETATM   22  C   UNL     1      41.475 -15.516   3.148  1.00  0.00     0.035 A 
HETATM   23  C   UNL     1      40.186 -15.529   2.583  1.00  0.00     0.078 A 
HETATM   24  C   UNL     1      39.424 -14.369   2.487  1.00  0.00     0.040 A 
HETATM   25  C   UNL     1      39.939 -13.156   2.940  1.00  0.00     0.032 A 
BRANCH  22  26
HETATM   26  C   UNL     1      42.244 -16.779   3.242  1.00  0.00     0.112 A 
HETATM   27  S   UNL     1      43.153 -17.227   4.632  1.00  0.00    -0.067 SA
HETATM   28  C   UNL     1      43.624 -18.698   3.875  1.00  0.00     0.035 A 
HETATM   29  C   UNL     1      43.055 -18.753   2.603  1.00  0.00     0.075 A 
HETATM   30  C   UNL     1      44.437 -19.732   4.366  1.00  0.00     0.021 A 
HETATM   31  N   UNL     1      42.274 -17.663   2.259  1.00  0.00    -0.239 NA
HETATM   32  C   UNL     1      43.306 -19.877   1.791  1.00  0.00     0.033 A 
HETATM   33  C   UNL     1      44.115 -20.913   2.269  1.00  0.00     0.002 A 
HETATM   34  C   UNL     1      44.673 -20.839   3.542  1.00  0.00     0.002 A 
ENDBRANCH  22  26
BRANCH  23  35
HETATM   35  O   UNL     1      39.584 -16.664   2.102  1.00  0.00    -0.360 OA
HETATM   36  H   UNL     1      39.076 -17.067   2.840  1.00  0.00     0.217 HD
ENDBRANCH  23  35
ENDBRANCH   1  20
TORSDOF 10
ENDMDL
MODEL 3
REMARK VINA RESULT:      -8.5      6.193     10.636
REMARK  10 active torsions:
REMARK  status: ('A' for Active; 'I' for Inactive)
REMARK    1  A    between atoms: C_2  and  C_3 
REMARK    2  A    between atoms: C_3  and  C_4 
REMARK    3  A    between atoms: C_4  and  O_5 
REMARK    4  A    between atoms: O_5  and  C_6 
REMARK    5  A    between atoms: C_9  and  C_10 
REMARK       I    between atoms: C_10  and  N_11 
REMARK    6  A    between atoms: N_11  and  C_12 
REMARK    7  A    between atoms: C_12  and  N_13 
REMARK    8  A    between atoms: N_13  and  C_14 
REMARK    9  A    between atoms: C_16  and  C_17 
REMARK   10  A    between atoms: C_26  and  O_27 
ROOT
HETATM    1  N   UNL     1      41.583 -11.824   3.439  1.00  0.00    -0.333 N 
HETATM    2  H   UNL     1      42.328 -11.279   3.876  1.00  0.00     0.168 HD
ENDROOT
BRANCH   1   3
HETATM    3  C   UNL     1      41.171 -11.302   2.235  1.00  0.00     0.179 C 
HETATM    4  S   UNL     1      40.526  -9.801   1.879  1.00  0.00    -0.040 SA
BRANCH   3   5
HETATM    5  N   UNL     1      41.302 -12.152   1.151  1.00  0.00    -0.299 N 
HETATM    6  C   UNL     1      42.088 -12.032   0.014  1.00  0.00     0.257 C 
HETATM    7  O   UNL     1      43.010 -11.235  -0.113  1.00  0.00    -0.267 OA
HETATM    8  H   UNL     1      40.709 -12.969   1.223  1.00  0.00     0.171 HD
BRANCH   6   9
HETATM    9  C   UNL     1      41.776 -13.031  -1.036  1.00  0.00     0.032 A 
HETATM   10  C   UNL     1      41.844 -12.670  -2.388  1.00  0.00     0.020 A 
HETATM   11  C   UNL     1      41.483 -13.592  -3.372  1.00  0.00     0.038 A 
HETATM   12  C   UNL     1      41.073 -14.874  -3.007  1.00  0.00     0.068 A 
HETATM   13  C   UNL     1      41.002 -15.231  -1.659  1.00  0.00     0.038 A 
HETATM   14  C   UNL     1      41.373 -14.317  -0.669  1.00  0.00     0.020 A 
BRANCH  12  15
HETATM   15  O   UNL     1      40.628 -15.788  -3.922  1.00  0.00    -0.351 OA
BRANCH  15  16
HETATM   16  C   UNL     1      39.352 -16.344  -3.583  1.00  0.00     0.175 C 
BRANCH  16  17
HETATM   17  C   UNL     1      38.253 -15.486  -4.208  1.00  0.00     0.026 C 
BRANCH  17  18
HETATM   18  C   UNL     1      37.379 -14.811  -3.148  1.00  0.00    -0.002 C 
HETATM   19  C   UNL     1      37.731 -13.339  -2.989  1.00  0.00     0.005 C 
ENDBRANCH  17  18
ENDBRANCH  16  17
ENDBRANCH  15  16
ENDBRANCH  12  15
ENDBRANCH   6   9
ENDBRANCH   3   5
ENDBRANCH   1   3
BRANCH   1  20
HETATM   20  C   UNL     1      41.219 -13.008   4.127  1.00  0.00     0.035 A 
HETATM   21  C   UNL     1      41.851 -14.202   3.730  1.00  0.00     0.046 A 
HETATM   22  C   UNL     1      41.571 -15.439   4.350  1.00  0.00     0.035 A 
HETATM   23  C   UNL     1      40.636 -15.433   5.402  1.00  0.00     0.078 A 
HETATM   24  C   UNL     1      40.027 -14.257   5.825  1.00  0.00     0.040 A 
HETATM   25  C   UNL     1      40.324 -13.050   5.194  1.00  0.00     0.032 A 
BRANCH  22  26
HETATM   26  C   UNL     1      42.205 -16.714   3.944  1.00  0.00     0.112 A 
HETATM   27  S   UNL     1      42.032 -17.395   2.374  1.00  0.00    -0.067 SA
HETATM   28  C   UNL     1      43.035 -18.721   2.816  1.00  0.00     0.035 A 
HETATM   29  C   UNL     1      43.440 -18.558   4.140  1.00  0.00     0.075 A 
HETATM   30  C   UNL     1      43.439 -19.827   2.050  1.00  0.00     0.021 A 
HETATM   31  N   UNL     1      42.966 -17.419   4.766  1.00  0.00    -0.239 NA
HETATM   32  C   UNL     1      44.274 -19.533   4.723  1.00  0.00     0.033 A 
HETATM   33  C   UNL     1      44.682 -20.639   3.971  1.00  0.00     0.002 A 
HETATM   34  C   UNL     1      44.268 -20.781   2.650  1.00  0.00     0.002 A 
ENDBRANCH  22  26
BRANCH  23  35
HETATM   35  O   UNL     1      40.266 -16.562   6.090  1.00  0.00    -0.360 OA
HETATM   36  H   UNL     1      41.086 -17.051   6.322  1.00  0.00     0.217 HD
ENDBRANCH  23  35
ENDBRANCH   1  20
TORSDOF 10
ENDMDL
MODEL 4
REMARK VINA RESULT:      -8.4      3.028     11.322
REMARK  10 active torsions:
REMARK  status: ('A' for Active; 'I' for Inactive)
REMARK    1  A    between atoms: C_2  and  C_3 
REMARK    2  A    between atoms: C_3  and  C_4 
REMARK    3  A    between atoms: C_4  and  O_5 
REMARK    4  A    between atoms: O_5  and  C_6 
REMARK    5  A    between atoms: C_9  and  C_10 
REMARK       I    between atoms: C_10  and  N_11 
REMARK    6  A    between atoms: N_11  and  C_12 
REMARK    7  A    between atoms: C_12  and  N_13 
REMARK    8  A    between atoms: N_13  and  C_14 
REMARK    9  A    between atoms: C_16  and  C_17 
REMARK   10  A    between atoms: C_26  and  O_27 
ROOT
HETATM    1  N   UNL     1      42.175 -12.120   4.955  1.00  0.00    -0.333 N 
HETATM    2  H   UNL     1      42.893 -11.397   4.888  1.00  0.00     0.168 HD
ENDROOT
BRANCH   1   3
HETATM    3  C   UNL     1      42.312 -13.103   4.002  1.00  0.00     0.179 C 
HETATM    4  S   UNL     1      42.158 -13.017   2.339  1.00  0.00    -0.040 SA
BRANCH   3   5
HETATM    5  N   UNL     1      42.617 -14.359   4.495  1.00  0.00    -0.299 N 
HETATM    6  C   UNL     1      43.571 -14.744   5.427  1.00  0.00     0.257 C 
HETATM    7  O   UNL     1      44.165 -13.974   6.172  1.00  0.00    -0.267 OA
HETATM    8  H   UNL     1      42.051 -15.089   4.080  1.00  0.00     0.171 HD
BRANCH   6   9
HETATM    9  C   UNL     1      43.759 -16.212   5.519  1.00  0.00     0.032 A 
HETATM   10  C   UNL     1      44.388 -16.768   6.640  1.00  0.00     0.020 A 
HETATM   11  C   UNL     1      44.626 -18.142   6.693  1.00  0.00     0.038 A 
HETATM   12  C   UNL     1      44.221 -18.958   5.637  1.00  0.00     0.068 A 
HETATM   13  C   UNL     1      43.598 -18.402   4.517  1.00  0.00     0.038 A 
HETATM   14  C   UNL     1      43.347 -17.028   4.463  1.00  0.00     0.020 A 
BRANCH  12  15
HETATM   15  O   UNL     1      44.505 -20.296   5.597  1.00  0.00    -0.351 OA
BRANCH  15  16
HETATM   16  C   UNL     1      45.211 -20.684   4.412  1.00  0.00     0.175 C 
BRANCH  16  17
HETATM   17  C   UNL     1      44.575 -21.954   3.849  1.00  0.00     0.026 C 
BRANCH  17  18
HETATM   18  C   UNL     1      44.502 -21.930   2.319  1.00  0.00    -0.002 C 
HETATM   19  C   UNL     1      43.386 -21.020   1.829  1.00  0.00     0.005 C 
ENDBRANCH  17  18
ENDBRANCH  16  17
ENDBRANCH  15  16
ENDBRANCH  12  15
ENDBRANCH   6   9
ENDBRANCH   3   5
ENDBRANCH   1   3
BRANCH   1  20
HETATM   20  C   UNL     1      41.278 -11.980   6.042  1.00  0.00     0.035 A 
HETATM   21  C   UNL     1      41.743 -11.281   7.173  1.00  0.00     0.046 A 
HETATM   22  C   UNL     1      40.933 -11.075   8.310  1.00  0.00     0.035 A 
HETATM   23  C   UNL     1      39.623 -11.588   8.268  1.00  0.00     0.078 A 
HETATM   24  C   UNL     1      39.140 -12.253   7.146  1.00  0.00     0.040 A 
HETATM   25  C   UNL     1      39.963 -12.441   6.038  1.00  0.00     0.032 A 
BRANCH  22  26
HETATM   26  C   UNL     1      41.398 -10.360   9.521  1.00  0.00     0.112 A 
HETATM   27  S   UNL     1      41.049  -8.704   9.830  1.00  0.00    -0.067 SA
HETATM   28  C   UNL     1      41.909  -8.779  11.319  1.00  0.00     0.035 A 
HETATM   29  C   UNL     1      42.409 -10.069  11.485  1.00  0.00     0.075 A 
HETATM   30  C   UNL     1      42.126  -7.773  12.273  1.00  0.00     0.021 A 
HETATM   31  N   UNL     1      42.112 -10.954  10.463  1.00  0.00    -0.239 NA
HETATM   32  C   UNL     1      43.155 -10.368  12.642  1.00  0.00     0.033 A 
HETATM   33  C   UNL     1      43.379  -9.374  13.600  1.00  0.00     0.002 A 
HETATM   34  C   UNL     1      42.869  -8.092  13.416  1.00  0.00     0.002 A 
ENDBRANCH  22  26
BRANCH  23  35
HETATM   35  O   UNL     1      38.730 -11.464   9.303  1.00  0.00    -0.360 OA
HETATM   36  H   UNL     1      39.239 -11.511  10.142  1.00  0.00     0.217 HD
ENDBRANCH  23  35
ENDBRANCH   1  20
TORSDOF 10
ENDMDL
MODEL 5
REMARK VINA RESULT:      -8.3      2.303      2.842
REMARK  10 active torsions:
REMARK  status: ('A' for Active; 'I' for Inactive)
REMARK    1  A    between atoms: C_2  and  C_3 
REMARK    2  A    between atoms: C_3  and  C_4 
REMARK    3  A    between atoms: C_4  and  O_5 
REMARK    4  A    between atoms: O_5  and  C_6 
REMARK    5  A    between atoms: C_9  and  C_10 
REMARK       I    between atoms: C_10  and  N_11 
REMARK    6  A    between atoms: N_11  and  C_12 
REMARK    7  A    between atoms: C_12  and  N_13 
REMARK    8  A    between atoms: N_13  and  C_14 
REMARK    9  A    between atoms: C_16  and  C_17 
REMARK   10  A    between atoms: C_26  and  O_27 
ROOT
HETATM    1  N   UNL     1      41.663 -12.986   6.387  1.00  0.00    -0.333 N 
HETATM    2  H   UNL     1      42.205 -12.969   7.252  1.00  0.00     0.168 HD
ENDROOT
BRANCH   1   3
HETATM    3  C   UNL     1      40.504 -12.248   6.464  1.00  0.00     0.179 C 
HETATM    4  S   UNL     1      39.220 -12.149   5.398  1.00  0.00    -0.040 SA
BRANCH   3   5
HETATM    5  N   UNL     1      40.385 -11.461   7.595  1.00  0.00    -0.299 N 
HETATM    6  C   UNL     1      41.340 -10.702   8.258  1.00  0.00     0.257 C 
HETATM    7  O   UNL     1      42.434 -10.405   7.796  1.00  0.00    -0.267 OA
HETATM    8  H   UNL     1      39.450 -11.475   7.984  1.00  0.00     0.171 HD
BRANCH   6   9
HETATM    9  C   UNL     1      40.887 -10.188   9.573  1.00  0.00     0.032 A 
HETATM   10  C   UNL     1      41.085  -8.841   9.904  1.00  0.00     0.020 A 
HETATM   11  C   UNL     1      40.721  -8.375  11.168  1.00  0.00     0.038 A 
HETATM   12  C   UNL     1      40.145  -9.249  12.091  1.00  0.00     0.068 A 
HETATM   13  C   UNL     1      39.952 -10.592  11.762  1.00  0.00     0.038 A 
HETATM   14  C   UNL     1      40.304 -11.062  10.494  1.00  0.00     0.020 A 
BRANCH  12  15
HETATM   15  O   UNL     1      39.848  -8.867  13.371  1.00  0.00    -0.351 OA
BRANCH  15  16
HETATM   16  C   UNL     1      40.949  -8.236  14.037  1.00  0.00     0.175 C 
BRANCH  16  17
HETATM   17  C   UNL     1      41.943  -9.308  14.480  1.00  0.00     0.026 C 
BRANCH  17  18
HETATM   18  C   UNL     1      43.331  -9.092  13.872  1.00  0.00    -0.002 C 
HETATM   19  C   UNL     1      43.623 -10.105  12.775  1.00  0.00     0.005 C 
ENDBRANCH  17  18
ENDBRANCH  16  17
ENDBRANCH  15  16
ENDBRANCH  12  15
ENDBRANCH   6   9
ENDBRANCH   3   5
ENDBRANCH   1   3
BRANCH   1  20
HETATM   20  C   UNL     1      42.265 -13.685   5.312  1.00  0.00     0.035 A 
HETATM   21  C   UNL     1      42.570 -15.045   5.521  1.00  0.00     0.046 A 
HETATM   22  C   UNL     1      43.165 -15.840   4.518  1.00  0.00     0.035 A 
HETATM   23  C   UNL     1      43.433 -15.223   3.282  1.00  0.00     0.078 A 
HETATM   24  C   UNL     1      43.109 -13.890   3.052  1.00  0.00     0.040 A 
HETATM   25  C   UNL     1      42.522 -13.129   4.061  1.00  0.00     0.032 A 
BRANCH  22  26
HETATM   26  C   UNL     1      43.513 -17.266   4.713  1.00  0.00     0.112 A 
HETATM   27  S   UNL     1      43.535 -18.030   6.254  1.00  0.00    -0.067 SA
HETATM   28  C   UNL     1      43.991 -19.523   5.531  1.00  0.00     0.035 A 
HETATM   29  C   UNL     1      44.099 -19.342   4.153  1.00  0.00     0.075 A 
HETATM   30  C   UNL     1      44.237 -20.767   6.135  1.00  0.00     0.021 A 
HETATM   31  N   UNL     1      43.824 -18.063   3.702  1.00  0.00    -0.239 NA
HETATM   32  C   UNL     1      44.466 -20.438   3.347  1.00  0.00     0.033 A 
HETATM   33  C   UNL     1      44.714 -21.682   3.937  1.00  0.00     0.002 A 
HETATM   34  C   UNL     1      44.600 -21.842   5.315  1.00  0.00     0.002 A 
ENDBRANCH  22  26
BRANCH  23  35
HETATM   35  O   UNL     1      44.011 -15.875   2.222  1.00  0.00    -0.360 OA
HETATM   36  H   UNL     1      44.763 -15.325   1.909  1.00  0.00     0.217 HD
ENDBRANCH  23  35
ENDBRANCH   1  20
TORSDOF 10
ENDMDL
MODEL 6
REMARK VINA RESULT:      -8.3      2.020      2.512
REMARK  10 active torsions:
REMARK  status: ('A' for Active; 'I' for Inactive)
REMARK    1  A    between atoms: C_2  and  C_3 
REMARK    2  A    between atoms: C_3  and  C_4 
REMARK    3  A    between atoms: C_4  and  O_5 
REMARK    4  A    between atoms: O_5  and  C_6 
REMARK    5  A    between atoms: C_9  and  C_10 
REMARK       I    between atoms: C_10  and  N_11 
REMARK    6  A    between atoms: N_11  and  C_12 
REMARK    7  A    between atoms: C_12  and  N_13 
REMARK    8  A    between atoms: N_13  and  C_14 
REMARK    9  A    between atoms: C_16  and  C_17 
REMARK   10  A    between atoms: C_26  and  O_27 
ROOT
HETATM    1  N   UNL     1      41.865 -12.606   6.614  1.00  0.00    -0.333 N 
HETATM    2  H   UNL     1      42.467 -13.001   7.339  1.00  0.00     0.168 HD
ENDROOT
BRANCH   1   3
HETATM    3  C   UNL     1      41.721 -11.242   6.720  1.00  0.00     0.179 C 
HETATM    4  S   UNL     1      41.252 -10.119   5.573  1.00  0.00    -0.040 SA
BRANCH   3   5
HETATM    5  N   UNL     1      42.017 -10.716   7.965  1.00  0.00    -0.299 N 
HETATM    6  C   UNL     1      43.047 -11.026   8.841  1.00  0.00     0.257 C 
HETATM    7  O   UNL     1      44.041 -11.676   8.543  1.00  0.00    -0.267 OA
HETATM    8  H   UNL     1      41.352 -10.012   8.258  1.00  0.00     0.171 HD
BRANCH   6   9
HETATM    9  C   UNL     1      42.892 -10.417  10.184  1.00  0.00     0.032 A 
HETATM   10  C   UNL     1      43.785 -10.751  11.211  1.00  0.00     0.020 A 
HETATM   11  C   UNL     1      43.596 -10.230  12.493  1.00  0.00     0.038 A 
HETATM   12  C   UNL     1      42.530  -9.366  12.741  1.00  0.00     0.068 A 
HETATM   13  C   UNL     1      41.638  -9.037  11.718  1.00  0.00     0.038 A 
HETATM   14  C   UNL     1      41.828  -9.546  10.430  1.00  0.00     0.020 A 
BRANCH  12  15
HETATM   15  O   UNL     1      42.248  -8.894  13.994  1.00  0.00    -0.351 OA
BRANCH  15  16
HETATM   16  C   UNL     1      42.355  -9.901  15.008  1.00  0.00     0.175 C 
BRANCH  16  17
HETATM   17  C   UNL     1      41.583  -9.443  16.245  1.00  0.00     0.026 C 
BRANCH  17  18
HETATM   18  C   UNL     1      41.299  -7.939  16.221  1.00  0.00    -0.002 C 
HETATM   19  C   UNL     1      39.809  -7.651  16.339  1.00  0.00     0.005 C 
ENDBRANCH  17  18
ENDBRANCH  16  17
ENDBRANCH  15  16
ENDBRANCH  12  15
ENDBRANCH   6   9
ENDBRANCH   3   5
ENDBRANCH   1   3
BRANCH   1  20
HETATM   20  C   UNL     1      41.398 -13.532   5.649  1.00  0.00     0.035 A 
HETATM   21  C   UNL     1      42.127 -14.727   5.500  1.00  0.00     0.046 A 
HETATM   22  C   UNL     1      41.750 -15.723   4.573  1.00  0.00     0.035 A 
HETATM   23  C   UNL     1      40.596 -15.481   3.804  1.00  0.00     0.078 A 
HETATM   24  C   UNL     1      39.850 -14.319   3.962  1.00  0.00     0.040 A 
HETATM   25  C   UNL     1      40.247 -13.353   4.885  1.00  0.00     0.032 A 
BRANCH  22  26
HETATM   26  C   UNL     1      42.505 -16.983   4.381  1.00  0.00     0.112 A 
HETATM   27  S   UNL     1      43.360 -17.771   5.648  1.00  0.00    -0.067 SA
HETATM   28  C   UNL     1      43.848 -19.020   4.570  1.00  0.00     0.035 A 
HETATM   29  C   UNL     1      43.323 -18.754   3.306  1.00  0.00     0.075 A 
HETATM   30  C   UNL     1      44.635 -20.156   4.819  1.00  0.00     0.021 A 
HETATM   31  N   UNL     1      42.564 -17.601   3.213  1.00  0.00    -0.239 NA
HETATM   32  C   UNL     1      43.595 -19.649   2.252  1.00  0.00     0.033 A 
HETATM   33  C   UNL     1      44.379 -20.783   2.488  1.00  0.00     0.002 A 
HETATM   34  C   UNL     1      44.891 -21.031   3.758  1.00  0.00     0.002 A 
ENDBRANCH  22  26
BRANCH  23  35
HETATM   35  O   UNL     1      40.118 -16.359   2.864  1.00  0.00    -0.360 OA
HETATM   36  H   UNL     1      40.891 -16.759   2.409  1.00  0.00     0.217 HD
ENDBRANCH  23  35
ENDBRANCH   1  20
TORSDOF 10
ENDMDL
MODEL 7
REMARK VINA RESULT:      -8.3      5.548     10.057
REMARK  10 active torsions:
REMARK  status: ('A' for Active; 'I' for Inactive)
REMARK    1  A    between atoms: C_2  and  C_3 
REMARK    2  A    between atoms: C_3  and  C_4 
REMARK    3  A    between atoms: C_4  and  O_5 
REMARK    4  A    between atoms: O_5  and  C_6 
REMARK    5  A    between atoms: C_9  and  C_10 
REMARK       I    between atoms: C_10  and  N_11 
REMARK    6  A    between atoms: N_11  and  C_12 
REMARK    7  A    between atoms: C_12  and  N_13 
REMARK    8  A    between atoms: N_13  and  C_14 
REMARK    9  A    between atoms: C_16  and  C_17 
REMARK   10  A    between atoms: C_26  and  O_27 
ROOT
HETATM    1  N   UNL     1      42.740 -13.015   4.658  1.00  0.00    -0.333 N 
HETATM    2  H   UNL     1      43.446 -12.305   4.459  1.00  0.00     0.168 HD
ENDROOT
BRANCH   1   3
HETATM    3  C   UNL     1      41.498 -12.691   4.161  1.00  0.00     0.179 C 
HETATM    4  S   UNL     1      40.239 -11.853   4.874  1.00  0.00    -0.040 SA
BRANCH   3   5
HETATM    5  N   UNL     1      41.249 -13.135   2.874  1.00  0.00    -0.299 N 
HETATM    6  C   UNL     1      40.489 -14.209   2.432  1.00  0.00     0.257 C 
HETATM    7  O   UNL     1      39.688 -14.824   3.125  1.00  0.00    -0.267 OA
HETATM    8  H   UNL     1      41.723 -12.580   2.172  1.00  0.00     0.171 HD
BRANCH   6   9
HETATM    9  C   UNL     1      40.658 -14.507   0.990  1.00  0.00     0.032 A 
HETATM   10  C   UNL     1      40.268 -13.565   0.029  1.00  0.00     0.020 A 
HETATM   11  C   UNL     1      40.364 -13.876  -1.328  1.00  0.00     0.038 A 
HETATM   12  C   UNL     1      40.865 -15.116  -1.723  1.00  0.00     0.068 A 
HETATM   13  C   UNL     1      41.249 -16.056  -0.765  1.00  0.00     0.038 A 
HETATM   14  C   UNL     1      41.166 -15.747   0.596  1.00  0.00     0.020 A 
BRANCH  12  15
HETATM   15  O   UNL     1      40.901 -15.505  -3.034  1.00  0.00    -0.351 OA
BRANCH  15  16
HETATM   16  C   UNL     1      39.891 -14.877  -3.833  1.00  0.00     0.175 C 
BRANCH  16  17
HETATM   17  C   UNL     1      38.736 -15.858  -4.034  1.00  0.00     0.026 C 
BRANCH  17  18
HETATM   18  C   UNL     1      37.427 -15.333  -3.438  1.00  0.00    -0.002 C 
HETATM   19  C   UNL     1      37.065 -13.968  -4.003  1.00  0.00     0.005 C 
ENDBRANCH  17  18
ENDBRANCH  16  17
ENDBRANCH  15  16
ENDBRANCH  12  15
ENDBRANCH   6   9
ENDBRANCH   3   5
ENDBRANCH   1   3
BRANCH   1  20
HETATM   20  C   UNL     1      43.218 -14.174   5.317  1.00  0.00     0.035 A 
HETATM   21  C   UNL     1      43.261 -15.366   4.568  1.00  0.00     0.046 A 
HETATM   22  C   UNL     1      43.726 -16.579   5.120  1.00  0.00     0.035 A 
HETATM   23  C   UNL     1      44.165 -16.551   6.457  1.00  0.00     0.078 A 
HETATM   24  C   UNL     1      44.156 -15.375   7.199  1.00  0.00     0.040 A 
HETATM   25  C   UNL     1      43.692 -14.192   6.627  1.00  0.00     0.032 A 
BRANCH  22  26
HETATM   26  C   UNL     1      43.768 -17.853   4.365  1.00  0.00     0.112 A 
HETATM   27  S   UNL     1      43.037 -18.057   2.821  1.00  0.00    -0.067 SA
HETATM   28  C   UNL     1      43.576 -19.690   2.759  1.00  0.00     0.035 A 
HETATM   29  C   UNL     1      44.282 -19.976   3.926  1.00  0.00     0.075 A 
HETATM   30  C   UNL     1      43.391 -20.652   1.752  1.00  0.00     0.021 A 
HETATM   31  N   UNL     1      44.386 -18.928   4.825  1.00  0.00    -0.239 NA
HETATM   32  C   UNL     1      44.821 -21.266   4.099  1.00  0.00     0.033 A 
HETATM   33  C   UNL     1      44.643 -22.233   3.104  1.00  0.00     0.002 A 
HETATM   34  C   UNL     1      43.935 -21.926   1.945  1.00  0.00     0.002 A 
ENDBRANCH  22  26
BRANCH  23  35
HETATM   35  O   UNL     1      44.637 -17.656   7.120  1.00  0.00    -0.360 OA
HETATM   36  H   UNL     1      44.105 -18.429   6.828  1.00  0.00     0.217 HD
ENDBRANCH  23  35
ENDBRANCH   1  20
TORSDOF 10
ENDMDL
MODEL 8
REMARK VINA RESULT:      -8.0      5.331     10.640
REMARK  10 active torsions:
REMARK  status: ('A' for Active; 'I' for Inactive)
REMARK    1  A    between atoms: C_2  and  C_3 
REMARK    2  A    between atoms: C_3  and  C_4 
REMARK    3  A    between atoms: C_4  and  O_5 
REMARK    4  A    between atoms: O_5  and  C_6 
REMARK    5  A    between atoms: C_9  and  C_10 
REMARK       I    between atoms: C_10  and  N_11 
REMARK    6  A    between atoms: N_11  and  C_12 
REMARK    7  A    between atoms: C_12  and  N_13 
REMARK    8  A    between atoms: N_13  and  C_14 
REMARK    9  A    between atoms: C_16  and  C_17 
REMARK   10  A    between atoms: C_26  and  O_27 
ROOT
HETATM    1  N   UNL     1      44.468 -19.912   3.660  1.00  0.00    -0.333 N 
HETATM    2  H   UNL     1      45.422 -20.277   3.626  1.00  0.00     0.168 HD
ENDROOT
BRANCH   1   3
HETATM    3  C   UNL     1      43.746 -20.190   2.522  1.00  0.00     0.179 C 
HETATM    4  S   UNL     1      43.662 -21.594   1.619  1.00  0.00    -0.040 SA
BRANCH   3   5
HETATM    5  N   UNL     1      42.976 -19.143   2.047  1.00  0.00    -0.299 N 
HETATM    6  C   UNL     1      43.360 -17.891   1.587  1.00  0.00     0.257 C 
HETATM    7  O   UNL     1      44.507 -17.580   1.293  1.00  0.00    -0.267 OA
HETATM    8  H   UNL     1      41.985 -19.348   2.067  1.00  0.00     0.171 HD
BRANCH   6   9
HETATM    9  C   UNL     1      42.226 -16.955   1.389  1.00  0.00     0.032 A 
HETATM   10  C   UNL     1      41.210 -16.873   2.349  1.00  0.00     0.020 A 
HETATM   11  C   UNL     1      40.110 -16.043   2.128  1.00  0.00     0.038 A 
HETATM   12  C   UNL     1      40.036 -15.285   0.959  1.00  0.00     0.068 A 
HETATM   13  C   UNL     1      41.047 -15.371   0.000  1.00  0.00     0.038 A 
HETATM   14  C   UNL     1      42.157 -16.192   0.221  1.00  0.00     0.020 A 
BRANCH  12  15
HETATM   15  O   UNL     1      38.943 -14.522   0.652  1.00  0.00    -0.351 OA
BRANCH  15  16
HETATM   16  C   UNL     1      39.162 -13.657  -0.469  1.00  0.00     0.175 C 
BRANCH  16  17
HETATM   17  C   UNL     1      38.040 -13.867  -1.485  1.00  0.00     0.026 C 
BRANCH  17  18
HETATM   18  C   UNL     1      38.533 -14.583  -2.746  1.00  0.00    -0.002 C 
HETATM   19  C   UNL     1      37.381 -14.927  -3.679  1.00  0.00     0.005 C 
ENDBRANCH  17  18
ENDBRANCH  16  17
ENDBRANCH  15  16
ENDBRANCH  12  15
ENDBRANCH   6   9
ENDBRANCH   3   5
ENDBRANCH   1   3
BRANCH   1  20
HETATM   20  C   UNL     1      44.104 -19.291   4.880  1.00  0.00     0.035 A 
HETATM   21  C   UNL     1      43.524 -18.009   4.799  1.00  0.00     0.046 A 
HETATM   22  C   UNL     1      43.117 -17.300   5.950  1.00  0.00     0.035 A 
HETATM   23  C   UNL     1      43.298 -17.933   7.194  1.00  0.00     0.078 A 
HETATM   24  C   UNL     1      43.841 -19.210   7.286  1.00  0.00     0.040 A 
HETATM   25  C   UNL     1      44.235 -19.886   6.132  1.00  0.00     0.032 A 
BRANCH  22  26
HETATM   26  C   UNL     1      42.520 -15.945   5.900  1.00  0.00     0.112 A 
HETATM   27  S   UNL     1      43.457 -14.507   5.792  1.00  0.00    -0.067 SA
HETATM   28  C   UNL     1      42.027 -13.551   5.779  1.00  0.00     0.035 A 
HETATM   29  C   UNL     1      40.920 -14.395   5.859  1.00  0.00     0.075 A 
HETATM   30  C   UNL     1      41.888 -12.156   5.703  1.00  0.00     0.021 A 
HETATM   31  N   UNL     1      41.212 -15.747   5.924  1.00  0.00    -0.239 NA
HETATM   32  C   UNL     1      39.629 -13.830   5.866  1.00  0.00     0.033 A 
HETATM   33  C   UNL     1      39.479 -12.442   5.791  1.00  0.00     0.002 A 
HETATM   34  C   UNL     1      40.596 -11.616   5.711  1.00  0.00     0.002 A 
ENDBRANCH  22  26
BRANCH  23  35
HETATM   35  O   UNL     1      42.952 -17.359   8.391  1.00  0.00    -0.360 OA
HETATM   36  H   UNL     1      41.982 -17.201   8.376  1.00  0.00     0.217 HD
ENDBRANCH  23  35
ENDBRANCH   1  20
TORSDOF 10
ENDMDL
MODEL 9
REMARK VINA RESULT:      -7.7      3.450     11.334
REMARK  10 active torsions:
REMARK  status: ('A' for Active; 'I' for Inactive)
REMARK    1  A    between atoms: C_2  and  C_3 
REMARK    2  A    between atoms: C_3  and  C_4 
REMARK    3  A    between atoms: C_4  and  O_5 
REMARK    4  A    between atoms: O_5  and  C_6 
REMARK    5  A    between atoms: C_9  and  C_10 
REMARK       I    between atoms: C_10  and  N_11 
REMARK    6  A    between atoms: N_11  and  C_12 
REMARK    7  A    between atoms: C_12  and  N_13 
REMARK    8  A    between atoms: N_13  and  C_14 
REMARK    9  A    between atoms: C_16  and  C_17 
REMARK   10  A    between atoms: C_26  and  O_27 
ROOT
HETATM    1  N   UNL     1      41.964 -11.869   3.946  1.00  0.00    -0.333 N 
HETATM    2  H   UNL     1      42.955 -11.873   4.191  1.00  0.00     0.168 HD
ENDROOT
BRANCH   1   3
HETATM    3  C   UNL     1      41.700 -12.518   2.761  1.00  0.00     0.179 C 
HETATM    4  S   UNL     1      41.045 -11.932   1.339  1.00  0.00    -0.040 SA
BRANCH   3   5
HETATM    5  N   UNL     1      42.018 -13.864   2.747  1.00  0.00    -0.299 N 
HETATM    6  C   UNL     1      43.078 -14.536   3.339  1.00  0.00     0.257 C 
HETATM    7  O   UNL     1      43.805 -14.062   4.204  1.00  0.00    -0.267 OA
HETATM    8  H   UNL     1      41.368 -14.412   2.197  1.00  0.00     0.171 HD
BRANCH   6   9
HETATM    9  C   UNL     1      43.215 -15.945   2.897  1.00  0.00     0.032 A 
HETATM   10  C   UNL     1      44.026 -16.257   1.798  1.00  0.00     0.020 A 
HETATM   11  C   UNL     1      44.098 -17.574   1.340  1.00  0.00     0.038 A 
HETATM   12  C   UNL     1      43.377 -18.576   1.990  1.00  0.00     0.068 A 
HETATM   13  C   UNL     1      42.565 -18.262   3.082  1.00  0.00     0.038 A 
HETATM   14  C   UNL     1      42.497 -16.948   3.553  1.00  0.00     0.020 A 
BRANCH  12  15
HETATM   15  O   UNL     1      43.343 -19.865   1.533  1.00  0.00    -0.351 OA
BRANCH  15  16
HETATM   16  C   UNL     1      43.547 -20.832   2.571  1.00  0.00     0.175 C 
BRANCH  16  17
HETATM   17  C   UNL     1      44.989 -20.731   3.067  1.00  0.00     0.026 C 
BRANCH  17  18
HETATM   18  C   UNL     1      45.071 -20.717   4.596  1.00  0.00    -0.002 C 
HETATM   19  C   UNL     1      44.987 -22.122   5.172  1.00  0.00     0.005 C 
ENDBRANCH  17  18
ENDBRANCH  16  17
ENDBRANCH  15  16
ENDBRANCH  12  15
ENDBRANCH   6   9
ENDBRANCH   3   5
ENDBRANCH   1   3
BRANCH   1  20
HETATM   20  C   UNL     1      41.108 -11.278   4.908  1.00  0.00     0.035 A 
HETATM   21  C   UNL     1      41.534 -11.307   6.250  1.00  0.00     0.046 A 
HETATM   22  C   UNL     1      40.765 -10.742   7.290  1.00  0.00     0.035 A 
HETATM   23  C   UNL     1      39.550 -10.129   6.932  1.00  0.00     0.078 A 
HETATM   24  C   UNL     1      39.131 -10.067   5.607  1.00  0.00     0.040 A 
HETATM   25  C   UNL     1      39.912 -10.633   4.601  1.00  0.00     0.032 A 
BRANCH  22  26
HETATM   26  C   UNL     1      41.176 -10.771   8.713  1.00  0.00     0.112 A 
HETATM   27  S   UNL     1      42.813 -10.628   9.224  1.00  0.00    -0.067 SA
HETATM   28  C   UNL     1      42.331 -10.747  10.871  1.00  0.00     0.035 A 
HETATM   29  C   UNL     1      40.945 -10.888  10.926  1.00  0.00     0.075 A 
HETATM   30  C   UNL     1      43.117 -10.716  12.034  1.00  0.00     0.021 A 
HETATM   31  N   UNL     1      40.304 -10.898   9.699  1.00  0.00    -0.239 NA
HETATM   32  C   UNL     1      40.320 -11.006  12.183  1.00  0.00     0.033 A 
HETATM   33  C   UNL     1      41.093 -10.977  13.348  1.00  0.00     0.002 A 
HETATM   34  C   UNL     1      42.475 -10.834  13.272  1.00  0.00     0.002 A 
ENDBRANCH  22  26
BRANCH  23  35
HETATM   35  O   UNL     1      38.702  -9.545   7.840  1.00  0.00    -0.360 OA
HETATM   36  H   UNL     1      38.688  -8.580   7.657  1.00  0.00     0.217 HD
ENDBRANCH  23  35
ENDBRANCH   1  20
TORSDOF 10
ENDMDL
MODEL 10
REMARK VINA RESULT:      -7.7      2.411      2.998
REMARK  10 active torsions:
REMARK  status: ('A' for Active; 'I' for Inactive)
REMARK    1  A    between atoms: C_2  and  C_3 
REMARK    2  A    between atoms: C_3  and  C_4 
REMARK    3  A    between atoms: C_4  and  O_5 
REMARK    4  A    between atoms: O_5  and  C_6 
REMARK    5  A    between atoms: C_9  and  C_10 
REMARK       I    between atoms: C_10  and  N_11 
REMARK    6  A    between atoms: N_11  and  C_12 
REMARK    7  A    between atoms: C_12  and  N_13 
REMARK    8  A    between atoms: N_13  and  C_14 
REMARK    9  A    between atoms: C_16  and  C_17 
REMARK   10  A    between atoms: C_26  and  O_27 
ROOT
HETATM    1  N   UNL     1      42.897 -13.299   4.669  1.00  0.00    -0.333 N 
HETATM    2  H   UNL     1      43.011 -12.379   4.241  1.00  0.00     0.168 HD
ENDROOT
BRANCH   1   3
HETATM    3  C   UNL     1      43.210 -13.311   6.009  1.00  0.00     0.179 C 
HETATM    4  S   UNL     1      44.458 -14.079   6.815  1.00  0.00    -0.040 SA
BRANCH   3   5
HETATM    5  N   UNL     1      42.356 -12.580   6.817  1.00  0.00    -0.299 N 
HETATM    6  C   UNL     1      41.589 -11.462   6.522  1.00  0.00     0.257 C 
HETATM    7  O   UNL     1      41.349 -11.063   5.389  1.00  0.00    -0.267 OA
HETATM    8  H   UNL     1      42.323 -12.931   7.766  1.00  0.00     0.171 HD
BRANCH   6   9
HETATM    9  C   UNL     1      40.988 -10.818   7.715  1.00  0.00     0.032 A 
HETATM   10  C   UNL     1      39.742 -11.249   8.190  1.00  0.00     0.020 A 
HETATM   11  C   UNL     1      39.147 -10.596   9.271  1.00  0.00     0.038 A 
HETATM   12  C   UNL     1      39.803  -9.529   9.884  1.00  0.00     0.068 A 
HETATM   13  C   UNL     1      41.043  -9.097   9.407  1.00  0.00     0.038 A 
HETATM   14  C   UNL     1      41.649  -9.754   8.333  1.00  0.00     0.020 A 
BRANCH  12  15
HETATM   15  O   UNL     1      39.230  -8.799  10.890  1.00  0.00    -0.351 OA
BRANCH  15  16
HETATM   16  C   UNL     1      39.103  -9.535  12.113  1.00  0.00     0.175 C 
BRANCH  16  17
HETATM   17  C   UNL     1      40.326  -9.261  12.987  1.00  0.00     0.026 C 
BRANCH  17  18
HETATM   18  C   UNL     1      41.152 -10.526  13.231  1.00  0.00    -0.002 C 
HETATM   19  C   UNL     1      42.211 -10.302  14.301  1.00  0.00     0.005 C 
ENDBRANCH  17  18
ENDBRANCH  16  17
ENDBRANCH  15  16
ENDBRANCH  12  15
ENDBRANCH   6   9
ENDBRANCH   3   5
ENDBRANCH   1   3
BRANCH   1  20
HETATM   20  C   UNL     1      42.377 -14.301   3.814  1.00  0.00     0.035 A 
HETATM   21  C   UNL     1      42.942 -15.588   3.916  1.00  0.00     0.046 A 
HETATM   22  C   UNL     1      42.497 -16.664   3.118  1.00  0.00     0.035 A 
HETATM   23  C   UNL     1      41.447 -16.406   2.217  1.00  0.00     0.078 A 
HETATM   24  C   UNL     1      40.860 -15.149   2.128  1.00  0.00     0.040 A 
HETATM   25  C   UNL     1      41.320 -14.105   2.928  1.00  0.00     0.032 A 
BRANCH  22  26
HETATM   26  C   UNL     1      43.081 -18.023   3.188  1.00  0.00     0.112 A 
HETATM   27  S   UNL     1      43.912 -18.622   4.570  1.00  0.00    -0.067 SA
HETATM   28  C   UNL     1      44.178 -20.129   3.785  1.00  0.00     0.035 A 
HETATM   29  C   UNL     1      43.612 -20.079   2.511  1.00  0.00     0.075 A 
HETATM   30  C   UNL     1      44.836 -21.276   4.256  1.00  0.00     0.021 A 
HETATM   31  N   UNL     1      42.993 -18.884   2.187  1.00  0.00    -0.239 NA
HETATM   32  C   UNL     1      43.708 -21.210   1.677  1.00  0.00     0.033 A 
HETATM   33  C   UNL     1      44.362 -22.358   2.135  1.00  0.00     0.002 A 
HETATM   34  C   UNL     1      44.919 -22.388   3.411  1.00  0.00     0.002 A 
ENDBRANCH  22  26
BRANCH  23  35
HETATM   35  O   UNL     1      40.920 -17.357   1.379  1.00  0.00    -0.360 OA
HETATM   36  H   UNL     1      41.577 -18.084   1.304  1.00  0.00     0.217 HD
ENDBRANCH  23  35
ENDBRANCH   1  20
TORSDOF 10
ENDMDL
