MODEL 1
REMARK VINA RESULT:      -8.8      0.000      0.000
REMARK  4 active torsions:
REMARK  status: ('A' for Active; 'I' for Inactive)
REMARK    1  A    between atoms: C_10  and  C_11 
REMARK    2  A    between atoms: N_14  and  C_16 
REMARK    3  A    between atoms: C_16  and  C_17 
REMARK    4  A    between atoms: C_18  and  C_19 
ROOT
HETATM    1  C   UNL     1      43.670 -18.364   2.307  1.00  0.00    -0.036 A 
HETATM    2  C   UNL     1      43.894 -18.205   3.679  1.00  0.00     0.013 A 
HETATM    3  C   UNL     1      44.319 -19.286   4.459  1.00  0.00     0.023 A 
HETATM    4  C   UNL     1      44.512 -20.543   3.878  1.00  0.00     0.044 A 
HETATM    5  C   UNL     1      44.950 -21.650   4.675  1.00  0.00     0.099 C 
HETATM    6  N   UNL     1      45.302 -22.549   5.317  1.00  0.00    -0.191 NA
HETATM    7  C   UNL     1      44.272 -20.714   2.512  1.00  0.00     0.023 A 
HETATM    8  C   UNL     1      43.849 -19.632   1.733  1.00  0.00     0.013 A 
ENDROOT
BRANCH   1   9
HETATM    9  C   UNL     1      43.206 -17.218   1.513  1.00  0.00     0.009 C 
HETATM   10  C   UNL     1      42.021 -17.225   0.880  1.00  0.00     0.001 C 
BRANCH  10  11
HETATM   11  C   UNL     1      41.411 -16.123   0.078  1.00  0.00     0.262 C 
BRANCH  11  12
HETATM   12  N   UNL     1      40.793 -14.982   0.864  1.00  0.00    -0.068 N 
HETATM   13  C   UNL     1      40.156 -15.530   2.126  1.00  0.00     0.236 C 
HETATM   14  C   UNL     1      39.600 -14.411   3.003  1.00  0.00     0.037 C 
HETATM   15  C   UNL     1      40.667 -13.352   3.340  1.00  0.00     0.024 C 
HETATM   16  C   UNL     1      41.140 -12.796   1.993  1.00  0.00     0.037 C 
HETATM   17  C   UNL     1      41.789 -13.876   1.142  1.00  0.00     0.236 C 
HETATM   18  H   UNL     1      40.046 -14.591   0.280  1.00  0.00     0.280 HD
BRANCH  15  19
HETATM   19  C   UNL     1      41.785 -13.888   4.227  1.00  0.00    -0.024 A 
HETATM   20  C   UNL     1      41.772 -15.022   5.124  1.00  0.00     0.018 A 
HETATM   21  C   UNL     1      42.999 -15.038   5.781  1.00  0.00     0.138 A 
HETATM   22  C   UNL     1      40.870 -16.043   5.489  1.00  0.00     0.017 A 
HETATM   23  N   UNL     1      43.408 -15.866   6.757  1.00  0.00    -0.242 NA
HETATM   24  N   UNL     1      43.780 -14.055   5.253  1.00  0.00    -0.350 N 
HETATM   25  C   UNL     1      42.496 -16.804   7.081  1.00  0.00     0.119 A 
HETATM   26  C   UNL     1      41.250 -16.940   6.491  1.00  0.00     0.020 A 
HETATM   27  H   UNL     1      44.740 -13.901   5.530  1.00  0.00     0.166 HD
HETATM   28  C   UNL     1      43.071 -13.363   4.308  1.00  0.00     0.098 A 
ENDBRANCH  15  19
ENDBRANCH  11  12
ENDBRANCH  10  11
ENDBRANCH   1   9
TORSDOF 4
ENDMDL
MODEL 2
REMARK VINA RESULT:      -8.4      1.853      6.269
REMARK  4 active torsions:
REMARK  status: ('A' for Active; 'I' for Inactive)
REMARK    1  A    between atoms: C_10  and  C_11 
REMARK    2  A    between atoms: N_14  and  C_16 
REMARK    3  A    between atoms: C_16  and  C_17 
REMARK    4  A    between atoms: C_18  and  C_19 
ROOT
HETATM    1  C   UNL     1      40.562 -15.367   1.872  1.00  0.00    -0.036 A 
HETATM    2  C   UNL     1      40.037 -14.296   1.140  1.00  0.00     0.013 A 
HETATM    3  C   UNL     1      40.196 -14.239  -0.249  1.00  0.00     0.023 A 
HETATM    4  C   UNL     1      40.893 -15.248  -0.921  1.00  0.00     0.044 A 
HETATM    5  C   UNL     1      41.054 -15.193  -2.344  1.00  0.00     0.099 C 
HETATM    6  N   UNL     1      41.188 -15.151  -3.495  1.00  0.00    -0.191 NA
HETATM    7  C   UNL     1      41.435 -16.312  -0.194  1.00  0.00     0.023 A 
HETATM    8  C   UNL     1      41.274 -16.367   1.194  1.00  0.00     0.013 A 
ENDROOT
BRANCH   1   9
HETATM    9  C   UNL     1      40.398 -15.393   3.332  1.00  0.00     0.009 C 
HETATM   10  C   UNL     1      41.016 -14.509   4.132  1.00  0.00     0.001 C 
BRANCH  10  11
HETATM   11  C   UNL     1      40.909 -14.395   5.618  1.00  0.00     0.262 C 
BRANCH  11  12
HETATM   12  N   UNL     1      41.944 -15.153   6.426  1.00  0.00    -0.068 N 
HETATM   13  C   UNL     1      41.485 -16.587   6.611  1.00  0.00     0.236 C 
HETATM   14  C   UNL     1      42.535 -17.422   7.339  1.00  0.00     0.037 C 
HETATM   15  C   UNL     1      43.908 -17.368   6.638  1.00  0.00     0.024 C 
HETATM   16  C   UNL     1      44.309 -15.890   6.625  1.00  0.00     0.037 C 
HETATM   17  C   UNL     1      43.327 -15.054   5.818  1.00  0.00     0.236 C 
HETATM   18  H   UNL     1      41.976 -14.713   7.353  1.00  0.00     0.280 HD
BRANCH  15  19
HETATM   19  C   UNL     1      43.907 -18.033   5.267  1.00  0.00    -0.024 A 
HETATM   20  C   UNL     1      44.182 -19.409   4.921  1.00  0.00     0.018 A 
HETATM   21  C   UNL     1      44.156 -19.496   3.532  1.00  0.00     0.138 A 
HETATM   22  C   UNL     1      44.472 -20.610   5.602  1.00  0.00     0.017 A 
HETATM   23  N   UNL     1      44.427 -20.562   2.760  1.00  0.00    -0.242 NA
HETATM   24  N   UNL     1      43.773 -18.287   3.036  1.00  0.00    -0.350 N 
HETATM   25  C   UNL     1      44.722 -21.672   3.465  1.00  0.00     0.119 A 
HETATM   26  C   UNL     1      44.751 -21.753   4.848  1.00  0.00     0.020 A 
HETATM   27  H   UNL     1      43.628 -18.112   2.050  1.00  0.00     0.166 HD
HETATM   28  C   UNL     1      43.606 -17.399   4.066  1.00  0.00     0.098 A 
ENDBRANCH  15  19
ENDBRANCH  11  12
ENDBRANCH  10  11
ENDBRANCH   1   9
TORSDOF 4
ENDMDL
MODEL 3
REMARK VINA RESULT:      -8.3      1.639      4.672
REMARK  4 active torsions:
REMARK  status: ('A' for Active; 'I' for Inactive)
REMARK    1  A    between atoms: C_10  and  C_11 
REMARK    2  A    between atoms: N_14  and  C_16 
REMARK    3  A    between atoms: C_16  and  C_17 
REMARK    4  A    between atoms: C_18  and  C_19 
ROOT
HETATM    1  C   UNL     1      43.986 -18.303   4.825  1.00  0.00    -0.036 A 
HETATM    2  C   UNL     1      43.386 -18.204   3.565  1.00  0.00     0.013 A 
HETATM    3  C   UNL     1      43.467 -19.264   2.654  1.00  0.00     0.023 A 
HETATM    4  C   UNL     1      44.163 -20.429   2.989  1.00  0.00     0.044 A 
HETATM    5  C   UNL     1      44.246 -21.515   2.058  1.00  0.00     0.099 C 
HETATM    6  N   UNL     1      44.317 -22.396   1.307  1.00  0.00    -0.191 NA
HETATM    7  C   UNL     1      44.782 -20.527   4.239  1.00  0.00     0.023 A 
HETATM    8  C   UNL     1      44.697 -19.469   5.149  1.00  0.00     0.013 A 
ENDROOT
BRANCH   1   9
HETATM    9  C   UNL     1      43.901 -17.169   5.756  1.00  0.00     0.009 C 
HETATM   10  C   UNL     1      43.436 -15.969   5.373  1.00  0.00     0.001 C 
BRANCH  10  11
HETATM   11  C   UNL     1      43.259 -14.750   6.218  1.00  0.00     0.262 C 
BRANCH  11  12
HETATM   12  N   UNL     1      42.051 -13.887   5.909  1.00  0.00    -0.068 N 
HETATM   13  C   UNL     1      42.374 -12.968   4.746  1.00  0.00     0.236 C 
HETATM   14  C   UNL     1      41.160 -12.143   4.331  1.00  0.00     0.037 C 
HETATM   15  C   UNL     1      39.937 -13.026   4.011  1.00  0.00     0.024 C 
HETATM   16  C   UNL     1      39.644 -13.807   5.296  1.00  0.00     0.037 C 
HETATM   17  C   UNL     1      40.805 -14.714   5.674  1.00  0.00     0.236 C 
HETATM   18  H   UNL     1      41.886 -13.300   6.735  1.00  0.00     0.280 HD
BRANCH  15  19
HETATM   19  C   UNL     1      40.133 -13.896   2.776  1.00  0.00    -0.024 A 
HETATM   20  C   UNL     1      40.825 -13.589   1.545  1.00  0.00     0.018 A 
HETATM   21  C   UNL     1      40.637 -14.670   0.688  1.00  0.00     0.138 A 
HETATM   22  C   UNL     1      41.584 -12.521   1.023  1.00  0.00     0.017 A 
HETATM   23  N   UNL     1      41.036 -14.798  -0.589  1.00  0.00    -0.242 NA
HETATM   24  N   UNL     1      39.973 -15.644   1.369  1.00  0.00    -0.350 N 
HETATM   25  C   UNL     1      41.733 -13.736  -1.041  1.00  0.00     0.119 A 
HETATM   26  C   UNL     1      42.035 -12.607  -0.298  1.00  0.00     0.020 A 
HETATM   27  H   UNL     1      39.764 -16.552   0.975  1.00  0.00     0.166 HD
HETATM   28  C   UNL     1      39.674 -15.202   2.630  1.00  0.00     0.098 A 
ENDBRANCH  15  19
ENDBRANCH  11  12
ENDBRANCH  10  11
ENDBRANCH   1   9
TORSDOF 4
ENDMDL
MODEL 4
REMARK VINA RESULT:      -7.9      2.214      5.210
REMARK  4 active torsions:
REMARK  status: ('A' for Active; 'I' for Inactive)
REMARK    1  A    between atoms: C_10  and  C_11 
REMARK    2  A    between atoms: N_14  and  C_16 
REMARK    3  A    between atoms: C_16  and  C_17 
REMARK    4  A    between atoms: C_18  and  C_19 
ROOT
HETATM    1  C   UNL     1      43.469 -17.224   3.258  1.00  0.00    -0.036 A 
HETATM    2  C   UNL     1      43.890 -18.173   4.197  1.00  0.00     0.013 A 
HETATM    3  C   UNL     1      44.120 -19.499   3.813  1.00  0.00     0.023 A 
HETATM    4  C   UNL     1      43.917 -19.894   2.487  1.00  0.00     0.044 A 
HETATM    5  C   UNL     1      44.154 -21.251   2.092  1.00  0.00     0.099 C 
HETATM    6  N   UNL     1      44.343 -22.348   1.769  1.00  0.00    -0.191 NA
HETATM    7  C   UNL     1      43.478 -18.957   1.548  1.00  0.00     0.023 A 
HETATM    8  C   UNL     1      43.250 -17.631   1.933  1.00  0.00     0.013 A 
ENDROOT
BRANCH   1   9
HETATM    9  C   UNL     1      43.216 -15.843   3.691  1.00  0.00     0.009 C 
HETATM   10  C   UNL     1      42.003 -15.437   4.100  1.00  0.00     0.001 C 
BRANCH  10  11
HETATM   11  C   UNL     1      41.617 -14.083   4.600  1.00  0.00     0.262 C 
BRANCH  11  12
HETATM   12  N   UNL     1      40.755 -13.245   3.676  1.00  0.00    -0.068 N 
HETATM   13  C   UNL     1      41.643 -12.509   2.690  1.00  0.00     0.236 C 
HETATM   14  C   UNL     1      40.820 -11.723   1.675  1.00  0.00     0.037 C 
HETATM   15  C   UNL     1      39.800 -12.614   0.938  1.00  0.00     0.024 C 
HETATM   16  C   UNL     1      38.896 -13.197   2.028  1.00  0.00     0.037 C 
HETATM   17  C   UNL     1      39.681 -14.068   2.996  1.00  0.00     0.236 C 
HETATM   18  H   UNL     1      40.288 -12.544   4.261  1.00  0.00     0.280 HD
BRANCH  15  19
HETATM   19  C   UNL     1      40.454 -13.655   0.038  1.00  0.00    -0.024 A 
HETATM   20  C   UNL     1      40.016 -14.155  -1.245  1.00  0.00     0.018 A 
HETATM   21  C   UNL     1      40.897 -15.168  -1.614  1.00  0.00     0.138 A 
HETATM   22  C   UNL     1      38.968 -13.898  -2.154  1.00  0.00     0.017 A 
HETATM   23  N   UNL     1      40.842 -15.967  -2.693  1.00  0.00    -0.242 NA
HETATM   24  N   UNL     1      41.893 -15.226  -0.686  1.00  0.00    -0.350 N 
HETATM   25  C   UNL     1      39.806 -15.691  -3.510  1.00  0.00     0.119 A 
HETATM   26  C   UNL     1      38.870 -14.692  -3.300  1.00  0.00     0.020 A 
HETATM   27  H   UNL     1      42.685 -15.849  -0.761  1.00  0.00     0.166 HD
HETATM   28  C   UNL     1      41.649 -14.314   0.307  1.00  0.00     0.098 A 
ENDBRANCH  15  19
ENDBRANCH  11  12
ENDBRANCH  10  11
ENDBRANCH   1   9
TORSDOF 4
ENDMDL
MODEL 5
REMARK VINA RESULT:      -7.8      4.387      8.696
REMARK  4 active torsions:
REMARK  status: ('A' for Active; 'I' for Inactive)
REMARK    1  A    between atoms: C_10  and  C_11 
REMARK    2  A    between atoms: N_14  and  C_16 
REMARK    3  A    between atoms: C_16  and  C_17 
REMARK    4  A    between atoms: C_18  and  C_19 
ROOT
HETATM    1  C   UNL     1      44.426 -11.676   9.423  1.00  0.00    -0.036 A 
HETATM    2  C   UNL     1      45.051 -11.322  10.624  1.00  0.00     0.013 A 
HETATM    3  C   UNL     1      44.440 -10.422  11.505  1.00  0.00     0.023 A 
HETATM    4  C   UNL     1      43.202  -9.856  11.187  1.00  0.00     0.044 A 
HETATM    5  C   UNL     1      42.574  -8.936  12.089  1.00  0.00     0.099 C 
HETATM    6  N   UNL     1      42.063  -8.190  12.815  1.00  0.00    -0.191 NA
HETATM    7  C   UNL     1      42.581 -10.191   9.981  1.00  0.00     0.023 A 
HETATM    8  C   UNL     1      43.192 -11.092   9.103  1.00  0.00     0.013 A 
ENDROOT
BRANCH   1   9
HETATM    9  C   UNL     1      45.098 -12.609   8.508  1.00  0.00     0.009 C 
HETATM   10  C   UNL     1      44.417 -13.532   7.808  1.00  0.00     0.001 C 
BRANCH  10  11
HETATM   11  C   UNL     1      44.963 -14.510   6.820  1.00  0.00     0.262 C 
BRANCH  11  12
HETATM   12  N   UNL     1      44.584 -15.963   7.032  1.00  0.00    -0.068 N 
HETATM   13  C   UNL     1      43.096 -16.058   7.311  1.00  0.00     0.236 C 
HETATM   14  C   UNL     1      42.643 -17.510   7.440  1.00  0.00     0.037 C 
HETATM   15  C   UNL     1      43.027 -18.351   6.206  1.00  0.00     0.024 C 
HETATM   16  C   UNL     1      44.554 -18.269   6.109  1.00  0.00     0.037 C 
HETATM   17  C   UNL     1      45.022 -16.841   5.880  1.00  0.00     0.236 C 
HETATM   18  H   UNL     1      45.081 -16.278   7.873  1.00  0.00     0.280 HD
BRANCH  15  19
HETATM   19  C   UNL     1      42.293 -17.928   4.940  1.00  0.00    -0.024 A 
HETATM   20  C   UNL     1      42.749 -17.957   3.569  1.00  0.00     0.018 A 
HETATM   21  C   UNL     1      41.753 -17.372   2.792  1.00  0.00     0.138 A 
HETATM   22  C   UNL     1      43.895 -18.388   2.868  1.00  0.00     0.017 A 
HETATM   23  N   UNL     1      41.769 -17.116   1.473  1.00  0.00    -0.242 NA
HETATM   24  N   UNL     1      40.689 -17.100   3.597  1.00  0.00    -0.350 N 
HETATM   25  C   UNL     1      42.898 -17.527   0.862  1.00  0.00     0.119 A 
HETATM   26  C   UNL     1      43.959 -18.157   1.491  1.00  0.00     0.020 A 
HETATM   27  H   UNL     1      39.817 -16.719   3.255  1.00  0.00     0.166 HD
HETATM   28  C   UNL     1      40.991 -17.440   4.889  1.00  0.00     0.098 A 
ENDBRANCH  15  19
ENDBRANCH  11  12
ENDBRANCH  10  11
ENDBRANCH   1   9
TORSDOF 4
ENDMDL
MODEL 6
REMARK VINA RESULT:      -7.6      3.731      6.600
REMARK  4 active torsions:
REMARK  status: ('A' for Active; 'I' for Inactive)
REMARK    1  A    between atoms: C_10  and  C_11 
REMARK    2  A    between atoms: N_14  and  C_16 
REMARK    3  A    between atoms: C_16  and  C_17 
REMARK    4  A    between atoms: C_18  and  C_19 
ROOT
HETATM    1  C   UNL     1      43.702 -17.900   2.437  1.00  0.00    -0.036 A 
HETATM    2  C   UNL     1      43.940 -17.843   3.814  1.00  0.00     0.013 A 
HETATM    3  C   UNL     1      44.320 -18.992   4.518  1.00  0.00     0.023 A 
HETATM    4  C   UNL     1      44.453 -20.214   3.852  1.00  0.00     0.044 A 
HETATM    5  C   UNL     1      44.844 -21.391   4.571  1.00  0.00     0.099 C 
HETATM    6  N   UNL     1      45.158 -22.346   5.149  1.00  0.00    -0.191 NA
HETATM    7  C   UNL     1      44.198 -20.283   2.480  1.00  0.00     0.023 A 
HETATM    8  C   UNL     1      43.820 -19.133   1.778  1.00  0.00     0.013 A 
ENDROOT
BRANCH   1   9
HETATM    9  C   UNL     1      43.286 -16.683   1.725  1.00  0.00     0.009 C 
HETATM   10  C   UNL     1      41.993 -16.405   1.489  1.00  0.00     0.001 C 
BRANCH  10  11
HETATM   11  C   UNL     1      41.430 -15.195   0.818  1.00  0.00     0.262 C 
BRANCH  11  12
HETATM   12  N   UNL     1      41.899 -14.935  -0.601  1.00  0.00    -0.068 N 
HETATM   13  C   UNL     1      40.941 -15.594  -1.575  1.00  0.00     0.236 C 
HETATM   14  C   UNL     1      41.313 -15.285  -3.022  1.00  0.00     0.037 C 
HETATM   15  C   UNL     1      41.409 -13.769  -3.286  1.00  0.00     0.024 C 
HETATM   16  C   UNL     1      42.488 -13.249  -2.329  1.00  0.00     0.037 C 
HETATM   17  C   UNL     1      42.090 -13.458  -0.876  1.00  0.00     0.236 C 
HETATM   18  H   UNL     1      42.812 -15.393  -0.700  1.00  0.00     0.280 HD
BRANCH  15  19
HETATM   19  C   UNL     1      40.069 -13.054  -3.170  1.00  0.00    -0.024 A 
HETATM   20  C   UNL     1      38.749 -13.531  -3.517  1.00  0.00     0.018 A 
HETATM   21  C   UNL     1      37.866 -12.472  -3.324  1.00  0.00     0.138 A 
HETATM   22  C   UNL     1      38.172 -14.728  -3.991  1.00  0.00     0.017 A 
HETATM   23  N   UNL     1      36.549 -12.429  -3.587  1.00  0.00    -0.242 NA
HETATM   24  N   UNL     1      38.558 -11.433  -2.781  1.00  0.00    -0.350 N 
HETATM   25  C   UNL     1      36.060 -13.592  -4.061  1.00  0.00     0.119 A 
HETATM   26  C   UNL     1      36.802 -14.743  -4.269  1.00  0.00     0.020 A 
HETATM   27  H   UNL     1      38.124 -10.564  -2.499  1.00  0.00     0.166 HD
HETATM   28  C   UNL     1      39.881 -11.770  -2.669  1.00  0.00     0.098 A 
ENDBRANCH  15  19
ENDBRANCH  11  12
ENDBRANCH  10  11
ENDBRANCH   1   9
TORSDOF 4
ENDMDL
MODEL 7
REMARK VINA RESULT:      -7.4      1.709      5.728
REMARK  4 active torsions:
REMARK  status: ('A' for Active; 'I' for Inactive)
REMARK    1  A    between atoms: C_10  and  C_11 
REMARK    2  A    between atoms: N_14  and  C_16 
REMARK    3  A    between atoms: C_16  and  C_17 
REMARK    4  A    between atoms: C_18  and  C_19 
ROOT
HETATM    1  C   UNL     1      42.684 -16.324   1.666  1.00  0.00    -0.036 A 
HETATM    2  C   UNL     1      42.445 -14.974   1.950  1.00  0.00     0.013 A 
HETATM    3  C   UNL     1      41.657 -14.197   1.094  1.00  0.00     0.023 A 
HETATM    4  C   UNL     1      41.111 -14.757  -0.065  1.00  0.00     0.044 A 
HETATM    5  C   UNL     1      40.303 -13.962  -0.942  1.00  0.00     0.099 C 
HETATM    6  N   UNL     1      39.649 -13.323  -1.655  1.00  0.00    -0.191 NA
HETATM    7  C   UNL     1      41.361 -16.099  -0.365  1.00  0.00     0.023 A 
HETATM    8  C   UNL     1      42.146 -16.875   0.493  1.00  0.00     0.013 A 
ENDROOT
BRANCH   1   9
HETATM    9  C   UNL     1      43.529 -17.114   2.572  1.00  0.00     0.009 C 
HETATM   10  C   UNL     1      43.312 -18.422   2.786  1.00  0.00     0.001 C 
BRANCH  10  11
HETATM   11  C   UNL     1      44.111 -19.348   3.643  1.00  0.00     0.262 C 
BRANCH  11  12
HETATM   12  N   UNL     1      43.987 -19.152   5.142  1.00  0.00    -0.068 N 
HETATM   13  C   UNL     1      45.171 -18.346   5.642  1.00  0.00     0.236 C 
HETATM   14  C   UNL     1      45.050 -18.038   7.131  1.00  0.00     0.037 C 
HETATM   15  C   UNL     1      43.721 -17.334   7.473  1.00  0.00     0.024 C 
HETATM   16  C   UNL     1      42.616 -18.298   7.030  1.00  0.00     0.037 C 
HETATM   17  C   UNL     1      42.657 -18.541   5.529  1.00  0.00     0.236 C 
HETATM   18  H   UNL     1      44.040 -20.084   5.568  1.00  0.00     0.280 HD
BRANCH  15  19
HETATM   19  C   UNL     1      43.613 -15.936   6.877  1.00  0.00    -0.024 A 
HETATM   20  C   UNL     1      42.469 -15.287   6.276  1.00  0.00     0.018 A 
HETATM   21  C   UNL     1      42.903 -14.057   5.791  1.00  0.00     0.138 A 
HETATM   22  C   UNL     1      41.108 -15.584   6.057  1.00  0.00     0.017 A 
HETATM   23  N   UNL     1      42.205 -13.145   5.093  1.00  0.00    -0.242 NA
HETATM   24  N   UNL     1      44.202 -13.885   6.162  1.00  0.00    -0.350 N 
HETATM   25  C   UNL     1      40.919 -13.494   4.892  1.00  0.00     0.119 A 
HETATM   26  C   UNL     1      40.332 -14.664   5.346  1.00  0.00     0.020 A 
HETATM   27  H   UNL     1      44.727 -13.042   5.973  1.00  0.00     0.166 HD
HETATM   28  C   UNL     1      44.641 -15.000   6.828  1.00  0.00     0.098 A 
ENDBRANCH  15  19
ENDBRANCH  11  12
ENDBRANCH  10  11
ENDBRANCH   1   9
TORSDOF 4
ENDMDL
MODEL 8
REMARK VINA RESULT:      -7.4      4.030      6.881
REMARK  4 active torsions:
REMARK  status: ('A' for Active; 'I' for Inactive)
REMARK    1  A    between atoms: C_10  and  C_11 
REMARK    2  A    between atoms: N_14  and  C_16 
REMARK    3  A    between atoms: C_16  and  C_17 
REMARK    4  A    between atoms: C_18  and  C_19 
ROOT
HETATM    1  C   UNL     1      43.485 -17.729   2.164  1.00  0.00    -0.036 A 
HETATM    2  C   UNL     1      43.754 -17.599   3.531  1.00  0.00     0.013 A 
HETATM    3  C   UNL     1      44.180 -18.702   4.279  1.00  0.00     0.023 A 
HETATM    4  C   UNL     1      44.330 -19.952   3.670  1.00  0.00     0.044 A 
HETATM    5  C   UNL     1      44.768 -21.082   4.435  1.00  0.00     0.099 C 
HETATM    6  N   UNL     1      45.122 -21.999   5.050  1.00  0.00    -0.191 NA
HETATM    7  C   UNL     1      44.045 -20.093   2.309  1.00  0.00     0.023 A 
HETATM    8  C   UNL     1      43.621 -18.989   1.563  1.00  0.00     0.013 A 
ENDROOT
BRANCH   1   9
HETATM    9  C   UNL     1      43.021 -16.559   1.405  1.00  0.00     0.009 C 
HETATM   10  C   UNL     1      41.766 -16.093   1.515  1.00  0.00     0.001 C 
BRANCH  10  11
HETATM   11  C   UNL     1      41.176 -14.900   0.839  1.00  0.00     0.262 C 
BRANCH  11  12
HETATM   12  N   UNL     1      40.361 -15.170  -0.411  1.00  0.00    -0.068 N 
HETATM   13  C   UNL     1      39.471 -13.976  -0.698  1.00  0.00     0.236 C 
HETATM   14  C   UNL     1      38.696 -14.155  -2.000  1.00  0.00     0.037 C 
HETATM   15  C   UNL     1      39.625 -14.449  -3.195  1.00  0.00     0.024 C 
HETATM   16  C   UNL     1      40.373 -15.735  -2.831  1.00  0.00     0.037 C 
HETATM   17  C   UNL     1      41.232 -15.548  -1.590  1.00  0.00     0.236 C 
HETATM   18  H   UNL     1      39.753 -15.970  -0.201  1.00  0.00     0.280 HD
BRANCH  15  19
HETATM   19  C   UNL     1      40.528 -13.276  -3.553  1.00  0.00    -0.024 A 
HETATM   20  C   UNL     1      40.166 -11.928  -3.930  1.00  0.00     0.018 A 
HETATM   21  C   UNL     1      41.344 -11.263  -4.259  1.00  0.00     0.138 A 
HETATM   22  C   UNL     1      38.982 -11.172  -4.057  1.00  0.00     0.017 A 
HETATM   23  N   UNL     1      41.489 -10.015  -4.734  1.00  0.00    -0.242 NA
HETATM   24  N   UNL     1      42.391 -12.093  -3.995  1.00  0.00    -0.350 N 
HETATM   25  C   UNL     1      40.323  -9.350  -4.859  1.00  0.00     0.119 A 
HETATM   26  C   UNL     1      39.077  -9.862  -4.537  1.00  0.00     0.020 A 
HETATM   27  H   UNL     1      43.358 -11.818  -4.102  1.00  0.00     0.166 HD
HETATM   28  C   UNL     1      41.920 -13.302  -3.557  1.00  0.00     0.098 A 
ENDBRANCH  15  19
ENDBRANCH  11  12
ENDBRANCH  10  11
ENDBRANCH   1   9
TORSDOF 4
ENDMDL
MODEL 9
REMARK VINA RESULT:      -7.3      2.156      5.719
REMARK  4 active torsions:
REMARK  status: ('A' for Active; 'I' for Inactive)
REMARK    1  A    between atoms: C_10  and  C_11 
REMARK    2  A    between atoms: N_14  and  C_16 
REMARK    3  A    between atoms: C_16  and  C_17 
REMARK    4  A    between atoms: C_18  and  C_19 
ROOT
HETATM    1  C   UNL     1      43.517 -13.630   5.255  1.00  0.00    -0.036 A 
HETATM    2  C   UNL     1      44.702 -14.156   5.781  1.00  0.00     0.013 A 
HETATM    3  C   UNL     1      45.079 -13.878   7.100  1.00  0.00     0.023 A 
HETATM    4  C   UNL     1      44.280 -13.060   7.904  1.00  0.00     0.044 A 
HETATM    5  C   UNL     1      44.664 -12.776   9.255  1.00  0.00     0.099 C 
HETATM    6  N   UNL     1      44.971 -12.543  10.349  1.00  0.00    -0.191 NA
HETATM    7  C   UNL     1      43.104 -12.515   7.380  1.00  0.00     0.023 A 
HETATM    8  C   UNL     1      42.728 -12.795   6.062  1.00  0.00     0.013 A 
ENDROOT
BRANCH   1   9
HETATM    9  C   UNL     1      43.153 -13.922   3.862  1.00  0.00     0.009 C 
HETATM   10  C   UNL     1      42.457 -13.051   3.112  1.00  0.00     0.001 C 
BRANCH  10  11
HETATM   11  C   UNL     1      42.057 -13.199   1.681  1.00  0.00     0.262 C 
BRANCH  11  12
HETATM   12  N   UNL     1      41.307 -14.468   1.321  1.00  0.00    -0.068 N 
HETATM   13  C   UNL     1      42.296 -15.520   0.856  1.00  0.00     0.236 C 
HETATM   14  C   UNL     1      41.605 -16.850   0.570  1.00  0.00     0.037 C 
HETATM   15  C   UNL     1      40.791 -17.354   1.778  1.00  0.00     0.024 C 
HETATM   16  C   UNL     1      39.758 -16.261   2.067  1.00  0.00     0.037 C 
HETATM   17  C   UNL     1      40.426 -14.950   2.454  1.00  0.00     0.236 C 
HETATM   18  H   UNL     1      40.699 -14.237   0.527  1.00  0.00     0.280 HD
BRANCH  15  19
HETATM   19  C   UNL     1      41.661 -17.729   2.972  1.00  0.00    -0.024 A 
HETATM   20  C   UNL     1      42.784 -18.637   3.031  1.00  0.00     0.018 A 
HETATM   21  C   UNL     1      43.177 -18.717   4.365  1.00  0.00     0.138 A 
HETATM   22  C   UNL     1      43.525 -19.428   2.129  1.00  0.00     0.017 A 
HETATM   23  N   UNL     1      44.130 -19.494   4.906  1.00  0.00    -0.242 NA
HETATM   24  N   UNL     1      42.431 -17.832   5.083  1.00  0.00    -0.350 N 
HETATM   25  C   UNL     1      44.786 -20.246   3.999  1.00  0.00     0.119 A 
HETATM   26  C   UNL     1      44.538 -20.247   2.636  1.00  0.00     0.020 A 
HETATM   27  H   UNL     1      42.567 -17.667   6.072  1.00  0.00     0.166 HD
HETATM   28  C   UNL     1      41.524 -17.220   4.260  1.00  0.00     0.098 A 
ENDBRANCH  15  19
ENDBRANCH  11  12
ENDBRANCH  10  11
ENDBRANCH   1   9
TORSDOF 4
ENDMDL
MODEL 10
REMARK VINA RESULT:      -7.2      2.219      5.196
REMARK  4 active torsions:
REMARK  status: ('A' for Active; 'I' for Inactive)
REMARK    1  A    between atoms: C_10  and  C_11 
REMARK    2  A    between atoms: N_14  and  C_16 
REMARK    3  A    between atoms: C_16  and  C_17 
REMARK    4  A    between atoms: C_18  and  C_19 
ROOT
HETATM    1  C   UNL     1      43.615 -17.646   3.929  1.00  0.00    -0.036 A 
HETATM    2  C   UNL     1      43.745 -18.059   5.260  1.00  0.00     0.013 A 
HETATM    3  C   UNL     1      44.188 -19.352   5.562  1.00  0.00     0.023 A 
HETATM    4  C   UNL     1      44.492 -20.251   4.536  1.00  0.00     0.044 A 
HETATM    5  C   UNL     1      44.947 -21.574   4.845  1.00  0.00     0.099 C 
HETATM    6  N   UNL     1      45.315 -22.647   5.090  1.00  0.00    -0.191 NA
HETATM    7  C   UNL     1      44.346 -19.852   3.205  1.00  0.00     0.023 A 
HETATM    8  C   UNL     1      43.905 -18.559   2.904  1.00  0.00     0.013 A 
ENDROOT
BRANCH   1   9
HETATM    9  C   UNL     1      43.130 -16.289   3.638  1.00  0.00     0.009 C 
HETATM   10  C   UNL     1      42.236 -15.670   4.426  1.00  0.00     0.001 C 
BRANCH  10  11
HETATM   11  C   UNL     1      41.691 -14.288   4.273  1.00  0.00     0.262 C 
BRANCH  11  12
HETATM   12  N   UNL     1      40.420 -14.154   3.458  1.00  0.00    -0.068 N 
HETATM   13  C   UNL     1      40.467 -12.863   2.663  1.00  0.00     0.236 C 
HETATM   14  C   UNL     1      39.252 -12.722   1.751  1.00  0.00     0.037 C 
HETATM   15  C   UNL     1      39.081 -13.938   0.818  1.00  0.00     0.024 C 
HETATM   16  C   UNL     1      38.924 -15.150   1.741  1.00  0.00     0.037 C 
HETATM   17  C   UNL     1      40.168 -15.368   2.590  1.00  0.00     0.236 C 
HETATM   18  H   UNL     1      39.645 -14.081   4.127  1.00  0.00     0.280 HD
BRANCH  15  19
HETATM   19  C   UNL     1      40.200 -14.068  -0.207  1.00  0.00    -0.024 A 
HETATM   20  C   UNL     1      40.868 -13.033  -0.964  1.00  0.00     0.018 A 
HETATM   21  C   UNL     1      41.745 -13.667  -1.841  1.00  0.00     0.138 A 
HETATM   22  C   UNL     1      40.839 -11.625  -1.042  1.00  0.00     0.017 A 
HETATM   23  N   UNL     1      42.521 -13.111  -2.787  1.00  0.00    -0.242 NA
HETATM   24  N   UNL     1      41.722 -15.003  -1.576  1.00  0.00    -0.350 N 
HETATM   25  C   UNL     1      42.432 -11.767  -2.831  1.00  0.00     0.119 A 
HETATM   26  C   UNL     1      41.637 -10.994  -2.001  1.00  0.00     0.020 A 
HETATM   27  H   UNL     1      42.316 -15.672  -2.047  1.00  0.00     0.166 HD
HETATM   28  C   UNL     1      40.809 -15.260  -0.588  1.00  0.00     0.098 A 
ENDBRANCH  15  19
ENDBRANCH  11  12
ENDBRANCH  10  11
ENDBRANCH   1   9
TORSDOF 4
ENDMDL
