MODEL 1
REMARK VINA RESULT:      -8.7      0.000      0.000
REMARK  4 active torsions:
REMARK  status: ('A' for Active; 'I' for Inactive)
REMARK    1  A    between atoms: C_3  and  N_4 
REMARK       I    between atoms: N_4  and  C_5 
REMARK       I    between atoms: C_5  and  N_6 
REMARK    2  A    between atoms: N_6  and  C_7 
REMARK    3  A    between atoms: C_18  and  C_19 
REMARK       I    between atoms: C_19  and  N_20 
REMARK    4  A    between atoms: N_20  and  C_21 
ROOT
HETATM    1  C   UNL     1      42.791 -13.597   2.821  1.00  0.00     0.050 C 
HETATM    2  C   UNL     1      42.312 -14.999   3.089  1.00  0.00    -0.034 A 
HETATM    3  C   UNL     1      41.109 -15.529   2.601  1.00  0.00     0.042 A 
HETATM    4  C   UNL     1      40.845 -16.897   2.756  1.00  0.00     0.031 A 
HETATM    5  C   UNL     1      41.699 -17.719   3.499  1.00  0.00     0.019 A 
HETATM    6  C   UNL     1      42.865 -17.199   4.047  1.00  0.00     0.032 A 
HETATM    7  C   UNL     1      43.162 -15.841   3.834  1.00  0.00     0.026 A 
ENDROOT
BRANCH   3   8
HETATM    8  N   UNL     1      40.136 -14.791   1.907  1.00  0.00    -0.308 N 
HETATM    9  C   UNL     1      40.056 -14.452   0.578  1.00  0.00     0.325 C 
HETATM   10  N   UNL     1      41.082 -14.855  -0.229  1.00  0.00    -0.305 N 
HETATM   11  O   UNL     1      39.106 -13.750   0.241  1.00  0.00    -0.247 OA
HETATM   12  H   UNL     1      41.737 -15.515   0.152  1.00  0.00     0.171 HD
HETATM   13  H   UNL     1      39.579 -14.138   2.445  1.00  0.00     0.170 HD
BRANCH  10  14
HETATM   14  C   UNL     1      41.287 -14.504  -1.556  1.00  0.00     0.086 A 
HETATM   15  C   UNL     1      40.907 -15.094  -2.797  1.00  0.00     0.079 A 
HETATM   16  C   UNL     1      40.083 -16.295  -3.083  1.00  0.00     0.075 C 
HETATM   17  N   UNL     1      41.344 -14.368  -3.838  1.00  0.00    -0.177 NA
HETATM   18  N   UNL     1      41.977 -13.335  -3.278  1.00  0.00    -0.280 N 
HETATM   19  H   UNL     1      42.399 -12.647  -3.892  1.00  0.00     0.189 HD
HETATM   20  C   UNL     1      41.957 -13.348  -1.912  1.00  0.00     0.052 A 
HETATM   21  C   UNL     1      42.615 -12.282  -1.122  1.00  0.00     0.072 C 
ENDBRANCH  10  14
ENDBRANCH   3   8
BRANCH   6  22
HETATM   22  C   UNL     1      43.765 -17.954   4.951  1.00  0.00     0.252 C 
HETATM   23  N   UNL     1      44.472 -19.074   4.618  1.00  0.00    -0.352 N 
HETATM   24  H   UNL     1      44.989 -19.380   5.436  1.00  0.00     0.163 HD
HETATM   25  O   UNL     1      43.915 -17.518   6.095  1.00  0.00    -0.268 OA
BRANCH  23  26
HETATM   26  C   UNL     1      44.666 -19.918   3.451  1.00  0.00     0.084 C 
HETATM   27  C   UNL     1      44.668 -21.417   3.738  1.00  0.00     0.025 C 
HETATM   28  C   UNL     1      44.425 -22.031   2.368  1.00  0.00     0.002 C 
HETATM   29  C   UNL     1      43.418 -21.091   1.720  1.00  0.00     0.002 C 
HETATM   30  C   UNL     1      43.772 -19.694   2.231  1.00  0.00     0.025 C 
ENDBRANCH  23  26
ENDBRANCH   6  22
TORSDOF 4
ENDMDL
MODEL 2
REMARK VINA RESULT:      -8.6      2.980      3.956
REMARK  4 active torsions:
REMARK  status: ('A' for Active; 'I' for Inactive)
REMARK    1  A    between atoms: C_3  and  N_4 
REMARK       I    between atoms: N_4  and  C_5 
REMARK       I    between atoms: C_5  and  N_6 
REMARK    2  A    between atoms: N_6  and  C_7 
REMARK    3  A    between atoms: C_18  and  C_19 
REMARK       I    between atoms: C_19  and  N_20 
REMARK    4  A    between atoms: N_20  and  C_21 
ROOT
HETATM    1  C   UNL     1      42.734 -17.140   1.028  1.00  0.00     0.050 C 
HETATM    2  C   UNL     1      42.452 -17.332   2.495  1.00  0.00    -0.034 A 
HETATM    3  C   UNL     1      41.195 -17.148   3.088  1.00  0.00     0.042 A 
HETATM    4  C   UNL     1      41.000 -17.528   4.423  1.00  0.00     0.031 A 
HETATM    5  C   UNL     1      42.068 -17.969   5.213  1.00  0.00     0.019 A 
HETATM    6  C   UNL     1      43.336 -18.098   4.662  1.00  0.00     0.032 A 
HETATM    7  C   UNL     1      43.516 -17.779   3.304  1.00  0.00     0.026 A 
ENDROOT
BRANCH   3   8
HETATM    8  N   UNL     1      40.065 -16.643   2.423  1.00  0.00    -0.308 N 
HETATM    9  C   UNL     1      39.584 -15.360   2.336  1.00  0.00     0.325 C 
HETATM   10  N   UNL     1      40.269 -14.390   3.011  1.00  0.00    -0.305 N 
HETATM   11  O   UNL     1      38.533 -15.202   1.718  1.00  0.00    -0.247 OA
HETATM   12  H   UNL     1      41.170 -14.636   3.382  1.00  0.00     0.171 HD
HETATM   13  H   UNL     1      39.307 -17.290   2.244  1.00  0.00     0.170 HD
BRANCH  10  14
HETATM   14  C   UNL     1      39.889 -13.068   3.186  1.00  0.00     0.086 A 
HETATM   15  C   UNL     1      39.715 -11.970   2.293  1.00  0.00     0.079 A 
HETATM   16  C   UNL     1      39.832 -11.900   0.815  1.00  0.00     0.075 C 
HETATM   17  N   UNL     1      39.324 -10.864   2.947  1.00  0.00    -0.177 NA
HETATM   18  N   UNL     1      39.240 -11.248   4.223  1.00  0.00    -0.280 N 
HETATM   19  H   UNL     1      38.961 -10.555   4.909  1.00  0.00     0.189 HD
HETATM   20  C   UNL     1      39.544 -12.563   4.427  1.00  0.00     0.052 A 
HETATM   21  C   UNL     1      39.509 -13.161   5.782  1.00  0.00     0.072 C 
ENDBRANCH  10  14
ENDBRANCH   3   8
BRANCH   6  22
HETATM   22  C   UNL     1      44.550 -18.433   5.444  1.00  0.00     0.252 C 
HETATM   23  N   UNL     1      45.347 -19.524   5.247  1.00  0.00    -0.352 N 
HETATM   24  H   UNL     1      46.093 -19.502   5.934  1.00  0.00     0.163 HD
HETATM   25  O   UNL     1      44.890 -17.644   6.329  1.00  0.00    -0.268 OA
BRANCH  23  26
HETATM   26  C   UNL     1      45.404 -20.670   4.355  1.00  0.00     0.084 C 
HETATM   27  C   UNL     1      44.718 -21.928   4.883  1.00  0.00     0.025 C 
HETATM   28  C   UNL     1      44.526 -22.768   3.631  1.00  0.00     0.002 C 
HETATM   29  C   UNL     1      44.163 -21.749   2.559  1.00  0.00     0.002 C 
HETATM   30  C   UNL     1      44.958 -20.489   2.904  1.00  0.00     0.025 C 
ENDBRANCH  23  26
ENDBRANCH   6  22
TORSDOF 4
ENDMDL
MODEL 3
REMARK VINA RESULT:      -8.6      1.545      3.080
REMARK  4 active torsions:
REMARK  status: ('A' for Active; 'I' for Inactive)
REMARK    1  A    between atoms: C_3  and  N_4 
REMARK       I    between atoms: N_4  and  C_5 
REMARK       I    between atoms: C_5  and  N_6 
REMARK    2  A    between atoms: N_6  and  C_7 
REMARK    3  A    between atoms: C_18  and  C_19 
REMARK       I    between atoms: C_19  and  N_20 
REMARK    4  A    between atoms: N_20  and  C_21 
ROOT
HETATM    1  C   UNL     1      43.432 -14.411   3.026  1.00  0.00     0.050 C 
HETATM    2  C   UNL     1      42.915 -15.786   2.694  1.00  0.00    -0.034 A 
HETATM    3  C   UNL     1      41.723 -16.034   1.998  1.00  0.00     0.042 A 
HETATM    4  C   UNL     1      41.427 -17.340   1.583  1.00  0.00     0.031 A 
HETATM    5  C   UNL     1      42.233 -18.420   1.959  1.00  0.00     0.019 A 
HETATM    6  C   UNL     1      43.385 -18.203   2.705  1.00  0.00     0.032 A 
HETATM    7  C   UNL     1      43.717 -16.885   3.064  1.00  0.00     0.026 A 
ENDROOT
BRANCH   3   8
HETATM    8  N   UNL     1      40.795 -15.047   1.628  1.00  0.00    -0.308 N 
HETATM    9  C   UNL     1      40.669 -14.337   0.459  1.00  0.00     0.325 C 
HETATM   10  N   UNL     1      41.590 -14.581  -0.520  1.00  0.00    -0.305 N 
HETATM   11  O   UNL     1      39.782 -13.487   0.419  1.00  0.00    -0.247 OA
HETATM   12  H   UNL     1      42.191 -15.378  -0.399  1.00  0.00     0.171 HD
HETATM   13  H   UNL     1      40.350 -14.528   2.376  1.00  0.00     0.170 HD
BRANCH  10  14
HETATM   14  C   UNL     1      41.747 -13.886  -1.710  1.00  0.00     0.086 A 
HETATM   15  C   UNL     1      42.327 -12.626  -2.042  1.00  0.00     0.079 A 
HETATM   16  C   UNL     1      43.032 -11.634  -1.193  1.00  0.00     0.075 C 
HETATM   17  N   UNL     1      42.242 -12.381  -3.359  1.00  0.00    -0.177 NA
HETATM   18  N   UNL     1      41.635 -13.460  -3.858  1.00  0.00    -0.280 N 
HETATM   19  H   UNL     1      41.460 -13.487  -4.857  1.00  0.00     0.189 HD
HETATM   20  C   UNL     1      41.334 -14.408  -2.922  1.00  0.00     0.052 A 
HETATM   21  C   UNL     1      40.654 -15.670  -3.295  1.00  0.00     0.072 C 
ENDBRANCH  10  14
ENDBRANCH   3   8
BRANCH   6  22
HETATM   22  C   UNL     1      44.231 -19.288   3.258  1.00  0.00     0.252 C 
HETATM   23  N   UNL     1      44.431 -19.542   4.585  1.00  0.00    -0.352 N 
HETATM   24  H   UNL     1      45.063 -20.332   4.666  1.00  0.00     0.163 HD
HETATM   25  O   UNL     1      44.778 -20.045   2.454  1.00  0.00    -0.268 OA
BRANCH  23  26
HETATM   26  C   UNL     1      44.003 -18.999   5.863  1.00  0.00     0.084 C 
HETATM   27  C   UNL     1      44.878 -17.871   6.405  1.00  0.00     0.025 C 
HETATM   28  C   UNL     1      43.986 -17.212   7.444  1.00  0.00     0.002 C 
HETATM   29  C   UNL     1      42.599 -17.251   6.816  1.00  0.00     0.002 C 
HETATM   30  C   UNL     1      42.548 -18.555   6.017  1.00  0.00     0.025 C 
ENDBRANCH  23  26
ENDBRANCH   6  22
TORSDOF 4
ENDMDL
MODEL 4
REMARK VINA RESULT:      -8.5      1.671      2.497
REMARK  4 active torsions:
REMARK  status: ('A' for Active; 'I' for Inactive)
REMARK    1  A    between atoms: C_3  and  N_4 
REMARK       I    between atoms: N_4  and  C_5 
REMARK       I    between atoms: C_5  and  N_6 
REMARK    2  A    between atoms: N_6  and  C_7 
REMARK    3  A    between atoms: C_18  and  C_19 
REMARK       I    between atoms: C_19  and  N_20 
REMARK    4  A    between atoms: N_20  and  C_21 
ROOT
HETATM    1  C   UNL     1      43.605 -14.318   4.892  1.00  0.00     0.050 C 
HETATM    2  C   UNL     1      42.939 -15.667   4.957  1.00  0.00    -0.034 A 
HETATM    3  C   UNL     1      41.614 -15.913   4.570  1.00  0.00     0.042 A 
HETATM    4  C   UNL     1      41.150 -17.235   4.499  1.00  0.00     0.031 A 
HETATM    5  C   UNL     1      41.944 -18.304   4.928  1.00  0.00     0.019 A 
HETATM    6  C   UNL     1      43.239 -18.075   5.376  1.00  0.00     0.032 A 
HETATM    7  C   UNL     1      43.726 -16.756   5.385  1.00  0.00     0.026 A 
ENDROOT
BRANCH   3   8
HETATM    8  N   UNL     1      40.696 -14.920   4.191  1.00  0.00    -0.308 N 
HETATM    9  C   UNL     1      40.515 -14.290   2.984  1.00  0.00     0.325 C 
HETATM   10  N   UNL     1      41.360 -14.637   1.968  1.00  0.00    -0.305 N 
HETATM   11  O   UNL     1      39.656 -13.412   2.939  1.00  0.00    -0.247 OA
HETATM   12  H   UNL     1      41.941 -15.445   2.107  1.00  0.00     0.171 HD
HETATM   13  H   UNL     1      40.320 -14.334   4.926  1.00  0.00     0.170 HD
BRANCH  10  14
HETATM   14  C   UNL     1      41.460 -14.034   0.723  1.00  0.00     0.086 A 
HETATM   15  C   UNL     1      41.648 -12.686   0.297  1.00  0.00     0.079 A 
HETATM   16  C   UNL     1      41.866 -11.446   1.084  1.00  0.00     0.075 C 
HETATM   17  N   UNL     1      41.684 -12.596  -1.042  1.00  0.00    -0.177 NA
HETATM   18  N   UNL     1      41.534 -13.855  -1.462  1.00  0.00    -0.280 N 
HETATM   19  H   UNL     1      41.525 -14.024  -2.462  1.00  0.00     0.189 HD
HETATM   20  C   UNL     1      41.418 -14.765  -0.451  1.00  0.00     0.052 A 
HETATM   21  C   UNL     1      41.239 -16.209  -0.730  1.00  0.00     0.072 C 
ENDBRANCH  10  14
ENDBRANCH   3   8
BRANCH   6  22
HETATM   22  C   UNL     1      44.108 -19.120   5.968  1.00  0.00     0.252 C 
HETATM   23  N   UNL     1      44.761 -20.099   5.273  1.00  0.00    -0.352 N 
HETATM   24  H   UNL     1      45.268 -20.675   5.937  1.00  0.00     0.163 HD
HETATM   25  O   UNL     1      44.284 -19.087   7.188  1.00  0.00    -0.268 OA
BRANCH  23  26
HETATM   26  C   UNL     1      44.909 -20.524   3.892  1.00  0.00     0.084 C 
HETATM   27  C   UNL     1      44.545 -21.983   3.628  1.00  0.00     0.025 C 
HETATM   28  C   UNL     1      44.346 -22.021   2.121  1.00  0.00     0.002 C 
HETATM   29  C   UNL     1      43.660 -20.698   1.808  1.00  0.00     0.002 C 
HETATM   30  C   UNL     1      44.247 -19.688   2.796  1.00  0.00     0.025 C 
ENDBRANCH  23  26
ENDBRANCH   6  22
TORSDOF 4
ENDMDL
MODEL 5
REMARK VINA RESULT:      -8.4      3.040      4.815
REMARK  4 active torsions:
REMARK  status: ('A' for Active; 'I' for Inactive)
REMARK    1  A    between atoms: C_3  and  N_4 
REMARK       I    between atoms: N_4  and  C_5 
REMARK       I    between atoms: C_5  and  N_6 
REMARK    2  A    between atoms: N_6  and  C_7 
REMARK    3  A    between atoms: C_18  and  C_19 
REMARK       I    between atoms: C_19  and  N_20 
REMARK    4  A    between atoms: N_20  and  C_21 
ROOT
HETATM    1  C   UNL     1      42.330 -17.033   0.622  1.00  0.00     0.050 C 
HETATM    2  C   UNL     1      42.226 -17.394   2.080  1.00  0.00    -0.034 A 
HETATM    3  C   UNL     1      41.123 -17.094   2.892  1.00  0.00     0.042 A 
HETATM    4  C   UNL     1      41.050 -17.633   4.184  1.00  0.00     0.031 A 
HETATM    5  C   UNL     1      42.115 -18.360   4.725  1.00  0.00     0.019 A 
HETATM    6  C   UNL     1      43.247 -18.615   3.960  1.00  0.00     0.032 A 
HETATM    7  C   UNL     1      43.291 -18.129   2.641  1.00  0.00     0.026 A 
ENDROOT
BRANCH   3   8
HETATM    8  N   UNL     1      40.027 -16.313   2.490  1.00  0.00    -0.308 N 
HETATM    9  C   UNL     1      39.858 -14.950   2.489  1.00  0.00     0.325 C 
HETATM   10  N   UNL     1      40.888 -14.195   2.972  1.00  0.00    -0.305 N 
HETATM   11  O   UNL     1      38.764 -14.526   2.122  1.00  0.00    -0.247 OA
HETATM   12  H   UNL     1      41.765 -14.660   3.135  1.00  0.00     0.171 HD
HETATM   13  H   UNL     1      39.116 -16.756   2.500  1.00  0.00     0.170 HD
BRANCH  10  14
HETATM   14  C   UNL     1      40.884 -12.827   3.203  1.00  0.00     0.086 A 
HETATM   15  C   UNL     1      40.476 -12.018   4.305  1.00  0.00     0.079 A 
HETATM   16  C   UNL     1      39.955 -12.400   5.641  1.00  0.00     0.075 C 
HETATM   17  N   UNL     1      40.674 -10.715   4.055  1.00  0.00    -0.177 NA
HETATM   18  N   UNL     1      41.206 -10.690   2.831  1.00  0.00    -0.280 N 
HETATM   19  H   UNL     1      41.435  -9.787   2.431  1.00  0.00     0.189 HD
HETATM   20  C   UNL     1      41.378 -11.926   2.277  1.00  0.00     0.052 A 
HETATM   21  C   UNL     1      41.950 -12.091   0.921  1.00  0.00     0.072 C 
ENDBRANCH  10  14
ENDBRANCH   3   8
BRANCH   6  22
HETATM   22  C   UNL     1      44.473 -19.262   4.483  1.00  0.00     0.252 C 
HETATM   23  N   UNL     1      45.114 -18.932   5.644  1.00  0.00    -0.352 N 
HETATM   24  H   UNL     1      45.927 -19.531   5.739  1.00  0.00     0.163 HD
HETATM   25  O   UNL     1      44.941 -20.199   3.832  1.00  0.00    -0.268 OA
BRANCH  23  26
HETATM   26  C   UNL     1      44.952 -17.983   6.731  1.00  0.00     0.084 C 
HETATM   27  C   UNL     1      44.557 -16.573   6.298  1.00  0.00     0.025 C 
HETATM   28  C   UNL     1      44.023 -15.955   7.581  1.00  0.00     0.002 C 
HETATM   29  C   UNL     1      43.267 -17.095   8.250  1.00  0.00     0.002 C 
HETATM   30  C   UNL     1      44.048 -18.364   7.905  1.00  0.00     0.025 C 
ENDBRANCH  23  26
ENDBRANCH   6  22
TORSDOF 4
ENDMDL
MODEL 6
REMARK VINA RESULT:      -8.4      1.839      2.555
REMARK  4 active torsions:
REMARK  status: ('A' for Active; 'I' for Inactive)
REMARK    1  A    between atoms: C_3  and  N_4 
REMARK       I    between atoms: N_4  and  C_5 
REMARK       I    between atoms: C_5  and  N_6 
REMARK    2  A    between atoms: N_6  and  C_7 
REMARK    3  A    between atoms: C_18  and  C_19 
REMARK       I    between atoms: C_19  and  N_20 
REMARK    4  A    between atoms: N_20  and  C_21 
ROOT
HETATM    1  C   UNL     1      39.780 -16.431   2.281  1.00  0.00     0.050 C 
HETATM    2  C   UNL     1      41.225 -16.833   2.151  1.00  0.00    -0.034 A 
HETATM    3  C   UNL     1      41.952 -16.791   0.954  1.00  0.00     0.042 A 
HETATM    4  C   UNL     1      43.337 -17.013   0.979  1.00  0.00     0.031 A 
HETATM    5  C   UNL     1      43.985 -17.402   2.156  1.00  0.00     0.019 A 
HETATM    6  C   UNL     1      43.271 -17.513   3.342  1.00  0.00     0.032 A 
HETATM    7  C   UNL     1      41.895 -17.226   3.329  1.00  0.00     0.026 A 
ENDROOT
BRANCH   3   8
HETATM    8  N   UNL     1      41.403 -16.488  -0.303  1.00  0.00    -0.308 N 
HETATM    9  C   UNL     1      41.256 -15.282  -0.943  1.00  0.00     0.325 C 
HETATM   10  N   UNL     1      41.676 -14.168  -0.274  1.00  0.00    -0.305 N 
HETATM   11  O   UNL     1      40.690 -15.298  -2.034  1.00  0.00    -0.247 OA
HETATM   12  H   UNL     1      42.220 -14.307   0.560  1.00  0.00     0.171 HD
HETATM   13  H   UNL     1      40.732 -17.145  -0.684  1.00  0.00     0.170 HD
BRANCH  10  14
HETATM   14  C   UNL     1      41.494 -12.846  -0.656  1.00  0.00     0.086 A 
HETATM   15  C   UNL     1      41.984 -12.062  -1.742  1.00  0.00     0.079 A 
HETATM   16  C   UNL     1      42.839 -12.437  -2.896  1.00  0.00     0.075 C 
HETATM   17  N   UNL     1      41.514 -10.805  -1.688  1.00  0.00    -0.177 NA
HETATM   18  N   UNL     1      40.736 -10.789  -0.604  1.00  0.00    -0.280 N 
HETATM   19  H   UNL     1      40.273  -9.919  -0.364  1.00  0.00     0.189 HD
HETATM   20  C   UNL     1      40.664 -11.989   0.044  1.00  0.00     0.052 A 
HETATM   21  C   UNL     1      39.850 -12.156   1.270  1.00  0.00     0.072 C 
ENDBRANCH  10  14
ENDBRANCH   3   8
BRANCH   6  22
HETATM   22  C   UNL     1      43.839 -18.038   4.607  1.00  0.00     0.252 C 
HETATM   23  N   UNL     1      44.492 -19.229   4.751  1.00  0.00    -0.352 N 
HETATM   24  H   UNL     1      44.757 -19.331   5.725  1.00  0.00     0.163 HD
HETATM   25  O   UNL     1      43.742 -17.328   5.610  1.00  0.00    -0.268 OA
BRANCH  23  26
HETATM   26  C   UNL     1      44.885 -20.351   3.916  1.00  0.00     0.084 C 
HETATM   27  C   UNL     1      44.680 -21.725   4.549  1.00  0.00     0.025 C 
HETATM   28  C   UNL     1      44.721 -22.665   3.355  1.00  0.00     0.002 C 
HETATM   29  C   UNL     1      43.992 -21.898   2.260  1.00  0.00     0.002 C 
HETATM   30  C   UNL     1      44.339 -20.426   2.489  1.00  0.00     0.025 C 
ENDBRANCH  23  26
ENDBRANCH   6  22
TORSDOF 4
ENDMDL
MODEL 7
REMARK VINA RESULT:      -8.3      2.547      3.676
REMARK  4 active torsions:
REMARK  status: ('A' for Active; 'I' for Inactive)
REMARK    1  A    between atoms: C_3  and  N_4 
REMARK       I    between atoms: N_4  and  C_5 
REMARK       I    between atoms: C_5  and  N_6 
REMARK    2  A    between atoms: N_6  and  C_7 
REMARK    3  A    between atoms: C_18  and  C_19 
REMARK       I    between atoms: C_19  and  N_20 
REMARK    4  A    between atoms: N_20  and  C_21 
ROOT
HETATM    1  C   UNL     1      40.260 -15.279   5.748  1.00  0.00     0.050 C 
HETATM    2  C   UNL     1      41.732 -15.474   5.998  1.00  0.00    -0.034 A 
HETATM    3  C   UNL     1      42.739 -14.656   5.465  1.00  0.00     0.042 A 
HETATM    4  C   UNL     1      44.061 -14.815   5.906  1.00  0.00     0.031 A 
HETATM    5  C   UNL     1      44.415 -15.856   6.770  1.00  0.00     0.019 A 
HETATM    6  C   UNL     1      43.442 -16.719   7.258  1.00  0.00     0.032 A 
HETATM    7  C   UNL     1      42.107 -16.518   6.868  1.00  0.00     0.026 A 
ENDROOT
BRANCH   3   8
HETATM    8  N   UNL     1      42.521 -13.627   4.535  1.00  0.00    -0.308 N 
HETATM    9  C   UNL     1      42.132 -13.684   3.219  1.00  0.00     0.325 C 
HETATM   10  N   UNL     1      41.940 -14.925   2.681  1.00  0.00    -0.305 N 
HETATM   11  O   UNL     1      42.062 -12.617   2.613  1.00  0.00    -0.247 OA
HETATM   12  H   UNL     1      41.923 -15.705   3.314  1.00  0.00     0.171 HD
HETATM   13  H   UNL     1      43.000 -12.749   4.697  1.00  0.00     0.170 HD
BRANCH  10  14
HETATM   14  C   UNL     1      41.694 -15.228   1.349  1.00  0.00     0.086 A 
HETATM   15  C   UNL     1      40.813 -14.688   0.366  1.00  0.00     0.079 A 
HETATM   16  C   UNL     1      39.876 -13.539   0.436  1.00  0.00     0.075 C 
HETATM   17  N   UNL     1      40.941 -15.326  -0.808  1.00  0.00    -0.177 NA
HETATM   18  N   UNL     1      41.886 -16.242  -0.585  1.00  0.00    -0.280 N 
HETATM   19  H   UNL     1      42.143 -16.854  -1.352  1.00  0.00     0.189 HD
HETATM   20  C   UNL     1      42.392 -16.218   0.682  1.00  0.00     0.052 A 
HETATM   21  C   UNL     1      43.446 -17.168   1.110  1.00  0.00     0.072 C 
ENDBRANCH  10  14
ENDBRANCH   3   8
BRANCH   6  22
HETATM   22  C   UNL     1      43.735 -17.923   8.072  1.00  0.00     0.252 C 
HETATM   23  N   UNL     1      43.896 -19.190   7.589  1.00  0.00    -0.352 N 
HETATM   24  H   UNL     1      44.073 -19.809   8.373  1.00  0.00     0.163 HD
HETATM   25  O   UNL     1      43.875 -17.765   9.287  1.00  0.00    -0.268 OA
BRANCH  23  26
HETATM   26  C   UNL     1      43.874 -19.863   6.302  1.00  0.00     0.084 C 
HETATM   27  C   UNL     1      44.866 -19.318   5.276  1.00  0.00     0.025 C 
HETATM   28  C   UNL     1      44.958 -20.440   4.255  1.00  0.00     0.002 C 
HETATM   29  C   UNL     1      44.914 -21.707   5.098  1.00  0.00     0.002 C 
HETATM   30  C   UNL     1      43.988 -21.388   6.272  1.00  0.00     0.025 C 
ENDBRANCH  23  26
ENDBRANCH   6  22
TORSDOF 4
ENDMDL
MODEL 8
REMARK VINA RESULT:      -8.3      2.409      4.064
REMARK  4 active torsions:
REMARK  status: ('A' for Active; 'I' for Inactive)
REMARK    1  A    between atoms: C_3  and  N_4 
REMARK       I    between atoms: N_4  and  C_5 
REMARK       I    between atoms: C_5  and  N_6 
REMARK    2  A    between atoms: N_6  and  C_7 
REMARK    3  A    between atoms: C_18  and  C_19 
REMARK       I    between atoms: C_19  and  N_20 
REMARK    4  A    between atoms: N_20  and  C_21 
ROOT
HETATM    1  C   UNL     1      40.568 -16.750   3.417  1.00  0.00     0.050 C 
HETATM    2  C   UNL     1      41.796 -17.416   2.855  1.00  0.00    -0.034 A 
HETATM    3  C   UNL     1      42.225 -17.290   1.526  1.00  0.00     0.042 A 
HETATM    4  C   UNL     1      43.475 -17.803   1.153  1.00  0.00     0.031 A 
HETATM    5  C   UNL     1      44.248 -18.549   2.050  1.00  0.00     0.019 A 
HETATM    6  C   UNL     1      43.811 -18.741   3.355  1.00  0.00     0.032 A 
HETATM    7  C   UNL     1      42.587 -18.170   3.746  1.00  0.00     0.026 A 
ENDROOT
BRANCH   3   8
HETATM    8  N   UNL     1      41.506 -16.631   0.515  1.00  0.00    -0.308 N 
HETATM    9  C   UNL     1      41.388 -15.292   0.236  1.00  0.00     0.325 C 
HETATM   10  N   UNL     1      42.037 -14.423   1.066  1.00  0.00    -0.305 N 
HETATM   11  O   UNL     1      40.646 -14.982  -0.694  1.00  0.00    -0.247 OA
HETATM   12  H   UNL     1      42.697 -14.813   1.717  1.00  0.00     0.171 HD
HETATM   13  H   UNL     1      40.711 -17.120   0.120  1.00  0.00     0.170 HD
BRANCH  10  14
HETATM   14  C   UNL     1      41.941 -13.039   1.066  1.00  0.00     0.086 A 
HETATM   15  C   UNL     1      42.204 -12.036   0.087  1.00  0.00     0.079 A 
HETATM   16  C   UNL     1      42.629 -12.159  -1.330  1.00  0.00     0.075 C 
HETATM   17  N   UNL     1      41.952 -10.808   0.565  1.00  0.00    -0.177 NA
HETATM   18  N   UNL     1      41.528 -11.019   1.813  1.00  0.00    -0.280 N 
HETATM   19  H   UNL     1      41.282 -10.211   2.374  1.00  0.00     0.189 HD
HETATM   20  C   UNL     1      41.477 -12.338   2.164  1.00  0.00     0.052 A 
HETATM   21  C   UNL     1      41.035 -12.760   3.514  1.00  0.00     0.072 C 
ENDBRANCH  10  14
ENDBRANCH   3   8
BRANCH   6  22
HETATM   22  C   UNL     1      44.492 -19.618   4.337  1.00  0.00     0.252 C 
HETATM   23  N   UNL     1      44.685 -19.333   5.658  1.00  0.00    -0.352 N 
HETATM   24  H   UNL     1      45.188 -20.106   6.081  1.00  0.00     0.163 HD
HETATM   25  O   UNL     1      44.893 -20.713   3.936  1.00  0.00    -0.268 OA
BRANCH  23  26
HETATM   26  C   UNL     1      44.381 -18.255   6.583  1.00  0.00     0.084 C 
HETATM   27  C   UNL     1      44.912 -16.885   6.168  1.00  0.00     0.025 C 
HETATM   28  C   UNL     1      44.093 -15.925   7.016  1.00  0.00     0.002 C 
HETATM   29  C   UNL     1      42.703 -16.547   7.034  1.00  0.00     0.002 C 
HETATM   30  C   UNL     1      42.930 -18.060   7.027  1.00  0.00     0.025 C 
ENDBRANCH  23  26
ENDBRANCH   6  22
TORSDOF 4
ENDMDL
MODEL 9
REMARK VINA RESULT:      -8.3      5.904      8.706
REMARK  4 active torsions:
REMARK  status: ('A' for Active; 'I' for Inactive)
REMARK    1  A    between atoms: C_3  and  N_4 
REMARK       I    between atoms: N_4  and  C_5 
REMARK       I    between atoms: C_5  and  N_6 
REMARK    2  A    between atoms: N_6  and  C_7 
REMARK    3  A    between atoms: C_18  and  C_19 
REMARK       I    between atoms: C_19  and  N_20 
REMARK    4  A    between atoms: N_20  and  C_21 
ROOT
HETATM    1  C   UNL     1      39.110 -12.732   6.752  1.00  0.00     0.050 C 
HETATM    2  C   UNL     1      40.341 -13.161   5.999  1.00  0.00    -0.034 A 
HETATM    3  C   UNL     1      41.492 -12.375   5.852  1.00  0.00     0.042 A 
HETATM    4  C   UNL     1      42.645 -12.939   5.289  1.00  0.00     0.031 A 
HETATM    5  C   UNL     1      42.631 -14.232   4.754  1.00  0.00     0.019 A 
HETATM    6  C   UNL     1      41.480 -15.006   4.831  1.00  0.00     0.032 A 
HETATM    7  C   UNL     1      40.344 -14.463   5.455  1.00  0.00     0.026 A 
ENDROOT
BRANCH   3   8
HETATM    8  N   UNL     1      41.606 -11.042   6.279  1.00  0.00    -0.308 N 
HETATM    9  C   UNL     1      42.061 -10.523   7.467  1.00  0.00     0.325 C 
HETATM   10  N   UNL     1      42.450 -11.414   8.426  1.00  0.00    -0.305 N 
HETATM   11  O   UNL     1      42.009  -9.302   7.595  1.00  0.00    -0.247 OA
HETATM   12  H   UNL     1      42.547 -12.376   8.151  1.00  0.00     0.171 HD
HETATM   13  H   UNL     1      41.002 -10.361   5.834  1.00  0.00     0.170 HD
BRANCH  10  14
HETATM   14  C   UNL     1      42.799 -11.129   9.738  1.00  0.00     0.086 A 
HETATM   15  C   UNL     1      44.045 -10.908  10.397  1.00  0.00     0.079 A 
HETATM   16  C   UNL     1      45.426 -10.852   9.857  1.00  0.00     0.075 C 
HETATM   17  N   UNL     1      43.869 -10.657  11.704  1.00  0.00    -0.177 NA
HETATM   18  N   UNL     1      42.545 -10.705  11.875  1.00  0.00    -0.280 N 
HETATM   19  H   UNL     1      42.181 -10.547  12.808  1.00  0.00     0.189 HD
HETATM   20  C   UNL     1      41.849 -10.961  10.729  1.00  0.00     0.052 A 
HETATM   21  C   UNL     1      40.370 -11.055  10.730  1.00  0.00     0.072 C 
ENDBRANCH  10  14
ENDBRANCH   3   8
BRANCH   6  22
HETATM   22  C   UNL     1      41.327 -16.331   4.184  1.00  0.00     0.252 C 
HETATM   23  N   UNL     1      41.848 -17.506   4.647  1.00  0.00    -0.352 N 
HETATM   24  H   UNL     1      41.595 -18.244   3.997  1.00  0.00     0.163 HD
HETATM   25  O   UNL     1      40.647 -16.386   3.157  1.00  0.00    -0.268 OA
BRANCH  23  26
HETATM   26  C   UNL     1      42.644 -17.963   5.772  1.00  0.00     0.084 C 
HETATM   27  C   UNL     1      44.154 -17.818   5.591  1.00  0.00     0.025 C 
HETATM   28  C   UNL     1      44.684 -17.919   7.012  1.00  0.00     0.002 C 
HETATM   29  C   UNL     1      43.652 -17.165   7.841  1.00  0.00     0.002 C 
HETATM   30  C   UNL     1      42.306 -17.436   7.168  1.00  0.00     0.025 C 
ENDBRANCH  23  26
ENDBRANCH   6  22
TORSDOF 4
ENDMDL
MODEL 10
REMARK VINA RESULT:      -8.2      1.720      7.657
REMARK  4 active torsions:
REMARK  status: ('A' for Active; 'I' for Inactive)
REMARK    1  A    between atoms: C_3  and  N_4 
REMARK       I    between atoms: N_4  and  C_5 
REMARK       I    between atoms: C_5  and  N_6 
REMARK    2  A    between atoms: N_6  and  C_7 
REMARK    3  A    between atoms: C_18  and  C_19 
REMARK       I    between atoms: C_19  and  N_20 
REMARK    4  A    between atoms: N_20  and  C_21 
ROOT
HETATM    1  C   UNL     1      42.636 -13.590   3.830  1.00  0.00     0.050 C 
HETATM    2  C   UNL     1      41.847 -14.246   2.728  1.00  0.00    -0.034 A 
HETATM    3  C   UNL     1      41.028 -15.370   2.905  1.00  0.00     0.042 A 
HETATM    4  C   UNL     1      40.198 -15.790   1.856  1.00  0.00     0.031 A 
HETATM    5  C   UNL     1      40.262 -15.186   0.596  1.00  0.00     0.019 A 
HETATM    6  C   UNL     1      41.115 -14.110   0.381  1.00  0.00     0.032 A 
HETATM    7  C   UNL     1      41.899 -13.648   1.452  1.00  0.00     0.026 A 
ENDROOT
BRANCH   3   8
HETATM    8  N   UNL     1      40.932 -16.107   4.097  1.00  0.00    -0.308 N 
HETATM    9  C   UNL     1      41.752 -17.082   4.609  1.00  0.00     0.325 C 
HETATM   10  N   UNL     1      42.835 -17.442   3.858  1.00  0.00    -0.305 N 
HETATM   11  O   UNL     1      41.403 -17.603   5.666  1.00  0.00    -0.247 OA
HETATM   12  H   UNL     1      43.064 -16.861   3.071  1.00  0.00     0.171 HD
HETATM   13  H   UNL     1      40.010 -16.207   4.504  1.00  0.00     0.170 HD
BRANCH  10  14
HETATM   14  C   UNL     1      43.707 -18.494   4.101  1.00  0.00     0.086 A 
HETATM   15  C   UNL     1      44.609 -18.795   5.165  1.00  0.00     0.079 A 
HETATM   16  C   UNL     1      44.874 -18.080   6.438  1.00  0.00     0.075 C 
HETATM   17  N   UNL     1      45.248 -19.956   4.949  1.00  0.00    -0.177 NA
HETATM   18  N   UNL     1      44.760 -20.390   3.785  1.00  0.00    -0.280 N 
HETATM   19  H   UNL     1      45.116 -21.267   3.419  1.00  0.00     0.189 HD
HETATM   20  C   UNL     1      43.816 -19.569   3.239  1.00  0.00     0.052 A 
HETATM   21  C   UNL     1      43.170 -19.891   1.946  1.00  0.00     0.072 C 
ENDBRANCH  10  14
ENDBRANCH   3   8
BRANCH   6  22
HETATM   22  C   UNL     1      41.348 -13.489  -0.944  1.00  0.00     0.252 C 
HETATM   23  N   UNL     1      40.685 -13.802  -2.097  1.00  0.00    -0.352 N 
HETATM   24  H   UNL     1      41.061 -13.228  -2.846  1.00  0.00     0.163 HD
HETATM   25  O   UNL     1      42.190 -12.590  -1.009  1.00  0.00    -0.268 OA
BRANCH  23  26
HETATM   26  C   UNL     1      39.633 -14.708  -2.523  1.00  0.00     0.084 C 
HETATM   27  C   UNL     1      38.481 -14.045  -3.274  1.00  0.00     0.025 C 
HETATM   28  C   UNL     1      37.805 -15.215  -3.972  1.00  0.00     0.002 C 
HETATM   29  C   UNL     1      38.965 -16.102  -4.406  1.00  0.00     0.002 C 
HETATM   30  C   UNL     1      40.022 -15.961  -3.309  1.00  0.00     0.025 C 
ENDBRANCH  23  26
ENDBRANCH   6  22
TORSDOF 4
ENDMDL
