MODEL 1
REMARK VINA RESULT:      -7.5      0.000      0.000
REMARK  7 active torsions:
REMARK  status: ('A' for Active; 'I' for Inactive)
REMARK    1  A    between atoms: C_2  and  C_3 
REMARK    2  A    between atoms: C_3  and  N_4 
REMARK    3  A    between atoms: C_3  and  C_15 
REMARK       I    between atoms: N_4  and  C_5 
REMARK    4  A    between atoms: C_5  and  C_6 
REMARK    5  A    between atoms: C_9  and  O_10 
REMARK    6  A    between atoms: C_15  and  N_16 
REMARK    7  A    between atoms: C_18  and  C_19 
ROOT
HETATM    1  C   UNL     1      41.849 -14.880   4.999  1.00  0.00     0.107 C 
ENDROOT
BRANCH   1   2
HETATM    2  C   UNL     1      41.350 -13.569   5.667  1.00  0.00     0.002 C 
HETATM    3  C   UNL     1      39.829 -13.516   5.847  1.00  0.00     0.011 C 
HETATM    4  C   UNL     1      41.819 -12.321   4.913  1.00  0.00     0.011 C 
ENDBRANCH   1   2
BRANCH   1   5
HETATM    5  N   UNL     1      41.111 -15.186   3.769  1.00  0.00    -0.354 N 
HETATM    6  C   UNL     1      41.726 -15.546   2.590  1.00  0.00     0.222 C 
HETATM    7  O   UNL     1      42.943 -15.548   2.444  1.00  0.00    -0.273 OA
HETATM    8  H   UNL     1      40.120 -15.403   3.866  1.00  0.00     0.162 HD
BRANCH   6   9
HETATM    9  C   UNL     1      40.743 -15.972   1.495  1.00  0.00     0.078 C 
HETATM   10  C   UNL     1      39.444 -15.156   1.537  1.00  0.00     0.016 C 
HETATM   11  C   UNL     1      39.611 -13.748   0.957  1.00  0.00     0.033 C 
HETATM   12  C   UNL     1      40.182 -13.775  -0.463  1.00  0.00     0.120 C 
HETATM   13  C   UNL     1      41.515 -14.527  -0.476  1.00  0.00     0.033 C 
HETATM   14  C   UNL     1      41.384 -15.940   0.099  1.00  0.00     0.016 C 
BRANCH  12  15
HETATM   15  O   UNL     1      39.208 -14.409  -1.302  1.00  0.00    -0.391 OA
HETATM   16  C   UNL     1      38.067 -13.604  -1.564  1.00  0.00     0.202 C 
ENDBRANCH  12  15
ENDBRANCH   6   9
ENDBRANCH   1   5
BRANCH   1  17
HETATM   17  C   UNL     1      41.782 -16.069   5.991  1.00  0.00     0.180 C 
BRANCH  17  18
HETATM   18  N   UNL     1      42.987 -16.898   5.957  1.00  0.00    -0.232 N 
HETATM   19  N   UNL     1      43.033 -17.856   4.968  1.00  0.00    -0.168 NA
HETATM   20  C   UNL     1      44.055 -18.662   4.920  1.00  0.00     0.094 A 
HETATM   21  C   UNL     1      45.173 -18.588   5.895  1.00  0.00     0.040 A 
HETATM   22  C   UNL     1      45.105 -17.664   6.855  1.00  0.00     0.078 A 
HETATM   23  C   UNL     1      43.951 -16.750   6.943  1.00  0.00     0.263 A 
HETATM   24  O   UNL     1      43.894 -15.938   7.865  1.00  0.00    -0.267 OA
BRANCH  20  25
HETATM   25  C   UNL     1      44.058 -19.662   3.853  1.00  0.00     0.035 A 
HETATM   26  S   UNL     1      44.798 -21.202   4.018  1.00  0.00    -0.100 SA
HETATM   27  C   UNL     1      44.367 -21.673   2.435  1.00  0.00     0.050 A 
HETATM   28  C   UNL     1      43.673 -20.685   1.776  1.00  0.00     0.008 A 
HETATM   29  C   UNL     1      43.498 -19.530   2.590  1.00  0.00     0.022 A 
ENDBRANCH  20  25
ENDBRANCH  17  18
ENDBRANCH   1  17
TORSDOF 7
ENDMDL
MODEL 2
REMARK VINA RESULT:      -7.4      3.629      7.539
REMARK  7 active torsions:
REMARK  status: ('A' for Active; 'I' for Inactive)
REMARK    1  A    between atoms: C_2  and  C_3 
REMARK    2  A    between atoms: C_3  and  N_4 
REMARK    3  A    between atoms: C_3  and  C_15 
REMARK       I    between atoms: N_4  and  C_5 
REMARK    4  A    between atoms: C_5  and  C_6 
REMARK    5  A    between atoms: C_9  and  O_10 
REMARK    6  A    between atoms: C_15  and  N_16 
REMARK    7  A    between atoms: C_18  and  C_19 
ROOT
HETATM    1  C   UNL     1      40.745 -13.953   1.752  1.00  0.00     0.107 C 
ENDROOT
BRANCH   1   2
HETATM    2  C   UNL     1      39.607 -13.766   2.792  1.00  0.00     0.002 C 
HETATM    3  C   UNL     1      39.180 -12.305   2.975  1.00  0.00     0.011 C 
HETATM    4  C   UNL     1      39.964 -14.368   4.155  1.00  0.00     0.011 C 
ENDBRANCH   1   2
BRANCH   1   5
HETATM    5  N   UNL     1      41.850 -14.757   2.284  1.00  0.00    -0.354 N 
HETATM    6  C   UNL     1      42.452 -15.774   1.576  1.00  0.00     0.222 C 
HETATM    7  O   UNL     1      42.053 -16.154   0.480  1.00  0.00    -0.273 OA
HETATM    8  H   UNL     1      42.359 -14.375   3.080  1.00  0.00     0.162 HD
BRANCH   6   9
HETATM    9  C   UNL     1      43.683 -16.359   2.274  1.00  0.00     0.078 C 
HETATM   10  C   UNL     1      43.420 -16.651   3.758  1.00  0.00     0.016 C 
HETATM   11  C   UNL     1      42.591 -17.920   3.973  1.00  0.00     0.033 C 
HETATM   12  C   UNL     1      43.218 -19.139   3.289  1.00  0.00     0.120 C 
HETATM   13  C   UNL     1      43.405 -18.860   1.796  1.00  0.00     0.033 C 
HETATM   14  C   UNL     1      44.230 -17.595   1.544  1.00  0.00     0.016 C 
BRANCH  12  15
HETATM   15  O   UNL     1      44.468 -19.397   3.941  1.00  0.00    -0.391 OA
HETATM   16  C   UNL     1      44.332 -19.979   5.229  1.00  0.00     0.202 C 
ENDBRANCH  12  15
ENDBRANCH   6   9
ENDBRANCH   1   5
BRANCH   1  17
HETATM   17  C   UNL     1      41.259 -12.583   1.239  1.00  0.00     0.180 C 
BRANCH  17  18
HETATM   18  N   UNL     1      41.422 -12.553  -0.215  1.00  0.00    -0.232 N 
HETATM   19  N   UNL     1      40.587 -13.379  -0.933  1.00  0.00    -0.168 NA
HETATM   20  C   UNL     1      40.721 -13.438  -2.227  1.00  0.00     0.094 A 
HETATM   21  C   UNL     1      41.744 -12.648  -2.958  1.00  0.00     0.040 A 
HETATM   22  C   UNL     1      42.555 -11.864  -2.244  1.00  0.00     0.078 A 
HETATM   23  C   UNL     1      42.436 -11.792  -0.777  1.00  0.00     0.263 A 
HETATM   24  O   UNL     1      43.225 -11.095  -0.141  1.00  0.00    -0.267 OA
BRANCH  20  25
HETATM   25  C   UNL     1      39.811 -14.331  -2.946  1.00  0.00     0.035 A 
HETATM   26  S   UNL     1      38.153 -13.969  -3.197  1.00  0.00    -0.100 SA
HETATM   27  C   UNL     1      37.875 -15.425  -4.042  1.00  0.00     0.050 A 
HETATM   28  C   UNL     1      39.015 -16.188  -4.139  1.00  0.00     0.008 A 
HETATM   29  C   UNL     1      40.126 -15.559  -3.508  1.00  0.00     0.022 A 
ENDBRANCH  20  25
ENDBRANCH  17  18
ENDBRANCH   1  17
TORSDOF 7
ENDMDL
MODEL 3
REMARK VINA RESULT:      -7.3      1.966      2.830
REMARK  7 active torsions:
REMARK  status: ('A' for Active; 'I' for Inactive)
REMARK    1  A    between atoms: C_2  and  C_3 
REMARK    2  A    between atoms: C_3  and  N_4 
REMARK    3  A    between atoms: C_3  and  C_15 
REMARK       I    between atoms: N_4  and  C_5 
REMARK    4  A    between atoms: C_5  and  C_6 
REMARK    5  A    between atoms: C_9  and  O_10 
REMARK    6  A    between atoms: C_15  and  N_16 
REMARK    7  A    between atoms: C_18  and  C_19 
ROOT
HETATM    1  C   UNL     1      41.466 -15.696   5.228  1.00  0.00     0.107 C 
ENDROOT
BRANCH   1   2
HETATM    2  C   UNL     1      41.063 -16.691   6.351  1.00  0.00     0.002 C 
HETATM    3  C   UNL     1      42.232 -17.092   7.258  1.00  0.00     0.011 C 
HETATM    4  C   UNL     1      40.393 -17.951   5.795  1.00  0.00     0.011 C 
ENDBRANCH   1   2
BRANCH   1   5
HETATM    5  N   UNL     1      40.739 -15.952   3.980  1.00  0.00    -0.354 N 
HETATM    6  C   UNL     1      40.042 -14.977   3.300  1.00  0.00     0.222 C 
HETATM    7  O   UNL     1      39.892 -13.839   3.729  1.00  0.00    -0.273 OA
HETATM    8  H   UNL     1      40.984 -16.797   3.467  1.00  0.00     0.162 HD
BRANCH   6   9
HETATM    9  C   UNL     1      39.503 -15.446   1.945  1.00  0.00     0.078 C 
HETATM   10  C   UNL     1      38.230 -14.690   1.538  1.00  0.00     0.016 C 
HETATM   11  C   UNL     1      38.519 -13.275   1.029  1.00  0.00     0.033 C 
HETATM   12  C   UNL     1      39.534 -13.274  -0.118  1.00  0.00     0.120 C 
HETATM   13  C   UNL     1      40.826 -13.963   0.327  1.00  0.00     0.033 C 
HETATM   14  C   UNL     1      40.572 -15.382   0.844  1.00  0.00     0.016 C 
BRANCH  12  15
HETATM   15  O   UNL     1      38.926 -13.950  -1.226  1.00  0.00    -0.391 OA
HETATM   16  C   UNL     1      39.670 -13.856  -2.432  1.00  0.00     0.202 C 
ENDBRANCH  12  15
ENDBRANCH   6   9
ENDBRANCH   1   5
BRANCH   1  17
HETATM   17  C   UNL     1      42.997 -15.720   4.987  1.00  0.00     0.180 C 
BRANCH  17  18
HETATM   18  N   UNL     1      43.367 -16.484   3.795  1.00  0.00    -0.232 N 
HETATM   19  N   UNL     1      43.598 -17.828   3.987  1.00  0.00    -0.168 NA
HETATM   20  C   UNL     1      43.985 -18.550   2.975  1.00  0.00     0.094 A 
HETATM   21  C   UNL     1      44.189 -17.977   1.621  1.00  0.00     0.040 A 
HETATM   22  C   UNL     1      43.975 -16.671   1.456  1.00  0.00     0.078 A 
HETATM   23  C   UNL     1      43.553 -15.827   2.588  1.00  0.00     0.263 A 
HETATM   24  O   UNL     1      43.407 -14.618   2.417  1.00  0.00    -0.267 OA
BRANCH  20  25
HETATM   25  C   UNL     1      44.218 -19.972   3.229  1.00  0.00     0.035 A 
HETATM   26  S   UNL     1      44.711 -20.580   4.756  1.00  0.00    -0.100 SA
HETATM   27  C   UNL     1      44.746 -22.192   4.199  1.00  0.00     0.050 A 
HETATM   28  C   UNL     1      44.394 -22.285   2.873  1.00  0.00     0.008 A 
HETATM   29  C   UNL     1      44.092 -21.009   2.316  1.00  0.00     0.022 A 
ENDBRANCH  20  25
ENDBRANCH  17  18
ENDBRANCH   1  17
TORSDOF 7
ENDMDL
MODEL 4
REMARK VINA RESULT:      -7.1      2.285      4.261
REMARK  7 active torsions:
REMARK  status: ('A' for Active; 'I' for Inactive)
REMARK    1  A    between atoms: C_2  and  C_3 
REMARK    2  A    between atoms: C_3  and  N_4 
REMARK    3  A    between atoms: C_3  and  C_15 
REMARK       I    between atoms: N_4  and  C_5 
REMARK    4  A    between atoms: C_5  and  C_6 
REMARK    5  A    between atoms: C_9  and  O_10 
REMARK    6  A    between atoms: C_15  and  N_16 
REMARK    7  A    between atoms: C_18  and  C_19 
ROOT
HETATM    1  C   UNL     1      41.140 -16.062   3.634  1.00  0.00     0.107 C 
ENDROOT
BRANCH   1   2
HETATM    2  C   UNL     1      40.676 -16.659   2.277  1.00  0.00     0.002 C 
HETATM    3  C   UNL     1      41.791 -16.730   1.228  1.00  0.00     0.011 C 
HETATM    4  C   UNL     1      39.474 -15.908   1.696  1.00  0.00     0.011 C 
ENDBRANCH   1   2
BRANCH   1   5
HETATM    5  N   UNL     1      40.387 -14.854   3.990  1.00  0.00    -0.354 N 
HETATM    6  C   UNL     1      40.133 -14.481   5.292  1.00  0.00     0.222 C 
HETATM    7  O   UNL     1      40.433 -15.174   6.258  1.00  0.00    -0.273 OA
HETATM    8  H   UNL     1      40.290 -14.140   3.270  1.00  0.00     0.162 HD
BRANCH   6   9
HETATM    9  C   UNL     1      39.471 -13.104   5.413  1.00  0.00     0.078 C 
HETATM   10  C   UNL     1      39.952 -12.342   6.655  1.00  0.00     0.016 C 
HETATM   11  C   UNL     1      41.352 -11.747   6.479  1.00  0.00     0.033 C 
HETATM   12  C   UNL     1      41.447 -10.860   5.234  1.00  0.00     0.120 C 
HETATM   13  C   UNL     1      41.038 -11.656   3.994  1.00  0.00     0.033 C 
HETATM   14  C   UNL     1      39.641 -12.267   4.136  1.00  0.00     0.016 C 
BRANCH  12  15
HETATM   15  O   UNL     1      40.589  -9.732   5.448  1.00  0.00    -0.391 OA
HETATM   16  C   UNL     1      41.247  -8.612   6.022  1.00  0.00     0.202 C 
ENDBRANCH  12  15
ENDBRANCH   6   9
ENDBRANCH   1   5
BRANCH   1  17
HETATM   17  C   UNL     1      42.663 -15.776   3.623  1.00  0.00     0.180 C 
BRANCH  17  18
HETATM   18  N   UNL     1      43.419 -16.729   4.436  1.00  0.00    -0.232 N 
HETATM   19  N   UNL     1      43.584 -17.986   3.897  1.00  0.00    -0.168 NA
HETATM   20  C   UNL     1      44.200 -18.895   4.597  1.00  0.00     0.094 A 
HETATM   21  C   UNL     1      44.730 -18.628   5.958  1.00  0.00     0.040 A 
HETATM   22  C   UNL     1      44.548 -17.410   6.471  1.00  0.00     0.078 A 
HETATM   23  C   UNL     1      43.839 -16.367   5.707  1.00  0.00     0.263 A 
HETATM   24  O   UNL     1      43.647 -15.267   6.223  1.00  0.00    -0.267 OA
BRANCH  20  25
HETATM   25  C   UNL     1      44.350 -20.214   3.981  1.00  0.00     0.035 A 
HETATM   26  S   UNL     1      44.814 -21.610   4.865  1.00  0.00    -0.100 SA
HETATM   27  C   UNL     1      44.751 -22.610   3.484  1.00  0.00     0.050 A 
HETATM   28  C   UNL     1      44.387 -21.908   2.358  1.00  0.00     0.008 A 
HETATM   29  C   UNL     1      44.159 -20.532   2.644  1.00  0.00     0.022 A 
ENDBRANCH  20  25
ENDBRANCH  17  18
ENDBRANCH   1  17
TORSDOF 7
ENDMDL
MODEL 5
REMARK VINA RESULT:      -7.0      1.668      2.100
REMARK  7 active torsions:
REMARK  status: ('A' for Active; 'I' for Inactive)
REMARK    1  A    between atoms: C_2  and  C_3 
REMARK    2  A    between atoms: C_3  and  N_4 
REMARK    3  A    between atoms: C_3  and  C_15 
REMARK       I    between atoms: N_4  and  C_5 
REMARK    4  A    between atoms: C_5  and  C_6 
REMARK    5  A    between atoms: C_9  and  O_10 
REMARK    6  A    between atoms: C_15  and  N_16 
REMARK    7  A    between atoms: C_18  and  C_19 
ROOT
HETATM    1  C   UNL     1      41.326 -13.444   4.438  1.00  0.00     0.107 C 
ENDROOT
BRANCH   1   2
HETATM    2  C   UNL     1      40.767 -13.818   5.838  1.00  0.00     0.002 C 
HETATM    3  C   UNL     1      40.244 -15.257   5.921  1.00  0.00     0.011 C 
HETATM    4  C   UNL     1      39.674 -12.850   6.302  1.00  0.00     0.011 C 
ENDBRANCH   1   2
BRANCH   1   5
HETATM    5  N   UNL     1      40.783 -14.303   3.380  1.00  0.00    -0.354 N 
HETATM    6  C   UNL     1      39.786 -13.901   2.519  1.00  0.00     0.222 C 
HETATM    7  O   UNL     1      39.204 -12.827   2.624  1.00  0.00    -0.273 OA
HETATM    8  H   UNL     1      41.344 -15.108   3.105  1.00  0.00     0.162 HD
BRANCH   6   9
HETATM    9  C   UNL     1      39.501 -14.910   1.402  1.00  0.00     0.078 C 
HETATM   10  C   UNL     1      39.037 -14.224   0.110  1.00  0.00     0.016 C 
HETATM   11  C   UNL     1      40.188 -13.571  -0.659  1.00  0.00     0.033 C 
HETATM   12  C   UNL     1      41.318 -14.562  -0.953  1.00  0.00     0.120 C 
HETATM   13  C   UNL     1      41.822 -15.182   0.352  1.00  0.00     0.033 C 
HETATM   14  C   UNL     1      40.694 -15.844   1.148  1.00  0.00     0.016 C 
BRANCH  12  15
HETATM   15  O   UNL     1      40.793 -15.555  -1.844  1.00  0.00    -0.391 OA
HETATM   16  C   UNL     1      40.710 -15.125  -3.195  1.00  0.00     0.202 C 
ENDBRANCH  12  15
ENDBRANCH   6   9
ENDBRANCH   1   5
BRANCH   1  17
HETATM   17  C   UNL     1      42.875 -13.476   4.432  1.00  0.00     0.180 C 
BRANCH  17  18
HETATM   18  N   UNL     1      43.414 -14.711   5.003  1.00  0.00    -0.232 N 
HETATM   19  N   UNL     1      43.324 -15.833   4.209  1.00  0.00    -0.168 NA
HETATM   20  C   UNL     1      43.736 -16.973   4.683  1.00  0.00     0.094 A 
HETATM   21  C   UNL     1      44.296 -17.111   6.051  1.00  0.00     0.040 A 
HETATM   22  C   UNL     1      44.362 -16.017   6.812  1.00  0.00     0.078 A 
HETATM   23  C   UNL     1      43.887 -14.716   6.307  1.00  0.00     0.263 A 
HETATM   24  O   UNL     1      43.918 -13.734   7.046  1.00  0.00    -0.267 OA
BRANCH  20  25
HETATM   25  C   UNL     1      43.620 -18.136   3.802  1.00  0.00     0.035 A 
HETATM   26  S   UNL     1      44.428 -19.620   4.103  1.00  0.00    -0.100 SA
HETATM   27  C   UNL     1      43.791 -20.350   2.698  1.00  0.00     0.050 A 
HETATM   28  C   UNL     1      42.976 -19.491   1.998  1.00  0.00     0.008 A 
HETATM   29  C   UNL     1      42.880 -18.219   2.632  1.00  0.00     0.022 A 
ENDBRANCH  20  25
ENDBRANCH  17  18
ENDBRANCH   1  17
TORSDOF 7
ENDMDL
MODEL 6
REMARK VINA RESULT:      -7.0      2.172      2.893
REMARK  7 active torsions:
REMARK  status: ('A' for Active; 'I' for Inactive)
REMARK    1  A    between atoms: C_2  and  C_3 
REMARK    2  A    between atoms: C_3  and  N_4 
REMARK    3  A    between atoms: C_3  and  C_15 
REMARK       I    between atoms: N_4  and  C_5 
REMARK    4  A    between atoms: C_5  and  C_6 
REMARK    5  A    between atoms: C_9  and  O_10 
REMARK    6  A    between atoms: C_15  and  N_16 
REMARK    7  A    between atoms: C_18  and  C_19 
ROOT
HETATM    1  C   UNL     1      41.778 -14.523   2.272  1.00  0.00     0.107 C 
ENDROOT
BRANCH   1   2
HETATM    2  C   UNL     1      42.610 -13.383   2.921  1.00  0.00     0.002 C 
HETATM    3  C   UNL     1      43.861 -13.881   3.653  1.00  0.00     0.011 C 
HETATM    4  C   UNL     1      41.771 -12.524   3.872  1.00  0.00     0.011 C 
ENDBRANCH   1   2
BRANCH   1   5
HETATM    5  N   UNL     1      41.075 -14.073   1.066  1.00  0.00    -0.354 N 
HETATM    6  C   UNL     1      40.921 -14.859  -0.055  1.00  0.00     0.222 C 
HETATM    7  O   UNL     1      41.439 -15.964  -0.174  1.00  0.00    -0.273 OA
HETATM    8  H   UNL     1      40.455 -13.270   1.164  1.00  0.00     0.162 HD
BRANCH   6   9
HETATM    9  C   UNL     1      40.015 -14.232  -1.119  1.00  0.00     0.078 C 
HETATM   10  C   UNL     1      40.193 -12.710  -1.204  1.00  0.00     0.016 C 
HETATM   11  C   UNL     1      41.475 -12.304  -1.936  1.00  0.00     0.033 C 
HETATM   12  C   UNL     1      41.566 -12.934  -3.329  1.00  0.00     0.120 C 
HETATM   13  C   UNL     1      41.463 -14.457  -3.221  1.00  0.00     0.033 C 
HETATM   14  C   UNL     1      40.191 -14.898  -2.493  1.00  0.00     0.016 C 
BRANCH  12  15
HETATM   15  O   UNL     1      40.500 -12.385  -4.115  1.00  0.00    -0.391 OA
HETATM   16  C   UNL     1      40.702 -11.028  -4.484  1.00  0.00     0.202 C 
ENDBRANCH  12  15
ENDBRANCH   6   9
ENDBRANCH   1   5
BRANCH   1  17
HETATM   17  C   UNL     1      40.785 -15.135   3.292  1.00  0.00     0.180 C 
BRANCH  17  18
HETATM   18  N   UNL     1      41.414 -16.132   4.160  1.00  0.00    -0.232 N 
HETATM   19  N   UNL     1      42.068 -17.162   3.521  1.00  0.00    -0.168 NA
HETATM   20  C   UNL     1      42.599 -18.110   4.239  1.00  0.00     0.094 A 
HETATM   21  C   UNL     1      42.524 -18.123   5.722  1.00  0.00     0.040 A 
HETATM   22  C   UNL     1      41.873 -17.125   6.323  1.00  0.00     0.078 A 
HETATM   23  C   UNL     1      41.247 -16.049   5.534  1.00  0.00     0.263 A 
HETATM   24  O   UNL     1      40.616 -15.166   6.113  1.00  0.00    -0.267 OA
BRANCH  20  25
HETATM   25  C   UNL     1      43.283 -19.182   3.515  1.00  0.00     0.035 A 
HETATM   26  S   UNL     1      44.547 -20.116   4.205  1.00  0.00    -0.100 SA
HETATM   27  C   UNL     1      44.748 -21.046   2.788  1.00  0.00     0.050 A 
HETATM   28  C   UNL     1      43.877 -20.663   1.795  1.00  0.00     0.008 A 
HETATM   29  C   UNL     1      43.037 -19.592   2.213  1.00  0.00     0.022 A 
ENDBRANCH  20  25
ENDBRANCH  17  18
ENDBRANCH   1  17
TORSDOF 7
ENDMDL
MODEL 7
REMARK VINA RESULT:      -7.0      2.665      5.082
REMARK  7 active torsions:
REMARK  status: ('A' for Active; 'I' for Inactive)
REMARK    1  A    between atoms: C_2  and  C_3 
REMARK    2  A    between atoms: C_3  and  N_4 
REMARK    3  A    between atoms: C_3  and  C_15 
REMARK       I    between atoms: N_4  and  C_5 
REMARK    4  A    between atoms: C_5  and  C_6 
REMARK    5  A    between atoms: C_9  and  O_10 
REMARK    6  A    between atoms: C_15  and  N_16 
REMARK    7  A    between atoms: C_18  and  C_19 
ROOT
HETATM    1  C   UNL     1      42.041 -15.375   5.081  1.00  0.00     0.107 C 
ENDROOT
BRANCH   1   2
HETATM    2  C   UNL     1      42.528 -15.798   6.494  1.00  0.00     0.002 C 
HETATM    3  C   UNL     1      44.054 -15.876   6.614  1.00  0.00     0.011 C 
HETATM    4  C   UNL     1      41.912 -17.126   6.945  1.00  0.00     0.011 C 
ENDBRANCH   1   2
BRANCH   1   5
HETATM    5  N   UNL     1      41.147 -14.213   5.132  1.00  0.00    -0.354 N 
HETATM    6  C   UNL     1      41.519 -12.956   4.708  1.00  0.00     0.222 C 
HETATM    7  O   UNL     1      42.657 -12.683   4.341  1.00  0.00    -0.273 OA
HETATM    8  H   UNL     1      40.150 -14.400   5.225  1.00  0.00     0.162 HD
BRANCH   6   9
HETATM    9  C   UNL     1      40.368 -11.946   4.709  1.00  0.00     0.078 C 
HETATM   10  C   UNL     1      39.222 -12.380   5.634  1.00  0.00     0.016 C 
HETATM   11  C   UNL     1      39.538 -12.149   7.115  1.00  0.00     0.033 C 
HETATM   12  C   UNL     1      39.937 -10.698   7.398  1.00  0.00     0.120 C 
HETATM   13  C   UNL     1      41.129 -10.304   6.523  1.00  0.00     0.033 C 
HETATM   14  C   UNL     1      40.847 -10.523   5.034  1.00  0.00     0.016 C 
BRANCH  12  15
HETATM   15  O   UNL     1      38.790  -9.881   7.131  1.00  0.00    -0.391 OA
HETATM   16  C   UNL     1      38.899  -8.558   7.637  1.00  0.00     0.202 C 
ENDBRANCH  12  15
ENDBRANCH   6   9
ENDBRANCH   1   5
BRANCH   1  17
HETATM   17  C   UNL     1      41.360 -16.560   4.350  1.00  0.00     0.180 C 
BRANCH  17  18
HETATM   18  N   UNL     1      42.212 -17.147   3.315  1.00  0.00    -0.232 N 
HETATM   19  N   UNL     1      42.714 -18.400   3.585  1.00  0.00    -0.168 NA
HETATM   20  C   UNL     1      43.524 -18.952   2.727  1.00  0.00     0.094 A 
HETATM   21  C   UNL     1      43.930 -18.277   1.469  1.00  0.00     0.040 A 
HETATM   22  C   UNL     1      43.446 -17.057   1.230  1.00  0.00     0.078 A 
HETATM   23  C   UNL     1      42.541 -16.402   2.192  1.00  0.00     0.263 A 
HETATM   24  O   UNL     1      42.147 -15.259   1.968  1.00  0.00    -0.267 OA
BRANCH  20  25
HETATM   25  C   UNL     1      44.031 -20.284   3.059  1.00  0.00     0.035 A 
HETATM   26  S   UNL     1      44.682 -20.679   4.596  1.00  0.00    -0.100 SA
HETATM   27  C   UNL     1      45.002 -22.292   4.141  1.00  0.00     0.050 A 
HETATM   28  C   UNL     1      44.628 -22.543   2.841  1.00  0.00     0.008 A 
HETATM   29  C   UNL     1      44.072 -21.388   2.220  1.00  0.00     0.022 A 
ENDBRANCH  20  25
ENDBRANCH  17  18
ENDBRANCH   1  17
TORSDOF 7
ENDMDL
MODEL 8
REMARK VINA RESULT:      -6.9      2.125      5.645
REMARK  7 active torsions:
REMARK  status: ('A' for Active; 'I' for Inactive)
REMARK    1  A    between atoms: C_2  and  C_3 
REMARK    2  A    between atoms: C_3  and  N_4 
REMARK    3  A    between atoms: C_3  and  C_15 
REMARK       I    between atoms: N_4  and  C_5 
REMARK    4  A    between atoms: C_5  and  C_6 
REMARK    5  A    between atoms: C_9  and  O_10 
REMARK    6  A    between atoms: C_15  and  N_16 
REMARK    7  A    between atoms: C_18  and  C_19 
ROOT
HETATM    1  C   UNL     1      40.143 -15.310   2.899  1.00  0.00     0.107 C 
ENDROOT
BRANCH   1   2
HETATM    2  C   UNL     1      39.545 -14.149   2.059  1.00  0.00     0.002 C 
HETATM    3  C   UNL     1      39.277 -12.880   2.876  1.00  0.00     0.011 C 
HETATM    4  C   UNL     1      38.265 -14.564   1.326  1.00  0.00     0.011 C 
ENDBRANCH   1   2
BRANCH   1   5
HETATM    5  N   UNL     1      41.507 -15.017   3.351  1.00  0.00    -0.354 N 
HETATM    6  C   UNL     1      41.974 -15.346   4.605  1.00  0.00     0.222 C 
HETATM    7  O   UNL     1      41.261 -15.825   5.479  1.00  0.00    -0.273 OA
HETATM    8  H   UNL     1      42.200 -14.815   2.631  1.00  0.00     0.162 HD
BRANCH   6   9
HETATM    9  C   UNL     1      43.472 -15.084   4.786  1.00  0.00     0.078 C 
HETATM   10  C   UNL     1      43.775 -13.595   5.004  1.00  0.00     0.016 C 
HETATM   11  C   UNL     1      43.435 -13.123   6.420  1.00  0.00     0.033 C 
HETATM   12  C   UNL     1      44.125 -13.973   7.491  1.00  0.00     0.120 C 
HETATM   13  C   UNL     1      43.753 -15.446   7.307  1.00  0.00     0.033 C 
HETATM   14  C   UNL     1      44.080 -15.952   5.899  1.00  0.00     0.016 C 
BRANCH  12  15
HETATM   15  O   UNL     1      45.537 -13.762   7.357  1.00  0.00    -0.391 OA
HETATM   16  C   UNL     1      46.013 -12.619   8.053  1.00  0.00     0.202 C 
ENDBRANCH  12  15
ENDBRANCH   6   9
ENDBRANCH   1   5
BRANCH   1  17
HETATM   17  C   UNL     1      40.100 -16.645   2.112  1.00  0.00     0.180 C 
BRANCH  17  18
HETATM   18  N   UNL     1      41.432 -17.205   1.881  1.00  0.00    -0.232 N 
HETATM   19  N   UNL     1      41.941 -17.988   2.893  1.00  0.00    -0.168 NA
HETATM   20  C   UNL     1      43.145 -18.470   2.771  1.00  0.00     0.094 A 
HETATM   21  C   UNL     1      43.991 -18.203   1.581  1.00  0.00     0.040 A 
HETATM   22  C   UNL     1      43.488 -17.429   0.617  1.00  0.00     0.078 A 
HETATM   23  C   UNL     1      42.135 -16.857   0.738  1.00  0.00     0.263 A 
HETATM   24  O   UNL     1      41.715 -16.112  -0.145  1.00  0.00    -0.267 OA
BRANCH  20  25
HETATM   25  C   UNL     1      43.641 -19.296   3.872  1.00  0.00     0.035 A 
HETATM   26  S   UNL     1      44.710 -20.618   3.640  1.00  0.00    -0.100 SA
HETATM   27  C   UNL     1      44.759 -20.982   5.306  1.00  0.00     0.050 A 
HETATM   28  C   UNL     1      43.977 -20.122   6.042  1.00  0.00     0.008 A 
HETATM   29  C   UNL     1      43.334 -19.155   5.218  1.00  0.00     0.022 A 
ENDBRANCH  20  25
ENDBRANCH  17  18
ENDBRANCH   1  17
TORSDOF 7
ENDMDL
MODEL 9
REMARK VINA RESULT:      -6.9      4.131      9.043
REMARK  7 active torsions:
REMARK  status: ('A' for Active; 'I' for Inactive)
REMARK    1  A    between atoms: C_2  and  C_3 
REMARK    2  A    between atoms: C_3  and  N_4 
REMARK    3  A    between atoms: C_3  and  C_15 
REMARK       I    between atoms: N_4  and  C_5 
REMARK    4  A    between atoms: C_5  and  C_6 
REMARK    5  A    between atoms: C_9  and  O_10 
REMARK    6  A    between atoms: C_15  and  N_16 
REMARK    7  A    between atoms: C_18  and  C_19 
ROOT
HETATM    1  C   UNL     1      40.080 -14.584   0.242  1.00  0.00     0.107 C 
ENDROOT
BRANCH   1   2
HETATM    2  C   UNL     1      39.134 -13.706   1.105  1.00  0.00     0.002 C 
HETATM    3  C   UNL     1      39.459 -13.748   2.602  1.00  0.00     0.011 C 
HETATM    4  C   UNL     1      37.659 -14.063   0.893  1.00  0.00     0.011 C 
ENDBRANCH   1   2
BRANCH   1   5
HETATM    5  N   UNL     1      41.287 -14.979   0.976  1.00  0.00    -0.354 N 
HETATM    6  C   UNL     1      41.703 -16.287   1.096  1.00  0.00     0.222 C 
HETATM    7  O   UNL     1      41.051 -17.238   0.680  1.00  0.00    -0.273 OA
HETATM    8  H   UNL     1      41.973 -14.249   1.164  1.00  0.00     0.162 HD
BRANCH   6   9
HETATM    9  C   UNL     1      43.072 -16.432   1.767  1.00  0.00     0.078 C 
HETATM   10  C   UNL     1      42.970 -16.391   3.298  1.00  0.00     0.016 C 
HETATM   11  C   UNL     1      42.446 -17.702   3.891  1.00  0.00     0.033 C 
HETATM   12  C   UNL     1      43.275 -18.908   3.441  1.00  0.00     0.120 C 
HETATM   13  C   UNL     1      43.304 -18.980   1.912  1.00  0.00     0.033 C 
HETATM   14  C   UNL     1      43.823 -17.683   1.285  1.00  0.00     0.016 C 
BRANCH  12  15
HETATM   15  O   UNL     1      44.589 -18.752   3.990  1.00  0.00    -0.391 OA
HETATM   16  C   UNL     1      44.747 -19.338   5.274  1.00  0.00     0.202 C 
ENDBRANCH  12  15
ENDBRANCH   6   9
ENDBRANCH   1   5
BRANCH   1  17
HETATM   17  C   UNL     1      40.451 -13.867  -1.081  1.00  0.00     0.180 C 
BRANCH  17  18
HETATM   18  N   UNL     1      39.765 -14.437  -2.241  1.00  0.00    -0.232 N 
HETATM   19  N   UNL     1      38.606 -13.802  -2.629  1.00  0.00    -0.168 NA
HETATM   20  C   UNL     1      37.920 -14.296  -3.620  1.00  0.00     0.094 A 
HETATM   21  C   UNL     1      38.340 -15.520  -4.347  1.00  0.00     0.040 A 
HETATM   22  C   UNL     1      39.457 -16.131  -3.948  1.00  0.00     0.078 A 
HETATM   23  C   UNL     1      40.243 -15.604  -2.818  1.00  0.00     0.263 A 
HETATM   24  O   UNL     1      41.244 -16.212  -2.444  1.00  0.00    -0.267 OA
BRANCH  20  25
HETATM   25  C   UNL     1      36.696 -13.586  -3.995  1.00  0.00     0.035 A 
HETATM   26  S   UNL     1      36.385 -11.960  -3.545  1.00  0.00    -0.100 SA
HETATM   27  C   UNL     1      34.869 -11.943  -4.328  1.00  0.00     0.050 A 
HETATM   28  C   UNL     1      34.587 -13.149  -4.927  1.00  0.00     0.008 A 
HETATM   29  C   UNL     1      35.637 -14.093  -4.733  1.00  0.00     0.022 A 
ENDBRANCH  20  25
ENDBRANCH  17  18
ENDBRANCH   1  17
TORSDOF 7
ENDMDL
MODEL 10
REMARK VINA RESULT:      -6.8      2.615      4.095
REMARK  7 active torsions:
REMARK  status: ('A' for Active; 'I' for Inactive)
REMARK    1  A    between atoms: C_2  and  C_3 
REMARK    2  A    between atoms: C_3  and  N_4 
REMARK    3  A    between atoms: C_3  and  C_15 
REMARK       I    between atoms: N_4  and  C_5 
REMARK    4  A    between atoms: C_5  and  C_6 
REMARK    5  A    between atoms: C_9  and  O_10 
REMARK    6  A    between atoms: C_15  and  N_16 
REMARK    7  A    between atoms: C_18  and  C_19 
ROOT
HETATM    1  C   UNL     1      40.648 -14.502   2.864  1.00  0.00     0.107 C 
ENDROOT
BRANCH   1   2
HETATM    2  C   UNL     1      39.887 -14.188   4.181  1.00  0.00     0.002 C 
HETATM    3  C   UNL     1      39.734 -12.687   4.454  1.00  0.00     0.011 C 
HETATM    4  C   UNL     1      40.530 -14.865   5.396  1.00  0.00     0.011 C 
ENDBRANCH   1   2
BRANCH   1   5
HETATM    5  N   UNL     1      40.377 -13.507   1.820  1.00  0.00    -0.354 N 
HETATM    6  C   UNL     1      41.361 -12.741   1.235  1.00  0.00     0.222 C 
HETATM    7  O   UNL     1      42.531 -12.759   1.601  1.00  0.00    -0.273 OA
HETATM    8  H   UNL     1      39.487 -13.581   1.331  1.00  0.00     0.162 HD
BRANCH   6   9
HETATM    9  C   UNL     1      40.857 -11.892   0.063  1.00  0.00     0.078 C 
HETATM   10  C   UNL     1      41.619 -10.566  -0.058  1.00  0.00     0.016 C 
HETATM   11  C   UNL     1      43.012 -10.737  -0.671  1.00  0.00     0.033 C 
HETATM   12  C   UNL     1      42.959 -11.452  -2.025  1.00  0.00     0.120 C 
HETATM   13  C   UNL     1      42.263 -12.806  -1.874  1.00  0.00     0.033 C 
HETATM   14  C   UNL     1      40.866 -12.671  -1.261  1.00  0.00     0.016 C 
BRANCH  12  15
HETATM   15  O   UNL     1      42.257 -10.593  -2.933  1.00  0.00    -0.391 OA
HETATM   16  C   UNL     1      42.327 -11.013  -4.288  1.00  0.00     0.202 C 
ENDBRANCH  12  15
ENDBRANCH   6   9
ENDBRANCH   1   5
BRANCH   1  17
HETATM   17  C   UNL     1      40.320 -15.930   2.360  1.00  0.00     0.180 C 
BRANCH  17  18
HETATM   18  N   UNL     1      41.522 -16.725   2.103  1.00  0.00    -0.232 N 
HETATM   19  N   UNL     1      41.986 -17.477   3.159  1.00  0.00    -0.168 NA
HETATM   20  C   UNL     1      43.083 -18.162   3.010  1.00  0.00     0.094 A 
HETATM   21  C   UNL     1      43.855 -18.161   1.742  1.00  0.00     0.040 A 
HETATM   22  C   UNL     1      43.399 -17.415   0.734  1.00  0.00     0.078 A 
HETATM   23  C   UNL     1      42.170 -16.616   0.881  1.00  0.00     0.263 A 
HETATM   24  O   UNL     1      41.798 -15.904  -0.050  1.00  0.00    -0.267 OA
BRANCH  20  25
HETATM   25  C   UNL     1      43.535 -18.945   4.160  1.00  0.00     0.035 A 
HETATM   26  S   UNL     1      43.086 -18.576   5.775  1.00  0.00    -0.100 SA
HETATM   27  C   UNL     1      43.985 -19.879   6.413  1.00  0.00     0.050 A 
HETATM   28  C   UNL     1      44.625 -20.592   5.427  1.00  0.00     0.008 A 
HETATM   29  C   UNL     1      44.367 -20.054   4.133  1.00  0.00     0.022 A 
ENDBRANCH  20  25
ENDBRANCH  17  18
ENDBRANCH   1  17
TORSDOF 7
ENDMDL
