MODEL 1
REMARK VINA RESULT:      -8.9      0.000      0.000
REMARK  10 active torsions:
REMARK  status: ('A' for Active; 'I' for Inactive)
REMARK    1  A    between atoms: C_4  and  C_5 
REMARK    2  A    between atoms: C_6  and  O_7 
REMARK    3  A    between atoms: C_14  and  C_15 
REMARK    4  A    between atoms: C_18  and  C_19 
REMARK    5  A    between atoms: C_19  and  N_20 
REMARK    6  A    between atoms: N_20  and  C_21 
REMARK    7  A    between atoms: C_21  and  N_22 
REMARK    8  A    between atoms: N_22  and  C_23 
REMARK    9  A    between atoms: C_25  and  C_26 
REMARK   10  A    between atoms: C_26  and  O_27 
ROOT
HETATM    1  C   UNL     1      40.913 -11.209   4.959  1.00  0.00     0.067 C 
HETATM    2  C   UNL     1      39.401 -11.573   4.945  1.00  0.00     0.001 C 
HETATM    3  C   UNL     1      39.147 -12.878   5.736  1.00  0.00     0.040 C 
HETATM    4  C   UNL     1      39.840 -14.066   5.052  1.00  0.00     0.206 C 
HETATM    5  N   UNL     1      40.761 -13.501   3.966  1.00  0.00    -0.065 N 
HETATM    6  H   UNL     1      41.328 -14.272   3.585  1.00  0.00     0.280 HD
HETATM    7  C   UNL     1      41.718 -12.442   4.489  1.00  0.00     0.246 C 
HETATM    8  C   UNL     1      39.004 -11.840   3.475  1.00  0.00     0.033 C 
HETATM    9  C   UNL     1      39.911 -12.909   2.855  1.00  0.00     0.236 C 
ENDROOT
BRANCH   4  10
HETATM   10  C   UNL     1      40.562 -15.057   5.987  1.00  0.00     0.155 C 
BRANCH  10  11
HETATM   11  N   UNL     1      41.348 -16.086   5.314  1.00  0.00    -0.365 N 
HETATM   12  H   UNL     1      41.246 -16.152   4.306  1.00  0.00     0.161 HD
BRANCH  11  13
HETATM   13  C   UNL     1      42.544 -16.577   5.761  1.00  0.00     0.172 C 
HETATM   14  S   UNL     1      42.798 -17.105   7.323  1.00  0.00    -0.041 SA
BRANCH  13  15
HETATM   15  N   UNL     1      43.528 -16.743   4.823  1.00  0.00    -0.333 N 
HETATM   16  H   UNL     1      44.224 -16.002   4.819  1.00  0.00     0.168 HD
BRANCH  15  17
HETATM   17  C   UNL     1      43.645 -17.696   3.785  1.00  0.00     0.035 A 
HETATM   18  C   UNL     1      43.967 -19.036   4.012  1.00  0.00     0.047 A 
HETATM   19  C   UNL     1      44.123 -19.937   2.950  1.00  0.00     0.041 A 
HETATM   20  C   UNL     1      43.886 -19.509   1.642  1.00  0.00     0.018 A 
HETATM   21  C   UNL     1      43.498 -18.187   1.412  1.00  0.00     0.003 A 
HETATM   22  C   UNL     1      43.378 -17.286   2.477  1.00  0.00     0.029 A 
BRANCH  19  23
HETATM   23  C   UNL     1      44.581 -21.306   3.293  1.00  0.00     0.293 C 
HETATM   24  O   UNL     1      44.410 -22.261   2.547  1.00  0.00    -0.259 OA
BRANCH  23  25
HETATM   25  O   UNL     1      45.185 -21.327   4.503  1.00  0.00    -0.323 OA
HETATM   26  C   UNL     1      45.099 -22.584   5.176  1.00  0.00     0.213 C 
ENDBRANCH  23  25
ENDBRANCH  19  23
ENDBRANCH  15  17
ENDBRANCH  13  15
ENDBRANCH  11  13
ENDBRANCH  10  11
ENDBRANCH   4  10
BRANCH   1  27
HETATM   27  C   UNL     1      41.413 -10.649   6.263  1.00  0.00     0.038 C 
HETATM   28  N   UNL     1      41.440  -9.301   6.558  1.00  0.00    -0.277 N 
HETATM   29  C   UNL     1      40.959  -8.190   5.767  1.00  0.00     0.179 C 
HETATM   30  N   UNL     1      41.983  -9.025   7.748  1.00  0.00    -0.172 NA
HETATM   31  C   UNL     1      42.117 -10.212   8.347  1.00  0.00     0.092 C 
HETATM   32  C   UNL     1      41.821 -11.259   7.439  1.00  0.00     0.061 C 
BRANCH  31  33
HETATM   33  C   UNL     1      42.530 -10.327   9.736  1.00  0.00     0.028 A 
HETATM   34  C   UNL     1      43.865 -10.610  10.078  1.00  0.00     0.080 A 
HETATM   35  C   UNL     1      44.228 -10.706  11.426  1.00  0.00     0.037 A 
HETATM   36  C   UNL     1      43.267 -10.548  12.428  1.00  0.00     0.003 A 
HETATM   37  C   UNL     1      41.942 -10.281  12.090  1.00  0.00     0.001 A 
HETATM   38  C   UNL     1      41.574 -10.166  10.749  1.00  0.00     0.017 A 
BRANCH  34  39
HETATM   39  O   UNL     1      44.788 -10.705   9.064  1.00  0.00    -0.355 OA
HETATM   40  C   UNL     1      45.390 -11.991   8.942  1.00  0.00     0.210 C 
ENDBRANCH  34  39
ENDBRANCH  31  33
ENDBRANCH   1  27
TORSDOF 10
ENDMDL
MODEL 2
REMARK VINA RESULT:      -8.6      4.717      9.457
REMARK  10 active torsions:
REMARK  status: ('A' for Active; 'I' for Inactive)
REMARK    1  A    between atoms: C_4  and  C_5 
REMARK    2  A    between atoms: C_6  and  O_7 
REMARK    3  A    between atoms: C_14  and  C_15 
REMARK    4  A    between atoms: C_18  and  C_19 
REMARK    5  A    between atoms: C_19  and  N_20 
REMARK    6  A    between atoms: N_20  and  C_21 
REMARK    7  A    between atoms: C_21  and  N_22 
REMARK    8  A    between atoms: N_22  and  C_23 
REMARK    9  A    between atoms: C_25  and  C_26 
REMARK   10  A    between atoms: C_26  and  O_27 
ROOT
HETATM    1  C   UNL     1      42.484 -15.027   4.024  1.00  0.00     0.067 C 
HETATM    2  C   UNL     1      40.939 -15.093   3.858  1.00  0.00     0.001 C 
HETATM    3  C   UNL     1      40.564 -15.629   2.456  1.00  0.00     0.040 C 
HETATM    4  C   UNL     1      41.031 -14.654   1.365  1.00  0.00     0.206 C 
HETATM    5  N   UNL     1      41.939 -13.615   2.030  1.00  0.00    -0.065 N 
HETATM    6  H   UNL     1      42.362 -13.032   1.294  1.00  0.00     0.280 HD
HETATM    7  C   UNL     1      43.071 -14.240   2.830  1.00  0.00     0.246 C 
HETATM    8  C   UNL     1      40.400 -13.648   3.959  1.00  0.00     0.033 C 
HETATM    9  C   UNL     1      41.100 -12.738   2.943  1.00  0.00     0.236 C 
ENDROOT
BRANCH   4  10
HETATM   10  C   UNL     1      41.674 -15.293   0.117  1.00  0.00     0.155 C 
BRANCH  10  11
HETATM   11  N   UNL     1      40.769 -15.505  -1.008  1.00  0.00    -0.365 N 
HETATM   12  H   UNL     1      39.796 -15.686  -0.783  1.00  0.00     0.161 HD
BRANCH  11  13
HETATM   13  C   UNL     1      40.938 -14.979  -2.260  1.00  0.00     0.172 C 
HETATM   14  S   UNL     1      39.769 -15.037  -3.449  1.00  0.00    -0.041 SA
BRANCH  13  15
HETATM   15  N   UNL     1      42.087 -14.268  -2.476  1.00  0.00    -0.333 N 
HETATM   16  H   UNL     1      42.934 -14.832  -2.445  1.00  0.00     0.168 HD
BRANCH  15  17
HETATM   17  C   UNL     1      42.288 -12.873  -2.594  1.00  0.00     0.035 A 
HETATM   18  C   UNL     1      42.583 -12.050  -1.506  1.00  0.00     0.047 A 
HETATM   19  C   UNL     1      42.725 -10.664  -1.659  1.00  0.00     0.041 A 
HETATM   20  C   UNL     1      42.639 -10.098  -2.933  1.00  0.00     0.018 A 
HETATM   21  C   UNL     1      42.410 -10.923  -4.037  1.00  0.00     0.003 A 
HETATM   22  C   UNL     1      42.236 -12.303  -3.868  1.00  0.00     0.029 A 
BRANCH  19  23
HETATM   23  C   UNL     1      42.921  -9.869  -0.422  1.00  0.00     0.293 C 
HETATM   24  O   UNL     1      43.733  -8.957  -0.350  1.00  0.00    -0.259 OA
BRANCH  23  25
HETATM   25  O   UNL     1      42.099 -10.295   0.564  1.00  0.00    -0.323 OA
HETATM   26  C   UNL     1      40.943  -9.476   0.753  1.00  0.00     0.213 C 
ENDBRANCH  23  25
ENDBRANCH  19  23
ENDBRANCH  15  17
ENDBRANCH  13  15
ENDBRANCH  11  13
ENDBRANCH  10  11
ENDBRANCH   4  10
BRANCH   1  27
HETATM   27  C   UNL     1      43.152 -16.359   4.230  1.00  0.00     0.038 C 
HETATM   28  N   UNL     1      43.837 -16.704   5.378  1.00  0.00    -0.277 N 
HETATM   29  C   UNL     1      43.999 -15.946   6.599  1.00  0.00     0.179 C 
HETATM   30  N   UNL     1      44.405 -17.912   5.319  1.00  0.00    -0.172 NA
HETATM   31  C   UNL     1      43.911 -18.469   4.208  1.00  0.00     0.092 C 
HETATM   32  C   UNL     1      43.164 -17.518   3.470  1.00  0.00     0.061 C 
BRANCH  31  33
HETATM   33  C   UNL     1      44.167 -19.860   3.871  1.00  0.00     0.028 A 
HETATM   34  C   UNL     1      44.496 -20.801   4.863  1.00  0.00     0.080 A 
HETATM   35  C   UNL     1      44.729 -22.133   4.502  1.00  0.00     0.037 A 
HETATM   36  C   UNL     1      44.661 -22.522   3.162  1.00  0.00     0.003 A 
HETATM   37  C   UNL     1      44.348 -21.588   2.177  1.00  0.00     0.001 A 
HETATM   38  C   UNL     1      44.098 -20.261   2.529  1.00  0.00     0.017 A 
BRANCH  34  39
HETATM   39  O   UNL     1      44.500 -20.387   6.173  1.00  0.00    -0.355 OA
HETATM   40  C   UNL     1      43.613 -21.117   7.018  1.00  0.00     0.210 C 
ENDBRANCH  34  39
ENDBRANCH  31  33
ENDBRANCH   1  27
TORSDOF 10
ENDMDL
MODEL 3
REMARK VINA RESULT:      -8.4      2.766      8.945
REMARK  10 active torsions:
REMARK  status: ('A' for Active; 'I' for Inactive)
REMARK    1  A    between atoms: C_4  and  C_5 
REMARK    2  A    between atoms: C_6  and  O_7 
REMARK    3  A    between atoms: C_14  and  C_15 
REMARK    4  A    between atoms: C_18  and  C_19 
REMARK    5  A    between atoms: C_19  and  N_20 
REMARK    6  A    between atoms: N_20  and  C_21 
REMARK    7  A    between atoms: C_21  and  N_22 
REMARK    8  A    between atoms: N_22  and  C_23 
REMARK    9  A    between atoms: C_25  and  C_26 
REMARK   10  A    between atoms: C_26  and  O_27 
ROOT
HETATM    1  C   UNL     1      39.692 -12.285   3.079  1.00  0.00     0.067 C 
HETATM    2  C   UNL     1      40.867 -11.279   3.246  1.00  0.00     0.001 C 
HETATM    3  C   UNL     1      41.572 -11.485   4.607  1.00  0.00     0.040 C 
HETATM    4  C   UNL     1      40.615 -11.161   5.764  1.00  0.00     0.206 C 
HETATM    5  N   UNL     1      39.212 -10.997   5.172  1.00  0.00    -0.065 N 
HETATM    6  H   UNL     1      38.539 -10.907   5.947  1.00  0.00     0.280 HD
HETATM    7  C   UNL     1      38.782 -12.185   4.325  1.00  0.00     0.246 C 
HETATM    8  C   UNL     1      40.261  -9.857   3.251  1.00  0.00     0.033 C 
HETATM    9  C   UNL     1      39.176  -9.735   4.327  1.00  0.00     0.236 C 
ENDROOT
BRANCH   4  10
HETATM   10  C   UNL     1      40.646 -12.133   6.960  1.00  0.00     0.155 C 
BRANCH  10  11
HETATM   11  N   UNL     1      39.621 -11.906   7.973  1.00  0.00    -0.365 N 
HETATM   12  H   UNL     1      39.078 -12.714   8.262  1.00  0.00     0.161 HD
BRANCH  11  13
HETATM   13  C   UNL     1      39.664 -10.925   8.926  1.00  0.00     0.172 C 
HETATM   14  S   UNL     1      38.909  -9.446   8.761  1.00  0.00    -0.041 SA
BRANCH  13  15
HETATM   15  N   UNL     1      40.261 -11.251  10.114  1.00  0.00    -0.333 N 
HETATM   16  H   UNL     1      39.646 -11.729  10.769  1.00  0.00     0.168 HD
BRANCH  15  17
HETATM   17  C   UNL     1      41.537 -10.907  10.618  1.00  0.00     0.035 A 
HETATM   18  C   UNL     1      42.717 -11.092   9.896  1.00  0.00     0.047 A 
HETATM   19  C   UNL     1      43.966 -10.784  10.451  1.00  0.00     0.041 A 
HETATM   20  C   UNL     1      44.034 -10.217  11.725  1.00  0.00     0.018 A 
HETATM   21  C   UNL     1      42.853  -9.967  12.429  1.00  0.00     0.003 A 
HETATM   22  C   UNL     1      41.612 -10.309  11.878  1.00  0.00     0.029 A 
BRANCH  19  23
HETATM   23  C   UNL     1      45.163 -11.128   9.644  1.00  0.00     0.293 C 
HETATM   24  O   UNL     1      46.085 -10.343   9.471  1.00  0.00    -0.259 OA
BRANCH  23  25
HETATM   25  O   UNL     1      45.073 -12.386   9.154  1.00  0.00    -0.323 OA
HETATM   26  C   UNL     1      46.058 -12.699   8.167  1.00  0.00     0.213 C 
ENDBRANCH  23  25
ENDBRANCH  19  23
ENDBRANCH  15  17
ENDBRANCH  13  15
ENDBRANCH  11  13
ENDBRANCH  10  11
ENDBRANCH   4  10
BRANCH   1  27
HETATM   27  C   UNL     1      40.112 -13.697   2.776  1.00  0.00     0.038 C 
HETATM   28  N   UNL     1      39.377 -14.563   1.991  1.00  0.00    -0.277 N 
HETATM   29  C   UNL     1      38.154 -14.310   1.263  1.00  0.00     0.179 C 
HETATM   30  N   UNL     1      39.906 -15.788   1.907  1.00  0.00    -0.172 NA
HETATM   31  C   UNL     1      41.118 -15.676   2.461  1.00  0.00     0.092 C 
HETATM   32  C   UNL     1      41.270 -14.402   3.062  1.00  0.00     0.061 C 
BRANCH  31  33
HETATM   33  C   UNL     1      42.081 -16.765   2.421  1.00  0.00     0.028 A 
HETATM   34  C   UNL     1      42.156 -17.709   3.461  1.00  0.00     0.080 A 
HETATM   35  C   UNL     1      43.090 -18.748   3.386  1.00  0.00     0.037 A 
HETATM   36  C   UNL     1      43.962 -18.834   2.298  1.00  0.00     0.003 A 
HETATM   37  C   UNL     1      43.898 -17.892   1.274  1.00  0.00     0.001 A 
HETATM   38  C   UNL     1      42.958 -16.862   1.332  1.00  0.00     0.017 A 
BRANCH  34  39
HETATM   39  O   UNL     1      41.244 -17.618   4.486  1.00  0.00    -0.355 OA
HETATM   40  C   UNL     1      41.801 -17.186   5.725  1.00  0.00     0.210 C 
ENDBRANCH  34  39
ENDBRANCH  31  33
ENDBRANCH   1  27
TORSDOF 10
ENDMDL
MODEL 4
REMARK VINA RESULT:      -8.4      5.697     10.042
REMARK  10 active torsions:
REMARK  status: ('A' for Active; 'I' for Inactive)
REMARK    1  A    between atoms: C_4  and  C_5 
REMARK    2  A    between atoms: C_6  and  O_7 
REMARK    3  A    between atoms: C_14  and  C_15 
REMARK    4  A    between atoms: C_18  and  C_19 
REMARK    5  A    between atoms: C_19  and  N_20 
REMARK    6  A    between atoms: N_20  and  C_21 
REMARK    7  A    between atoms: C_21  and  N_22 
REMARK    8  A    between atoms: N_22  and  C_23 
REMARK    9  A    between atoms: C_25  and  C_26 
REMARK   10  A    between atoms: C_26  and  O_27 
ROOT
HETATM    1  C   UNL     1      42.252 -15.146   3.860  1.00  0.00     0.067 C 
HETATM    2  C   UNL     1      40.700 -15.245   3.867  1.00  0.00     0.001 C 
HETATM    3  C   UNL     1      40.190 -15.911   2.568  1.00  0.00     0.040 C 
HETATM    4  C   UNL     1      40.519 -15.036   1.349  1.00  0.00     0.206 C 
HETATM    5  N   UNL     1      41.470 -13.930   1.816  1.00  0.00    -0.065 N 
HETATM    6  H   UNL     1      41.801 -13.413   0.989  1.00  0.00     0.280 HD
HETATM    7  C   UNL     1      42.693 -14.466   2.544  1.00  0.00     0.246 C 
HETATM    8  C   UNL     1      40.145 -13.802   3.894  1.00  0.00     0.033 C 
HETATM    9  C   UNL     1      40.714 -12.982   2.731  1.00  0.00     0.236 C 
ENDROOT
BRANCH   4  10
HETATM   10  C   UNL     1      41.038 -15.780   0.103  1.00  0.00     0.155 C 
BRANCH  10  11
HETATM   11  N   UNL     1      41.886 -14.991  -0.785  1.00  0.00    -0.365 N 
HETATM   12  H   UNL     1      42.873 -15.227  -0.802  1.00  0.00     0.161 HD
BRANCH  11  13
HETATM   13  C   UNL     1      41.464 -14.381  -1.935  1.00  0.00     0.172 C 
HETATM   14  S   UNL     1      39.876 -14.377  -2.447  1.00  0.00    -0.041 SA
BRANCH  13  15
HETATM   15  N   UNL     1      42.395 -13.642  -2.614  1.00  0.00    -0.333 N 
HETATM   16  H   UNL     1      43.122 -14.199  -3.056  1.00  0.00     0.168 HD
BRANCH  15  17
HETATM   17  C   UNL     1      42.578 -12.242  -2.677  1.00  0.00     0.035 A 
HETATM   18  C   UNL     1      42.290 -11.485  -3.814  1.00  0.00     0.047 A 
HETATM   19  C   UNL     1      42.532 -10.105  -3.851  1.00  0.00     0.041 A 
HETATM   20  C   UNL     1      43.008  -9.457  -2.709  1.00  0.00     0.018 A 
HETATM   21  C   UNL     1      43.236 -10.196  -1.545  1.00  0.00     0.003 A 
HETATM   22  C   UNL     1      43.022 -11.580  -1.530  1.00  0.00     0.029 A 
BRANCH  19  23
HETATM   23  C   UNL     1      42.302  -9.418  -5.146  1.00  0.00     0.293 C 
HETATM   24  O   UNL     1      42.479  -8.216  -5.291  1.00  0.00    -0.259 OA
BRANCH  23  25
HETATM   25  O   UNL     1      41.884 -10.290  -6.091  1.00  0.00    -0.323 OA
HETATM   26  C   UNL     1      41.224  -9.676  -7.200  1.00  0.00     0.213 C 
ENDBRANCH  23  25
ENDBRANCH  19  23
ENDBRANCH  15  17
ENDBRANCH  13  15
ENDBRANCH  11  13
ENDBRANCH  10  11
ENDBRANCH   4  10
BRANCH   1  27
HETATM   27  C   UNL     1      42.966 -16.446   4.113  1.00  0.00     0.038 C 
HETATM   28  N   UNL     1      43.624 -16.743   5.289  1.00  0.00    -0.277 N 
HETATM   29  C   UNL     1      43.712 -15.960   6.501  1.00  0.00     0.179 C 
HETATM   30  N   UNL     1      44.242 -17.928   5.271  1.00  0.00    -0.172 NA
HETATM   31  C   UNL     1      43.809 -18.523   4.155  1.00  0.00     0.092 C 
HETATM   32  C   UNL     1      43.050 -17.616   3.375  1.00  0.00     0.061 C 
BRANCH  31  33
HETATM   33  C   UNL     1      44.132 -19.908   3.852  1.00  0.00     0.028 A 
HETATM   34  C   UNL     1      44.502 -20.809   4.867  1.00  0.00     0.080 A 
HETATM   35  C   UNL     1      44.800 -22.136   4.539  1.00  0.00     0.037 A 
HETATM   36  C   UNL     1      44.756 -22.560   3.209  1.00  0.00     0.003 A 
HETATM   37  C   UNL     1      44.402 -21.666   2.200  1.00  0.00     0.001 A 
HETATM   38  C   UNL     1      44.087 -20.344   2.520  1.00  0.00     0.017 A 
BRANCH  34  39
HETATM   39  O   UNL     1      44.482 -20.364   6.167  1.00  0.00    -0.355 OA
HETATM   40  C   UNL     1      43.646 -21.129   7.032  1.00  0.00     0.210 C 
ENDBRANCH  34  39
ENDBRANCH  31  33
ENDBRANCH   1  27
TORSDOF 10
ENDMDL
MODEL 5
REMARK VINA RESULT:      -8.4      2.204      7.919
REMARK  10 active torsions:
REMARK  status: ('A' for Active; 'I' for Inactive)
REMARK    1  A    between atoms: C_4  and  C_5 
REMARK    2  A    between atoms: C_6  and  O_7 
REMARK    3  A    between atoms: C_14  and  C_15 
REMARK    4  A    between atoms: C_18  and  C_19 
REMARK    5  A    between atoms: C_19  and  N_20 
REMARK    6  A    between atoms: N_20  and  C_21 
REMARK    7  A    between atoms: C_21  and  N_22 
REMARK    8  A    between atoms: N_22  and  C_23 
REMARK    9  A    between atoms: C_25  and  C_26 
REMARK   10  A    between atoms: C_26  and  O_27 
ROOT
HETATM    1  C   UNL     1      39.559 -13.550   3.821  1.00  0.00     0.067 C 
HETATM    2  C   UNL     1      40.262 -12.556   2.853  1.00  0.00     0.001 C 
HETATM    3  C   UNL     1      41.352 -11.748   3.595  1.00  0.00     0.040 C 
HETATM    4  C   UNL     1      40.718 -10.857   4.675  1.00  0.00     0.206 C 
HETATM    5  N   UNL     1      39.251 -11.274   4.817  1.00  0.00    -0.065 N 
HETATM    6  H   UNL     1      38.847 -10.777   5.624  1.00  0.00     0.280 HD
HETATM    7  C   UNL     1      39.078 -12.764   5.062  1.00  0.00     0.246 C 
HETATM    8  C   UNL     1      39.193 -11.551   2.366  1.00  0.00     0.033 C 
HETATM    9  C   UNL     1      38.501 -10.879   3.557  1.00  0.00     0.236 C 
ENDROOT
BRANCH   4  10
HETATM   10  C   UNL     1      41.456 -10.807   6.028  1.00  0.00     0.155 C 
BRANCH  10  11
HETATM   11  N   UNL     1      40.882  -9.899   7.016  1.00  0.00    -0.365 N 
HETATM   12  H   UNL     1      40.290  -9.155   6.662  1.00  0.00     0.161 HD
BRANCH  11  13
HETATM   13  C   UNL     1      40.604 -10.227   8.315  1.00  0.00     0.172 C 
HETATM   14  S   UNL     1      39.383 -11.273   8.760  1.00  0.00    -0.041 SA
BRANCH  13  15
HETATM   15  N   UNL     1      41.468  -9.753   9.265  1.00  0.00    -0.333 N 
HETATM   16  H   UNL     1      41.246  -8.816   9.594  1.00  0.00     0.168 HD
BRANCH  15  17
HETATM   17  C   UNL     1      42.679 -10.297   9.749  1.00  0.00     0.035 A 
HETATM   18  C   UNL     1      43.534 -11.074   8.965  1.00  0.00     0.047 A 
HETATM   19  C   UNL     1      44.701 -11.637   9.498  1.00  0.00     0.041 A 
HETATM   20  C   UNL     1      45.057 -11.363  10.820  1.00  0.00     0.018 A 
HETATM   21  C   UNL     1      44.242 -10.532  11.593  1.00  0.00     0.003 A 
HETATM   22  C   UNL     1      43.061 -10.003  11.060  1.00  0.00     0.029 A 
BRANCH  19  23
HETATM   23  C   UNL     1      45.476 -12.541   8.612  1.00  0.00     0.293 C 
HETATM   24  O   UNL     1      46.578 -12.242   8.172  1.00  0.00    -0.259 OA
BRANCH  23  25
HETATM   25  O   UNL     1      44.801 -13.690   8.381  1.00  0.00    -0.323 OA
HETATM   26  C   UNL     1      44.714 -14.047   7.000  1.00  0.00     0.213 C 
ENDBRANCH  23  25
ENDBRANCH  19  23
ENDBRANCH  15  17
ENDBRANCH  13  15
ENDBRANCH  11  13
ENDBRANCH  10  11
ENDBRANCH   4  10
BRANCH   1  27
HETATM   27  C   UNL     1      40.375 -14.762   4.178  1.00  0.00     0.038 C 
HETATM   28  N   UNL     1      40.502 -15.868   3.362  1.00  0.00    -0.277 N 
HETATM   29  C   UNL     1      39.978 -16.077   2.031  1.00  0.00     0.179 C 
HETATM   30  N   UNL     1      41.222 -16.855   3.906  1.00  0.00    -0.172 NA
HETATM   31  C   UNL     1      41.764 -16.317   5.003  1.00  0.00     0.092 C 
HETATM   32  C   UNL     1      41.225 -15.028   5.241  1.00  0.00     0.061 C 
BRANCH  31  33
HETATM   33  C   UNL     1      42.753 -17.030   5.796  1.00  0.00     0.028 A 
HETATM   34  C   UNL     1      43.849 -17.671   5.189  1.00  0.00     0.080 A 
HETATM   35  C   UNL     1      44.784 -18.342   5.984  1.00  0.00     0.037 A 
HETATM   36  C   UNL     1      44.619 -18.399   7.370  1.00  0.00     0.003 A 
HETATM   37  C   UNL     1      43.528 -17.776   7.971  1.00  0.00     0.001 A 
HETATM   38  C   UNL     1      42.599 -17.090   7.188  1.00  0.00     0.017 A 
BRANCH  34  39
HETATM   39  O   UNL     1      44.001 -17.545   3.829  1.00  0.00    -0.355 OA
HETATM   40  C   UNL     1      44.113 -18.786   3.137  1.00  0.00     0.210 C 
ENDBRANCH  34  39
ENDBRANCH  31  33
ENDBRANCH   1  27
TORSDOF 10
ENDMDL
MODEL 6
REMARK VINA RESULT:      -8.3      5.837     10.106
REMARK  10 active torsions:
REMARK  status: ('A' for Active; 'I' for Inactive)
REMARK    1  A    between atoms: C_4  and  C_5 
REMARK    2  A    between atoms: C_6  and  O_7 
REMARK    3  A    between atoms: C_14  and  C_15 
REMARK    4  A    between atoms: C_18  and  C_19 
REMARK    5  A    between atoms: C_19  and  N_20 
REMARK    6  A    between atoms: N_20  and  C_21 
REMARK    7  A    between atoms: C_21  and  N_22 
REMARK    8  A    between atoms: N_22  and  C_23 
REMARK    9  A    between atoms: C_25  and  C_26 
REMARK   10  A    between atoms: C_26  and  O_27 
ROOT
HETATM    1  C   UNL     1      42.371 -15.007   3.996  1.00  0.00     0.067 C 
HETATM    2  C   UNL     1      40.828 -15.089   3.822  1.00  0.00     0.001 C 
HETATM    3  C   UNL     1      40.465 -15.677   2.439  1.00  0.00     0.040 C 
HETATM    4  C   UNL     1      40.934 -14.740   1.316  1.00  0.00     0.206 C 
HETATM    5  N   UNL     1      41.832 -13.672   1.948  1.00  0.00    -0.065 N 
HETATM    6  H   UNL     1      42.257 -13.114   1.194  1.00  0.00     0.280 HD
HETATM    7  C   UNL     1      42.962 -14.261   2.778  1.00  0.00     0.246 C 
HETATM    8  C   UNL     1      40.280 -13.643   3.867  1.00  0.00     0.033 C 
HETATM    9  C   UNL     1      40.982 -12.767   2.823  1.00  0.00     0.236 C 
ENDROOT
BRANCH   4  10
HETATM   10  C   UNL     1      41.589 -15.421   0.097  1.00  0.00     0.155 C 
BRANCH  10  11
HETATM   11  N   UNL     1      40.677 -15.753  -0.994  1.00  0.00    -0.365 N 
HETATM   12  H   UNL     1      39.849 -16.286  -0.750  1.00  0.00     0.161 HD
BRANCH  11  13
HETATM   13  C   UNL     1      40.518 -15.014  -2.135  1.00  0.00     0.172 C 
HETATM   14  S   UNL     1      41.721 -14.066  -2.795  1.00  0.00    -0.041 SA
BRANCH  13  15
HETATM   15  N   UNL     1      39.340 -15.180  -2.812  1.00  0.00    -0.333 N 
HETATM   16  H   UNL     1      39.231 -16.099  -3.234  1.00  0.00     0.168 HD
BRANCH  15  17
HETATM   17  C   UNL     1      38.331 -14.242  -3.129  1.00  0.00     0.035 A 
HETATM   18  C   UNL     1      37.241 -14.540  -3.948  1.00  0.00     0.047 A 
HETATM   19  C   UNL     1      36.289 -13.567  -4.278  1.00  0.00     0.041 A 
HETATM   20  C   UNL     1      36.389 -12.289  -3.724  1.00  0.00     0.018 A 
HETATM   21  C   UNL     1      37.440 -12.000  -2.850  1.00  0.00     0.003 A 
HETATM   22  C   UNL     1      38.404 -12.971  -2.554  1.00  0.00     0.029 A 
BRANCH  19  23
HETATM   23  C   UNL     1      35.237 -13.957  -5.250  1.00  0.00     0.293 C 
HETATM   24  O   UNL     1      34.045 -13.804  -5.022  1.00  0.00    -0.259 OA
BRANCH  23  25
HETATM   25  O   UNL     1      35.783 -14.485  -6.370  1.00  0.00    -0.323 OA
HETATM   26  C   UNL     1      35.426 -13.798  -7.570  1.00  0.00     0.213 C 
ENDBRANCH  23  25
ENDBRANCH  19  23
ENDBRANCH  15  17
ENDBRANCH  13  15
ENDBRANCH  11  13
ENDBRANCH  10  11
ENDBRANCH   4  10
BRANCH   1  27
HETATM   27  C   UNL     1      43.046 -16.327   4.255  1.00  0.00     0.038 C 
HETATM   28  N   UNL     1      43.648 -16.658   5.452  1.00  0.00    -0.277 N 
HETATM   29  C   UNL     1      43.705 -15.896   6.679  1.00  0.00     0.179 C 
HETATM   30  N   UNL     1      44.241 -17.856   5.439  1.00  0.00    -0.172 NA
HETATM   31  C   UNL     1      43.841 -18.423   4.296  1.00  0.00     0.092 C 
HETATM   32  C   UNL     1      43.134 -17.486   3.501  1.00  0.00     0.061 C 
BRANCH  31  33
HETATM   33  C   UNL     1      44.145 -19.810   3.983  1.00  0.00     0.028 A 
HETATM   34  C   UNL     1      44.448 -20.736   4.997  1.00  0.00     0.080 A 
HETATM   35  C   UNL     1      44.730 -22.064   4.659  1.00  0.00     0.037 A 
HETATM   36  C   UNL     1      44.736 -22.464   3.320  1.00  0.00     0.003 A 
HETATM   37  C   UNL     1      44.448 -21.545   2.313  1.00  0.00     0.001 A 
HETATM   38  C   UNL     1      44.150 -20.222   2.643  1.00  0.00     0.017 A 
BRANCH  34  39
HETATM   39  O   UNL     1      44.380 -20.313   6.302  1.00  0.00    -0.355 OA
HETATM   40  C   UNL     1      43.601 -21.155   7.149  1.00  0.00     0.210 C 
ENDBRANCH  34  39
ENDBRANCH  31  33
ENDBRANCH   1  27
TORSDOF 10
ENDMDL
MODEL 7
REMARK VINA RESULT:      -8.3      2.174      3.009
REMARK  10 active torsions:
REMARK  status: ('A' for Active; 'I' for Inactive)
REMARK    1  A    between atoms: C_4  and  C_5 
REMARK    2  A    between atoms: C_6  and  O_7 
REMARK    3  A    between atoms: C_14  and  C_15 
REMARK    4  A    between atoms: C_18  and  C_19 
REMARK    5  A    between atoms: C_19  and  N_20 
REMARK    6  A    between atoms: N_20  and  C_21 
REMARK    7  A    between atoms: C_21  and  N_22 
REMARK    8  A    between atoms: N_22  and  C_23 
REMARK    9  A    between atoms: C_25  and  C_26 
REMARK   10  A    between atoms: C_26  and  O_27 
ROOT
HETATM    1  C   UNL     1      40.556 -10.844   5.143  1.00  0.00     0.067 C 
HETATM    2  C   UNL     1      39.200 -11.588   5.306  1.00  0.00     0.001 C 
HETATM    3  C   UNL     1      39.417 -12.986   5.932  1.00  0.00     0.040 C 
HETATM    4  C   UNL     1      40.240 -13.876   4.988  1.00  0.00     0.206 C 
HETATM    5  N   UNL     1      40.783 -12.985   3.867  1.00  0.00    -0.065 N 
HETATM    6  H   UNL     1      41.440 -13.539   3.299  1.00  0.00     0.280 HD
HETATM    7  C   UNL     1      41.535 -11.770   4.385  1.00  0.00     0.246 C 
HETATM    8  C   UNL     1      38.617 -11.802   3.890  1.00  0.00     0.033 C 
HETATM    9  C   UNL     1      39.627 -12.529   2.994  1.00  0.00     0.236 C 
ENDROOT
BRANCH   4  10
HETATM   10  C   UNL     1      41.337 -14.732   5.651  1.00  0.00     0.155 C 
BRANCH  10  11
HETATM   11  N   UNL     1      40.939 -16.092   6.000  1.00  0.00    -0.365 N 
HETATM   12  H   UNL     1      39.969 -16.341   5.832  1.00  0.00     0.161 HD
BRANCH  11  13
HETATM   13  C   UNL     1      41.773 -17.177   6.004  1.00  0.00     0.172 C 
HETATM   14  S   UNL     1      42.726 -17.602   7.306  1.00  0.00    -0.041 SA
BRANCH  13  15
HETATM   15  N   UNL     1      41.709 -18.004   4.915  1.00  0.00    -0.333 N 
HETATM   16  H   UNL     1      41.284 -18.909   5.108  1.00  0.00     0.168 HD
BRANCH  15  17
HETATM   17  C   UNL     1      42.257 -17.852   3.621  1.00  0.00     0.035 A 
HETATM   18  C   UNL     1      41.777 -16.927   2.692  1.00  0.00     0.047 A 
HETATM   19  C   UNL     1      42.317 -16.843   1.402  1.00  0.00     0.041 A 
HETATM   20  C   UNL     1      43.402 -17.651   1.055  1.00  0.00     0.018 A 
HETATM   21  C   UNL     1      43.932 -18.533   2.000  1.00  0.00     0.003 A 
HETATM   22  C   UNL     1      43.363 -18.632   3.275  1.00  0.00     0.029 A 
BRANCH  19  23
HETATM   23  C   UNL     1      41.656 -15.909   0.457  1.00  0.00     0.293 C 
HETATM   24  O   UNL     1      41.377 -16.227  -0.691  1.00  0.00    -0.259 OA
BRANCH  23  25
HETATM   25  O   UNL     1      41.426 -14.711   1.041  1.00  0.00    -0.323 OA
HETATM   26  C   UNL     1      41.832 -13.591   0.252  1.00  0.00     0.213 C 
ENDBRANCH  23  25
ENDBRANCH  19  23
ENDBRANCH  15  17
ENDBRANCH  13  15
ENDBRANCH  11  13
ENDBRANCH  10  11
ENDBRANCH   4  10
BRANCH   1  27
HETATM   27  C   UNL     1      41.135 -10.305   6.423  1.00  0.00     0.038 C 
HETATM   28  N   UNL     1      41.192  -8.961   6.733  1.00  0.00    -0.277 N 
HETATM   29  C   UNL     1      40.676  -7.836   5.985  1.00  0.00     0.179 C 
HETATM   30  N   UNL     1      41.805  -8.705   7.893  1.00  0.00    -0.172 NA
HETATM   31  C   UNL     1      41.962  -9.902   8.467  1.00  0.00     0.092 C 
HETATM   32  C   UNL     1      41.604 -10.934   7.565  1.00  0.00     0.061 C 
BRANCH  31  33
HETATM   33  C   UNL     1      42.454 -10.038   9.829  1.00  0.00     0.028 A 
HETATM   34  C   UNL     1      43.747 -10.525  10.092  1.00  0.00     0.080 A 
HETATM   35  C   UNL     1      44.189 -10.636  11.414  1.00  0.00     0.037 A 
HETATM   36  C   UNL     1      43.343 -10.291  12.471  1.00  0.00     0.003 A 
HETATM   37  C   UNL     1      42.057  -9.821  12.213  1.00  0.00     0.001 A 
HETATM   38  C   UNL     1      41.614  -9.691  10.896  1.00  0.00     0.017 A 
BRANCH  34  39
HETATM   39  O   UNL     1      44.564 -10.802   9.022  1.00  0.00    -0.355 OA
HETATM   40  C   UNL     1      45.738 -11.538   9.360  1.00  0.00     0.210 C 
ENDBRANCH  34  39
ENDBRANCH  31  33
ENDBRANCH   1  27
TORSDOF 10
ENDMDL
MODEL 8
REMARK VINA RESULT:      -8.2      5.028      9.313
REMARK  10 active torsions:
REMARK  status: ('A' for Active; 'I' for Inactive)
REMARK    1  A    between atoms: C_4  and  C_5 
REMARK    2  A    between atoms: C_6  and  O_7 
REMARK    3  A    between atoms: C_14  and  C_15 
REMARK    4  A    between atoms: C_18  and  C_19 
REMARK    5  A    between atoms: C_19  and  N_20 
REMARK    6  A    between atoms: N_20  and  C_21 
REMARK    7  A    between atoms: C_21  and  N_22 
REMARK    8  A    between atoms: N_22  and  C_23 
REMARK    9  A    between atoms: C_25  and  C_26 
REMARK   10  A    between atoms: C_26  and  O_27 
ROOT
HETATM    1  C   UNL     1      42.285 -14.743   4.854  1.00  0.00     0.067 C 
HETATM    2  C   UNL     1      40.731 -14.804   4.817  1.00  0.00     0.001 C 
HETATM    3  C   UNL     1      40.230 -15.099   3.384  1.00  0.00     0.040 C 
HETATM    4  C   UNL     1      40.598 -13.947   2.437  1.00  0.00     0.206 C 
HETATM    5  N   UNL     1      41.563 -13.022   3.186  1.00  0.00    -0.065 N 
HETATM    6  H   UNL     1      41.919 -12.317   2.525  1.00  0.00     0.280 HD
HETATM    7  C   UNL     1      42.762 -13.757   3.763  1.00  0.00     0.246 C 
HETATM    8  C   UNL     1      40.205 -13.404   5.210  1.00  0.00     0.033 C 
HETATM    9  C   UNL     1      40.811 -12.325   4.306  1.00  0.00     0.236 C 
ENDROOT
BRANCH   4  10
HETATM   10  C   UNL     1      41.124 -14.356   1.047  1.00  0.00     0.155 C 
BRANCH  10  11
HETATM   11  N   UNL     1      41.894 -13.332   0.348  1.00  0.00    -0.365 N 
HETATM   12  H   UNL     1      42.694 -12.946   0.840  1.00  0.00     0.161 HD
BRANCH  11  13
HETATM   13  C   UNL     1      42.006 -13.227  -1.012  1.00  0.00     0.172 C 
HETATM   14  S   UNL     1      42.619 -11.881  -1.785  1.00  0.00    -0.041 SA
BRANCH  13  15
HETATM   15  N   UNL     1      41.705 -14.346  -1.740  1.00  0.00    -0.333 N 
HETATM   16  H   UNL     1      42.475 -15.007  -1.820  1.00  0.00     0.168 HD
BRANCH  15  17
HETATM   17  C   UNL     1      40.556 -14.656  -2.504  1.00  0.00     0.035 A 
HETATM   18  C   UNL     1      39.527 -13.742  -2.739  1.00  0.00     0.047 A 
HETATM   19  C   UNL     1      38.381 -14.104  -3.459  1.00  0.00     0.041 A 
HETATM   20  C   UNL     1      38.290 -15.382  -4.012  1.00  0.00     0.018 A 
HETATM   21  C   UNL     1      39.344 -16.283  -3.839  1.00  0.00     0.003 A 
HETATM   22  C   UNL     1      40.470 -15.921  -3.089  1.00  0.00     0.029 A 
BRANCH  19  23
HETATM   23  C   UNL     1      37.298 -13.094  -3.550  1.00  0.00     0.293 C 
HETATM   24  O   UNL     1      36.276 -13.284  -4.196  1.00  0.00    -0.259 OA
BRANCH  23  25
HETATM   25  O   UNL     1      37.607 -11.985  -2.840  1.00  0.00    -0.323 OA
HETATM   26  C   UNL     1      36.477 -11.326  -2.266  1.00  0.00     0.213 C 
ENDBRANCH  23  25
ENDBRANCH  19  23
ENDBRANCH  15  17
ENDBRANCH  13  15
ENDBRANCH  11  13
ENDBRANCH  10  11
ENDBRANCH   4  10
BRANCH   1  27
HETATM   27  C   UNL     1      42.968 -16.081   4.770  1.00  0.00     0.038 C 
HETATM   28  N   UNL     1      43.734 -16.616   5.786  1.00  0.00    -0.277 N 
HETATM   29  C   UNL     1      43.982 -16.087   7.108  1.00  0.00     0.179 C 
HETATM   30  N   UNL     1      44.298 -17.786   5.471  1.00  0.00    -0.172 NA
HETATM   31  C   UNL     1      43.726 -18.142   4.316  1.00  0.00     0.092 C 
HETATM   32  C   UNL     1      42.926 -17.085   3.815  1.00  0.00     0.061 C 
BRANCH  31  33
HETATM   33  C   UNL     1      43.958 -19.447   3.718  1.00  0.00     0.028 A 
HETATM   34  C   UNL     1      44.439 -20.524   4.483  1.00  0.00     0.080 A 
HETATM   35  C   UNL     1      44.645 -21.768   3.876  1.00  0.00     0.037 A 
HETATM   36  C   UNL     1      44.400 -21.933   2.510  1.00  0.00     0.003 A 
HETATM   37  C   UNL     1      43.936 -20.863   1.747  1.00  0.00     0.001 A 
HETATM   38  C   UNL     1      43.712 -19.624   2.349  1.00  0.00     0.017 A 
BRANCH  34  39
HETATM   39  O   UNL     1      44.616 -20.332   5.833  1.00  0.00    -0.355 OA
HETATM   40  C   UNL     1      43.794 -21.159   6.653  1.00  0.00     0.210 C 
ENDBRANCH  34  39
ENDBRANCH  31  33
ENDBRANCH   1  27
TORSDOF 10
ENDMDL
MODEL 9
REMARK VINA RESULT:      -8.2      2.551      9.650
REMARK  10 active torsions:
REMARK  status: ('A' for Active; 'I' for Inactive)
REMARK    1  A    between atoms: C_4  and  C_5 
REMARK    2  A    between atoms: C_6  and  O_7 
REMARK    3  A    between atoms: C_14  and  C_15 
REMARK    4  A    between atoms: C_18  and  C_19 
REMARK    5  A    between atoms: C_19  and  N_20 
REMARK    6  A    between atoms: N_20  and  C_21 
REMARK    7  A    between atoms: C_21  and  N_22 
REMARK    8  A    between atoms: N_22  and  C_23 
REMARK    9  A    between atoms: C_25  and  C_26 
REMARK   10  A    between atoms: C_26  and  O_27 
ROOT
HETATM    1  C   UNL     1      40.400 -14.492   2.219  1.00  0.00     0.067 C 
HETATM    2  C   UNL     1      41.216 -13.191   1.974  1.00  0.00     0.001 C 
HETATM    3  C   UNL     1      42.111 -12.871   3.194  1.00  0.00     0.040 C 
HETATM    4  C   UNL     1      41.249 -12.564   4.428  1.00  0.00     0.206 C 
HETATM    5  N   UNL     1      39.804 -12.937   4.087  1.00  0.00    -0.065 N 
HETATM    6  H   UNL     1      39.236 -12.859   4.943  1.00  0.00     0.280 HD
HETATM    7  C   UNL     1      39.663 -14.360   3.571  1.00  0.00     0.246 C 
HETATM    8  C   UNL     1      40.204 -12.032   1.827  1.00  0.00     0.033 C 
HETATM    9  C   UNL     1      39.275 -11.968   3.045  1.00  0.00     0.236 C 
ENDROOT
BRANCH   4  10
HETATM   10  C   UNL     1      41.727 -13.183   5.757  1.00  0.00     0.155 C 
BRANCH  10  11
HETATM   11  N   UNL     1      42.210 -12.229   6.749  1.00  0.00    -0.365 N 
HETATM   12  H   UNL     1      43.166 -11.904   6.641  1.00  0.00     0.161 HD
BRANCH  11  13
HETATM   13  C   UNL     1      41.423 -11.349   7.440  1.00  0.00     0.172 C 
HETATM   14  S   UNL     1      39.756 -11.380   7.406  1.00  0.00    -0.041 SA
BRANCH  13  15
HETATM   15  N   UNL     1      42.066 -10.488   8.289  1.00  0.00    -0.333 N 
HETATM   16  H   UNL     1      42.364  -9.620   7.849  1.00  0.00     0.168 HD
BRANCH  15  17
HETATM   17  C   UNL     1      42.495 -10.674   9.623  1.00  0.00     0.035 A 
HETATM   18  C   UNL     1      41.617 -10.915  10.681  1.00  0.00     0.047 A 
HETATM   19  C   UNL     1      42.079 -11.045  11.997  1.00  0.00     0.041 A 
HETATM   20  C   UNL     1      43.451 -11.000  12.253  1.00  0.00     0.018 A 
HETATM   21  C   UNL     1      44.343 -10.824  11.191  1.00  0.00     0.003 A 
HETATM   22  C   UNL     1      43.867 -10.663   9.884  1.00  0.00     0.029 A 
BRANCH  19  23
HETATM   23  C   UNL     1      41.053 -11.182  13.059  1.00  0.00     0.293 C 
HETATM   24  O   UNL     1      40.191 -12.050  13.030  1.00  0.00    -0.259 OA
BRANCH  23  25
HETATM   25  O   UNL     1      41.214 -10.239  14.015  1.00  0.00    -0.323 OA
HETATM   26  C   UNL     1      40.653  -8.968  13.681  1.00  0.00     0.213 C 
ENDBRANCH  23  25
ENDBRANCH  19  23
ENDBRANCH  15  17
ENDBRANCH  13  15
ENDBRANCH  11  13
ENDBRANCH  10  11
ENDBRANCH   4  10
BRANCH   1  27
HETATM   27  C   UNL     1      41.197 -15.764   2.111  1.00  0.00     0.038 C 
HETATM   28  N   UNL     1      41.586 -16.325   0.911  1.00  0.00    -0.277 N 
HETATM   29  C   UNL     1      41.397 -15.818  -0.430  1.00  0.00     0.179 C 
HETATM   30  N   UNL     1      42.231 -17.488   1.049  1.00  0.00    -0.172 NA
HETATM   31  C   UNL     1      42.468 -17.594   2.360  1.00  0.00     0.092 C 
HETATM   32  C   UNL     1      41.797 -16.566   3.068  1.00  0.00     0.061 C 
BRANCH  31  33
HETATM   33  C   UNL     1      43.298 -18.658   2.904  1.00  0.00     0.028 A 
HETATM   34  C   UNL     1      43.922 -18.526   4.157  1.00  0.00     0.080 A 
HETATM   35  C   UNL     1      44.708 -19.572   4.652  1.00  0.00     0.037 A 
HETATM   36  C   UNL     1      44.895 -20.732   3.895  1.00  0.00     0.003 A 
HETATM   37  C   UNL     1      44.288 -20.858   2.647  1.00  0.00     0.001 A 
HETATM   38  C   UNL     1      43.488 -19.826   2.153  1.00  0.00     0.017 A 
BRANCH  34  39
HETATM   39  O   UNL     1      43.669 -17.392   4.891  1.00  0.00    -0.355 OA
HETATM   40  C   UNL     1      43.344 -17.641   6.257  1.00  0.00     0.210 C 
ENDBRANCH  34  39
ENDBRANCH  31  33
ENDBRANCH   1  27
TORSDOF 10
ENDMDL
MODEL 10
REMARK VINA RESULT:      -8.2      2.166      9.049
REMARK  10 active torsions:
REMARK  status: ('A' for Active; 'I' for Inactive)
REMARK    1  A    between atoms: C_4  and  C_5 
REMARK    2  A    between atoms: C_6  and  O_7 
REMARK    3  A    between atoms: C_14  and  C_15 
REMARK    4  A    between atoms: C_18  and  C_19 
REMARK    5  A    between atoms: C_19  and  N_20 
REMARK    6  A    between atoms: N_20  and  C_21 
REMARK    7  A    between atoms: C_21  and  N_22 
REMARK    8  A    between atoms: N_22  and  C_23 
REMARK    9  A    between atoms: C_25  and  C_26 
REMARK   10  A    between atoms: C_26  and  O_27 
ROOT
HETATM    1  C   UNL     1      40.978 -14.409   2.563  1.00  0.00     0.067 C 
HETATM    2  C   UNL     1      41.924 -13.177   2.627  1.00  0.00     0.001 C 
HETATM    3  C   UNL     1      42.086 -12.687   4.085  1.00  0.00     0.040 C 
HETATM    4  C   UNL     1      40.744 -12.178   4.633  1.00  0.00     0.206 C 
HETATM    5  N   UNL     1      39.654 -12.573   3.631  1.00  0.00    -0.065 N 
HETATM    6  H   UNL     1      38.736 -12.353   4.044  1.00  0.00     0.280 HD
HETATM    7  C   UNL     1      39.665 -14.056   3.297  1.00  0.00     0.246 C 
HETATM    8  C   UNL     1      41.251 -12.036   1.829  1.00  0.00     0.033 C 
HETATM    9  C   UNL     1      39.838 -11.768   2.357  1.00  0.00     0.236 C 
ENDROOT
BRANCH   4  10
HETATM   10  C   UNL     1      40.402 -12.592   6.078  1.00  0.00     0.155 C 
BRANCH  10  11
HETATM   11  N   UNL     1      41.084 -11.832   7.120  1.00  0.00    -0.365 N 
HETATM   12  H   UNL     1      42.080 -11.679   6.996  1.00  0.00     0.161 HD
BRANCH  11  13
HETATM   13  C   UNL     1      40.496 -10.886   7.914  1.00  0.00     0.172 C 
HETATM   14  S   UNL     1      39.334  -9.820   7.370  1.00  0.00    -0.041 SA
BRANCH  13  15
HETATM   15  N   UNL     1      40.808 -10.923   9.247  1.00  0.00    -0.333 N 
HETATM   16  H   UNL     1      39.998 -10.936   9.861  1.00  0.00     0.168 HD
BRANCH  15  17
HETATM   17  C   UNL     1      42.061 -10.807   9.893  1.00  0.00     0.035 A 
HETATM   18  C   UNL     1      43.272 -11.117   9.271  1.00  0.00     0.047 A 
HETATM   19  C   UNL     1      44.487 -11.035   9.963  1.00  0.00     0.041 A 
HETATM   20  C   UNL     1      44.502 -10.572  11.280  1.00  0.00     0.018 A 
HETATM   21  C   UNL     1      43.301 -10.196  11.889  1.00  0.00     0.003 A 
HETATM   22  C   UNL     1      42.089 -10.313  11.199  1.00  0.00     0.029 A 
BRANCH  19  23
HETATM   23  C   UNL     1      45.701 -11.499   9.245  1.00  0.00     0.293 C 
HETATM   24  O   UNL     1      46.601 -10.737   8.919  1.00  0.00    -0.259 OA
BRANCH  23  25
HETATM   25  O   UNL     1      45.652 -12.832   9.020  1.00  0.00    -0.323 OA
HETATM   26  C   UNL     1      45.662 -13.190   7.637  1.00  0.00     0.213 C 
ENDBRANCH  23  25
ENDBRANCH  19  23
ENDBRANCH  15  17
ENDBRANCH  13  15
ENDBRANCH  11  13
ENDBRANCH  10  11
ENDBRANCH   4  10
BRANCH   1  27
HETATM   27  C   UNL     1      41.589 -15.697   3.047  1.00  0.00     0.038 C 
HETATM   28  N   UNL     1      41.358 -16.232   4.298  1.00  0.00    -0.277 N 
HETATM   29  C   UNL     1      40.477 -15.753   5.340  1.00  0.00     0.179 C 
HETATM   30  N   UNL     1      42.053 -17.348   4.539  1.00  0.00    -0.172 NA
HETATM   31  C   UNL     1      42.583 -17.682   3.358  1.00  0.00     0.092 C 
HETATM   32  C   UNL     1      42.362 -16.654   2.408  1.00  0.00     0.061 C 
BRANCH  31  33
HETATM   33  C   UNL     1      43.288 -18.939   3.164  1.00  0.00     0.028 A 
HETATM   34  C   UNL     1      44.266 -19.374   4.076  1.00  0.00     0.080 A 
HETATM   35  C   UNL     1      44.920 -20.592   3.862  1.00  0.00     0.037 A 
HETATM   36  C   UNL     1      44.623 -21.361   2.733  1.00  0.00     0.003 A 
HETATM   37  C   UNL     1      43.664 -20.925   1.822  1.00  0.00     0.001 A 
HETATM   38  C   UNL     1      42.995 -19.720   2.037  1.00  0.00     0.017 A 
BRANCH  34  39
HETATM   39  O   UNL     1      44.489 -18.613   5.199  1.00  0.00    -0.355 OA
HETATM   40  C   UNL     1      44.275 -19.307   6.426  1.00  0.00     0.210 C 
ENDBRANCH  34  39
ENDBRANCH  31  33
ENDBRANCH   1  27
TORSDOF 10
ENDMDL
