MODEL 1
REMARK VINA RESULT:      -8.7      0.000      0.000
REMARK  5 active torsions:
REMARK  status: ('A' for Active; 'I' for Inactive)
REMARK    1  A    between atoms: C_8  and  C_9 
REMARK    2  A    between atoms: C_9  and  N_10 
REMARK       I    between atoms: N_10  and  C_11 
REMARK    3  A    between atoms: C_11  and  C_12 
REMARK    4  A    between atoms: C_13  and  O_14 
REMARK    5  A    between atoms: O_14  and  C_15 
ROOT
HETATM    1  C   UNL     1      43.277 -17.487   3.732  1.00  0.00     0.066 A 
HETATM    2  C   UNL     1      43.802 -17.898   4.964  1.00  0.00     0.091 A 
HETATM    3  C   UNL     1      44.312 -19.190   5.124  1.00  0.00     0.050 A 
HETATM    4  C   UNL     1      44.263 -20.112   4.067  1.00  0.00    -0.023 A 
HETATM    5  C   UNL     1      43.703 -19.718   2.830  1.00  0.00    -0.025 A 
HETATM    6  C   UNL     1      43.214 -18.409   2.678  1.00  0.00     0.032 A 
HETATM    7  C   UNL     1      44.754 -21.418   4.217  1.00  0.00     0.012 A 
HETATM    8  C   UNL     1      44.693 -22.327   3.159  1.00  0.00     0.001 A 
HETATM    9  C   UNL     1      44.142 -21.941   1.941  1.00  0.00     0.001 A 
HETATM   10  C   UNL     1      43.650 -20.645   1.777  1.00  0.00     0.012 A 
ENDROOT
BRANCH   1  11
HETATM   11  C   UNL     1      42.731 -16.122   3.488  1.00  0.00     0.254 C 
HETATM   12  N   UNL     1      43.585 -15.072   3.727  1.00  0.00    -0.352 N 
HETATM   13  H   UNL     1      44.559 -15.266   3.929  1.00  0.00     0.163 HD
HETATM   14  O   UNL     1      41.577 -15.989   3.100  1.00  0.00    -0.268 OA
BRANCH  12  15
HETATM   15  C   UNL     1      43.216 -13.697   3.485  1.00  0.00     0.165 C 
BRANCH  15  16
HETATM   16  C   UNL     1      42.426 -13.207   4.645  1.00  0.00     0.009 A 
HETATM   17  C   UNL     1      42.785 -13.201   5.982  1.00  0.00     0.034 A 
HETATM   18  C   UNL     1      44.009 -13.669   6.673  1.00  0.00     0.070 C 
HETATM   19  N   UNL     1      41.732 -12.651   6.653  1.00  0.00    -0.282 N 
HETATM   20  H   UNL     1      41.642 -12.488   7.650  1.00  0.00     0.189 HD
HETATM   21  N   UNL     1      40.714 -12.293   5.859  1.00  0.00    -0.179 NA
HETATM   22  C   UNL     1      41.124 -12.629   4.631  1.00  0.00     0.060 A 
HETATM   23  C   UNL     1      40.242 -12.388   3.461  1.00  0.00     0.073 C 
ENDBRANCH  15  16
ENDBRANCH  12  15
ENDBRANCH   1  11
BRANCH   2  24
HETATM   24  O   UNL     1      43.879 -17.049   6.037  1.00  0.00    -0.289 OA
BRANCH  24  25
HETATM   25  C   UNL     1      42.808 -17.311   6.942  1.00  0.00     0.505 C 
HETATM   26  F   UNL     1      43.243 -17.071   8.203  1.00  0.00    -0.184 F 
HETATM   27  F   UNL     1      41.839 -16.397   6.682  1.00  0.00    -0.184 F 
ENDBRANCH  24  25
ENDBRANCH   2  24
TORSDOF 5
ENDMDL
MODEL 2
REMARK VINA RESULT:      -8.7      3.649      4.810
REMARK  5 active torsions:
REMARK  status: ('A' for Active; 'I' for Inactive)
REMARK    1  A    between atoms: C_8  and  C_9 
REMARK    2  A    between atoms: C_9  and  N_10 
REMARK       I    between atoms: N_10  and  C_11 
REMARK    3  A    between atoms: C_11  and  C_12 
REMARK    4  A    between atoms: C_13  and  O_14 
REMARK    5  A    between atoms: O_14  and  C_15 
ROOT
HETATM    1  C   UNL     1      41.696 -16.952   2.441  1.00  0.00     0.066 A 
HETATM    2  C   UNL     1      42.157 -16.666   3.733  1.00  0.00     0.091 A 
HETATM    3  C   UNL     1      43.070 -17.516   4.365  1.00  0.00     0.050 A 
HETATM    4  C   UNL     1      43.502 -18.694   3.737  1.00  0.00    -0.023 A 
HETATM    5  C   UNL     1      43.015 -19.009   2.447  1.00  0.00    -0.025 A 
HETATM    6  C   UNL     1      42.116 -18.134   1.815  1.00  0.00     0.032 A 
HETATM    7  C   UNL     1      44.403 -19.567   4.366  1.00  0.00     0.012 A 
HETATM    8  C   UNL     1      44.820 -20.738   3.732  1.00  0.00     0.001 A 
HETATM    9  C   UNL     1      44.341 -21.050   2.462  1.00  0.00     0.001 A 
HETATM   10  C   UNL     1      43.445 -20.191   1.824  1.00  0.00     0.012 A 
ENDROOT
BRANCH   1  11
HETATM   11  C   UNL     1      40.736 -16.083   1.702  1.00  0.00     0.254 C 
HETATM   12  N   UNL     1      41.264 -15.304   0.701  1.00  0.00    -0.352 N 
HETATM   13  H   UNL     1      42.230 -15.442   0.428  1.00  0.00     0.163 HD
HETATM   14  O   UNL     1      39.550 -16.090   2.009  1.00  0.00    -0.268 OA
BRANCH  12  15
HETATM   15  C   UNL     1      40.451 -14.453  -0.135  1.00  0.00     0.165 C 
BRANCH  15  16
HETATM   16  C   UNL     1      41.229 -14.099  -1.351  1.00  0.00     0.009 A 
HETATM   17  C   UNL     1      41.268 -14.766  -2.563  1.00  0.00     0.034 A 
HETATM   18  C   UNL     1      40.594 -16.000  -3.029  1.00  0.00     0.070 C 
HETATM   19  N   UNL     1      42.119 -14.054  -3.359  1.00  0.00    -0.282 N 
HETATM   20  H   UNL     1      42.390 -14.248  -4.317  1.00  0.00     0.189 HD
HETATM   21  N   UNL     1      42.636 -12.971  -2.762  1.00  0.00    -0.179 NA
HETATM   22  C   UNL     1      42.102 -12.989  -1.536  1.00  0.00     0.060 A 
HETATM   23  C   UNL     1      42.452 -11.928  -0.558  1.00  0.00     0.073 C 
ENDBRANCH  15  16
ENDBRANCH  12  15
ENDBRANCH   1  11
BRANCH   2  24
HETATM   24  O   UNL     1      41.775 -15.534   4.403  1.00  0.00    -0.289 OA
BRANCH  24  25
HETATM   25  C   UNL     1      40.842 -15.869   5.430  1.00  0.00     0.505 C 
HETATM   26  F   UNL     1      41.453 -15.720   6.630  1.00  0.00    -0.184 F 
HETATM   27  F   UNL     1      39.851 -14.943   5.378  1.00  0.00    -0.184 F 
ENDBRANCH  24  25
ENDBRANCH   2  24
TORSDOF 5
ENDMDL
MODEL 3
REMARK VINA RESULT:      -8.7      2.195      2.921
REMARK  5 active torsions:
REMARK  status: ('A' for Active; 'I' for Inactive)
REMARK    1  A    between atoms: C_8  and  C_9 
REMARK    2  A    between atoms: C_9  and  N_10 
REMARK       I    between atoms: N_10  and  C_11 
REMARK    3  A    between atoms: C_11  and  C_12 
REMARK    4  A    between atoms: C_13  and  O_14 
REMARK    5  A    between atoms: O_14  and  C_15 
ROOT
HETATM    1  C   UNL     1      43.647 -17.593   4.233  1.00  0.00     0.066 A 
HETATM    2  C   UNL     1      44.014 -18.074   5.497  1.00  0.00     0.091 A 
HETATM    3  C   UNL     1      44.417 -19.403   5.662  1.00  0.00     0.050 A 
HETATM    4  C   UNL     1      44.413 -20.290   4.575  1.00  0.00    -0.023 A 
HETATM    5  C   UNL     1      44.010 -19.824   3.302  1.00  0.00    -0.025 A 
HETATM    6  C   UNL     1      43.630 -18.479   3.147  1.00  0.00     0.032 A 
HETATM    7  C   UNL     1      44.796 -21.631   4.727  1.00  0.00     0.012 A 
HETATM    8  C   UNL     1      44.782 -22.505   3.639  1.00  0.00     0.001 A 
HETATM    9  C   UNL     1      44.385 -22.046   2.385  1.00  0.00     0.001 A 
HETATM   10  C   UNL     1      44.002 -20.715   2.218  1.00  0.00     0.012 A 
ENDROOT
BRANCH   1  11
HETATM   11  C   UNL     1      43.223 -16.186   3.983  1.00  0.00     0.254 C 
HETATM   12  N   UNL     1      42.982 -15.845   2.674  1.00  0.00    -0.352 N 
HETATM   13  H   UNL     1      42.978 -16.573   1.969  1.00  0.00     0.163 HD
HETATM   14  O   UNL     1      43.114 -15.409   4.923  1.00  0.00    -0.268 OA
BRANCH  12  15
HETATM   15  C   UNL     1      42.515 -14.536   2.283  1.00  0.00     0.165 C 
BRANCH  15  16
HETATM   16  C   UNL     1      41.092 -14.645   1.866  1.00  0.00     0.009 A 
HETATM   17  C   UNL     1      40.590 -14.875   0.597  1.00  0.00     0.034 A 
HETATM   18  C   UNL     1      41.265 -15.068  -0.708  1.00  0.00     0.070 C 
HETATM   19  N   UNL     1      39.232 -14.894   0.726  1.00  0.00    -0.282 N 
HETATM   20  H   UNL     1      38.536 -15.036   0.002  1.00  0.00     0.189 HD
HETATM   21  N   UNL     1      38.807 -14.697   1.981  1.00  0.00    -0.179 NA
HETATM   22  C   UNL     1      39.932 -14.541   2.686  1.00  0.00     0.060 A 
HETATM   23  C   UNL     1      39.865 -14.291   4.148  1.00  0.00     0.073 C 
ENDBRANCH  15  16
ENDBRANCH  12  15
ENDBRANCH   1  11
BRANCH   2  24
HETATM   24  O   UNL     1      44.039 -17.262   6.600  1.00  0.00    -0.289 OA
BRANCH  24  25
HETATM   25  C   UNL     1      43.126 -17.749   7.583  1.00  0.00     0.505 C 
HETATM   26  F   UNL     1      43.413 -17.156   8.767  1.00  0.00    -0.184 F 
HETATM   27  F   UNL     1      41.890 -17.319   7.219  1.00  0.00    -0.184 F 
ENDBRANCH  24  25
ENDBRANCH   2  24
TORSDOF 5
ENDMDL
MODEL 4
REMARK VINA RESULT:      -8.6      2.305      3.526
REMARK  5 active torsions:
REMARK  status: ('A' for Active; 'I' for Inactive)
REMARK    1  A    between atoms: C_8  and  C_9 
REMARK    2  A    between atoms: C_9  and  N_10 
REMARK       I    between atoms: N_10  and  C_11 
REMARK    3  A    between atoms: C_11  and  C_12 
REMARK    4  A    between atoms: C_13  and  O_14 
REMARK    5  A    between atoms: O_14  and  C_15 
ROOT
HETATM    1  C   UNL     1      43.519 -17.560   3.519  1.00  0.00     0.066 A 
HETATM    2  C   UNL     1      43.302 -17.934   2.187  1.00  0.00     0.091 A 
HETATM    3  C   UNL     1      43.495 -19.258   1.780  1.00  0.00     0.050 A 
HETATM    4  C   UNL     1      43.956 -20.223   2.688  1.00  0.00    -0.023 A 
HETATM    5  C   UNL     1      44.213 -19.847   4.027  1.00  0.00    -0.025 A 
HETATM    6  C   UNL     1      43.992 -18.518   4.426  1.00  0.00     0.032 A 
HETATM    7  C   UNL     1      44.173 -21.552   2.291  1.00  0.00     0.012 A 
HETATM    8  C   UNL     1      44.638 -22.500   3.203  1.00  0.00     0.001 A 
HETATM    9  C   UNL     1      44.891 -22.132   4.522  1.00  0.00     0.001 A 
HETATM   10  C   UNL     1      44.679 -20.814   4.931  1.00  0.00     0.012 A 
ENDROOT
BRANCH   1  11
HETATM   11  C   UNL     1      43.318 -16.172   4.024  1.00  0.00     0.254 C 
HETATM   12  N   UNL     1      43.551 -15.156   3.127  1.00  0.00    -0.352 N 
HETATM   13  H   UNL     1      43.720 -15.388   2.155  1.00  0.00     0.163 HD
HETATM   14  O   UNL     1      42.969 -15.991   5.184  1.00  0.00    -0.268 OA
BRANCH  12  15
HETATM   15  C   UNL     1      43.347 -13.765   3.455  1.00  0.00     0.165 C 
BRANCH  15  16
HETATM   16  C   UNL     1      41.922 -13.423   3.208  1.00  0.00     0.009 A 
HETATM   17  C   UNL     1      41.271 -13.309   1.991  1.00  0.00     0.034 A 
HETATM   18  C   UNL     1      41.751 -13.467   0.599  1.00  0.00     0.070 C 
HETATM   19  N   UNL     1      39.978 -12.983   2.285  1.00  0.00    -0.282 N 
HETATM   20  H   UNL     1      39.212 -12.818   1.641  1.00  0.00     0.189 HD
HETATM   21  N   UNL     1      39.734 -12.879   3.599  1.00  0.00    -0.179 NA
HETATM   22  C   UNL     1      40.913 -13.143   4.172  1.00  0.00     0.060 A 
HETATM   23  C   UNL     1      41.042 -13.115   5.651  1.00  0.00     0.073 C 
ENDBRANCH  15  16
ENDBRANCH  12  15
ENDBRANCH   1  11
BRANCH   2  24
HETATM   24  O   UNL     1      42.853 -17.041   1.249  1.00  0.00    -0.289 OA
BRANCH  24  25
HETATM   25  C   UNL     1      41.474 -17.281   0.972  1.00  0.00     0.505 C 
HETATM   26  F   UNL     1      40.729 -16.626   1.895  1.00  0.00    -0.184 F 
HETATM   27  F   UNL     1      41.207 -16.704  -0.228  1.00  0.00    -0.184 F 
ENDBRANCH  24  25
ENDBRANCH   2  24
TORSDOF 5
ENDMDL
MODEL 5
REMARK VINA RESULT:      -8.5      3.001      3.780
REMARK  5 active torsions:
REMARK  status: ('A' for Active; 'I' for Inactive)
REMARK    1  A    between atoms: C_8  and  C_9 
REMARK    2  A    between atoms: C_9  and  N_10 
REMARK       I    between atoms: N_10  and  C_11 
REMARK    3  A    between atoms: C_11  and  C_12 
REMARK    4  A    between atoms: C_13  and  O_14 
REMARK    5  A    between atoms: O_14  and  C_15 
ROOT
HETATM    1  C   UNL     1      42.120 -17.161   2.367  1.00  0.00     0.066 A 
HETATM    2  C   UNL     1      42.580 -16.873   3.659  1.00  0.00     0.091 A 
HETATM    3  C   UNL     1      43.402 -17.778   4.338  1.00  0.00     0.050 A 
HETATM    4  C   UNL     1      43.739 -19.010   3.758  1.00  0.00    -0.023 A 
HETATM    5  C   UNL     1      43.249 -19.326   2.470  1.00  0.00    -0.025 A 
HETATM    6  C   UNL     1      42.443 -18.397   1.789  1.00  0.00     0.032 A 
HETATM    7  C   UNL     1      44.546 -19.937   4.435  1.00  0.00     0.012 A 
HETATM    8  C   UNL     1      44.868 -21.163   3.849  1.00  0.00     0.001 A 
HETATM    9  C   UNL     1      44.387 -21.474   2.580  1.00  0.00     0.001 A 
HETATM   10  C   UNL     1      43.584 -20.562   1.894  1.00  0.00     0.012 A 
ENDROOT
BRANCH   1  11
HETATM   11  C   UNL     1      41.255 -16.236   1.580  1.00  0.00     0.254 C 
HETATM   12  N   UNL     1      41.891 -15.449   0.650  1.00  0.00    -0.352 N 
HETATM   13  H   UNL     1      42.871 -15.615   0.453  1.00  0.00     0.163 HD
HETATM   14  O   UNL     1      40.048 -16.209   1.788  1.00  0.00    -0.268 OA
BRANCH  12  15
HETATM   15  C   UNL     1      41.180 -14.545  -0.222  1.00  0.00     0.165 C 
BRANCH  15  16
HETATM   16  C   UNL     1      41.725 -13.175  -0.031  1.00  0.00     0.009 A 
HETATM   17  C   UNL     1      41.660 -12.381   1.101  1.00  0.00     0.034 A 
HETATM   18  C   UNL     1      41.047 -12.611   2.430  1.00  0.00     0.070 C 
HETATM   19  N   UNL     1      42.304 -11.220   0.784  1.00  0.00    -0.282 N 
HETATM   20  H   UNL     1      42.451 -10.406   1.371  1.00  0.00     0.189 HD
HETATM   21  N   UNL     1      42.788 -11.195  -0.465  1.00  0.00    -0.179 NA
HETATM   22  C   UNL     1      42.439 -12.381  -0.974  1.00  0.00     0.060 A 
HETATM   23  C   UNL     1      42.801 -12.726  -2.372  1.00  0.00     0.073 C 
ENDBRANCH  15  16
ENDBRANCH  12  15
ENDBRANCH   1  11
BRANCH   2  24
HETATM   24  O   UNL     1      42.288 -15.689   4.283  1.00  0.00    -0.289 OA
BRANCH  24  25
HETATM   25  C   UNL     1      43.461 -14.880   4.364  1.00  0.00     0.505 C 
HETATM   26  F   UNL     1      43.793 -14.478   3.113  1.00  0.00    -0.184 F 
HETATM   27  F   UNL     1      43.123 -13.763   5.058  1.00  0.00    -0.184 F 
ENDBRANCH  24  25
ENDBRANCH   2  24
TORSDOF 5
ENDMDL
MODEL 6
REMARK VINA RESULT:      -8.4      1.556      2.066
REMARK  5 active torsions:
REMARK  status: ('A' for Active; 'I' for Inactive)
REMARK    1  A    between atoms: C_8  and  C_9 
REMARK    2  A    between atoms: C_9  and  N_10 
REMARK       I    between atoms: N_10  and  C_11 
REMARK    3  A    between atoms: C_11  and  C_12 
REMARK    4  A    between atoms: C_13  and  O_14 
REMARK    5  A    between atoms: O_14  and  C_15 
ROOT
HETATM    1  C   UNL     1      42.404 -17.467   3.052  1.00  0.00     0.066 A 
HETATM    2  C   UNL     1      42.902 -17.515   4.360  1.00  0.00     0.091 A 
HETATM    3  C   UNL     1      43.663 -18.607   4.790  1.00  0.00     0.050 A 
HETATM    4  C   UNL     1      43.899 -19.694   3.935  1.00  0.00    -0.023 A 
HETATM    5  C   UNL     1      43.369 -19.671   2.624  1.00  0.00    -0.025 A 
HETATM    6  C   UNL     1      42.626 -18.556   2.198  1.00  0.00     0.032 A 
HETATM    7  C   UNL     1      44.644 -20.805   4.358  1.00  0.00     0.012 A 
HETATM    8  C   UNL     1      44.865 -21.883   3.499  1.00  0.00     0.001 A 
HETATM    9  C   UNL     1      44.345 -21.861   2.208  1.00  0.00     0.001 A 
HETATM   10  C   UNL     1      43.602 -20.762   1.773  1.00  0.00     0.012 A 
ENDROOT
BRANCH   1  11
HETATM   11  C   UNL     1      41.600 -16.328   2.523  1.00  0.00     0.254 C 
HETATM   12  N   UNL     1      40.688 -15.772   3.386  1.00  0.00    -0.352 N 
HETATM   13  H   UNL     1      40.688 -16.064   4.357  1.00  0.00     0.163 HD
HETATM   14  O   UNL     1      41.773 -15.945   1.372  1.00  0.00    -0.268 OA
BRANCH  12  15
HETATM   15  C   UNL     1      39.876 -14.630   3.034  1.00  0.00     0.165 C 
BRANCH  15  16
HETATM   16  C   UNL     1      40.536 -13.402   3.550  1.00  0.00     0.009 A 
HETATM   17  C   UNL     1      41.348 -12.517   2.862  1.00  0.00     0.034 A 
HETATM   18  C   UNL     1      41.820 -12.502   1.458  1.00  0.00     0.070 C 
HETATM   19  N   UNL     1      41.703 -11.554   3.762  1.00  0.00    -0.282 N 
HETATM   20  H   UNL     1      42.293 -10.743   3.611  1.00  0.00     0.189 HD
HETATM   21  N   UNL     1      41.182 -11.739   4.983  1.00  0.00    -0.179 NA
HETATM   22  C   UNL     1      40.471 -12.865   4.867  1.00  0.00     0.060 A 
HETATM   23  C   UNL     1      39.739 -13.405   6.040  1.00  0.00     0.073 C 
ENDBRANCH  15  16
ENDBRANCH  12  15
ENDBRANCH   1  11
BRANCH   2  24
HETATM   24  O   UNL     1      42.709 -16.488   5.246  1.00  0.00    -0.289 OA
BRANCH  24  25
HETATM   25  C   UNL     1      42.158 -16.993   6.462  1.00  0.00     0.505 C 
HETATM   26  F   UNL     1      42.834 -16.444   7.501  1.00  0.00    -0.184 F 
HETATM   27  F   UNL     1      40.883 -16.533   6.538  1.00  0.00    -0.184 F 
ENDBRANCH  24  25
ENDBRANCH   2  24
TORSDOF 5
ENDMDL
MODEL 7
REMARK VINA RESULT:      -8.2      1.837      2.293
REMARK  5 active torsions:
REMARK  status: ('A' for Active; 'I' for Inactive)
REMARK    1  A    between atoms: C_8  and  C_9 
REMARK    2  A    between atoms: C_9  and  N_10 
REMARK       I    between atoms: N_10  and  C_11 
REMARK    3  A    between atoms: C_11  and  C_12 
REMARK    4  A    between atoms: C_13  and  O_14 
REMARK    5  A    between atoms: O_14  and  C_15 
ROOT
HETATM    1  C   UNL     1      43.138 -17.348   4.396  1.00  0.00     0.066 A 
HETATM    2  C   UNL     1      43.819 -17.898   5.490  1.00  0.00     0.091 A 
HETATM    3  C   UNL     1      44.401 -19.166   5.400  1.00  0.00     0.050 A 
HETATM    4  C   UNL     1      44.271 -19.930   4.231  1.00  0.00    -0.023 A 
HETATM    5  C   UNL     1      43.554 -19.399   3.133  1.00  0.00    -0.025 A 
HETATM    6  C   UNL     1      42.994 -18.113   3.230  1.00  0.00     0.032 A 
HETATM    7  C   UNL     1      44.833 -21.212   4.131  1.00  0.00     0.012 A 
HETATM    8  C   UNL     1      44.690 -21.963   2.964  1.00  0.00     0.001 A 
HETATM    9  C   UNL     1      43.985 -21.442   1.882  1.00  0.00     0.001 A 
HETATM   10  C   UNL     1      43.421 -20.168   1.966  1.00  0.00     0.012 A 
ENDROOT
BRANCH   1  11
HETATM   11  C   UNL     1      42.508 -15.997   4.417  1.00  0.00     0.254 C 
HETATM   12  N   UNL     1      41.264 -15.894   3.841  1.00  0.00    -0.352 N 
HETATM   13  H   UNL     1      40.786 -16.739   3.550  1.00  0.00     0.163 HD
HETATM   14  O   UNL     1      43.105 -15.056   4.926  1.00  0.00    -0.268 OA
BRANCH  12  15
HETATM   15  C   UNL     1      40.508 -14.664   3.833  1.00  0.00     0.165 C 
BRANCH  15  16
HETATM   16  C   UNL     1      41.186 -13.697   2.931  1.00  0.00     0.009 A 
HETATM   17  C   UNL     1      41.606 -12.409   3.221  1.00  0.00     0.034 A 
HETATM   18  C   UNL     1      41.514 -11.600   4.459  1.00  0.00     0.070 C 
HETATM   19  N   UNL     1      42.172 -11.930   2.076  1.00  0.00    -0.282 N 
HETATM   20  H   UNL     1      42.587 -11.019   1.916  1.00  0.00     0.189 HD
HETATM   21  N   UNL     1      42.159 -12.806   1.061  1.00  0.00    -0.179 NA
HETATM   22  C   UNL     1      41.558 -13.886   1.569  1.00  0.00     0.060 A 
HETATM   23  C   UNL     1      41.350 -15.088   0.723  1.00  0.00     0.073 C 
ENDBRANCH  15  16
ENDBRANCH  12  15
ENDBRANCH   1  11
BRANCH   2  24
HETATM   24  O   UNL     1      43.982 -17.206   6.662  1.00  0.00    -0.289 OA
BRANCH  24  25
HETATM   25  C   UNL     1      43.129 -17.749   7.669  1.00  0.00     0.505 C 
HETATM   26  F   UNL     1      43.383 -17.111   8.837  1.00  0.00    -0.184 F 
HETATM   27  F   UNL     1      41.856 -17.431   7.319  1.00  0.00    -0.184 F 
ENDBRANCH  24  25
ENDBRANCH   2  24
TORSDOF 5
ENDMDL
MODEL 8
REMARK VINA RESULT:      -8.2      2.184      2.728
REMARK  5 active torsions:
REMARK  status: ('A' for Active; 'I' for Inactive)
REMARK    1  A    between atoms: C_8  and  C_9 
REMARK    2  A    between atoms: C_9  and  N_10 
REMARK       I    between atoms: N_10  and  C_11 
REMARK    3  A    between atoms: C_11  and  C_12 
REMARK    4  A    between atoms: C_13  and  O_14 
REMARK    5  A    between atoms: O_14  and  C_15 
ROOT
HETATM    1  C   UNL     1      43.984 -17.905   3.357  1.00  0.00     0.066 A 
HETATM    2  C   UNL     1      44.078 -17.909   4.754  1.00  0.00     0.091 A 
HETATM    3  C   UNL     1      44.335 -19.098   5.446  1.00  0.00     0.050 A 
HETATM    4  C   UNL     1      44.455 -20.313   4.755  1.00  0.00    -0.023 A 
HETATM    5  C   UNL     1      44.327 -20.325   3.347  1.00  0.00    -0.025 A 
HETATM    6  C   UNL     1      44.091 -19.119   2.664  1.00  0.00     0.032 A 
HETATM    7  C   UNL     1      44.695 -21.517   5.435  1.00  0.00     0.012 A 
HETATM    8  C   UNL     1      44.806 -22.720   4.737  1.00  0.00     0.001 A 
HETATM    9  C   UNL     1      44.680 -22.733   3.350  1.00  0.00     0.001 A 
HETATM   10  C   UNL     1      44.442 -21.544   2.660  1.00  0.00     0.012 A 
ENDROOT
BRANCH   1  11
HETATM   11  C   UNL     1      43.727 -16.674   2.556  1.00  0.00     0.254 C 
HETATM   12  N   UNL     1      42.881 -15.747   3.116  1.00  0.00    -0.352 N 
HETATM   13  H   UNL     1      42.577 -15.875   4.074  1.00  0.00     0.163 HD
HETATM   14  O   UNL     1      44.259 -16.540   1.461  1.00  0.00    -0.268 OA
BRANCH  12  15
HETATM   15  C   UNL     1      42.581 -14.485   2.484  1.00  0.00     0.165 C 
BRANCH  15  16
HETATM   16  C   UNL     1      41.142 -14.471   2.111  1.00  0.00     0.009 A 
HETATM   17  C   UNL     1      40.048 -14.271   2.935  1.00  0.00     0.034 A 
HETATM   18  C   UNL     1      39.947 -14.027   4.393  1.00  0.00     0.070 C 
HETATM   19  N   UNL     1      38.949 -14.347   2.129  1.00  0.00    -0.282 N 
HETATM   20  H   UNL     1      37.974 -14.249   2.390  1.00  0.00     0.189 HD
HETATM   21  N   UNL     1      39.240 -14.577   0.841  1.00  0.00    -0.179 NA
HETATM   22  C   UNL     1      40.574 -14.658   0.818  1.00  0.00     0.060 A 
HETATM   23  C   UNL     1      41.280 -14.919  -0.462  1.00  0.00     0.073 C 
ENDBRANCH  15  16
ENDBRANCH  12  15
ENDBRANCH   1  11
BRANCH   2  24
HETATM   24  O   UNL     1      43.969 -16.758   5.490  1.00  0.00    -0.289 OA
BRANCH  24  25
HETATM   25  C   UNL     1      42.835 -16.837   6.352  1.00  0.00     0.505 C 
HETATM   26  F   UNL     1      43.270 -17.054   7.617  1.00  0.00    -0.184 F 
HETATM   27  F   UNL     1      42.248 -15.613   6.344  1.00  0.00    -0.184 F 
ENDBRANCH  24  25
ENDBRANCH   2  24
TORSDOF 5
ENDMDL
MODEL 9
REMARK VINA RESULT:      -8.1      2.278      3.242
REMARK  5 active torsions:
REMARK  status: ('A' for Active; 'I' for Inactive)
REMARK    1  A    between atoms: C_8  and  C_9 
REMARK    2  A    between atoms: C_9  and  N_10 
REMARK       I    between atoms: N_10  and  C_11 
REMARK    3  A    between atoms: C_11  and  C_12 
REMARK    4  A    between atoms: C_13  and  O_14 
REMARK    5  A    between atoms: O_14  and  C_15 
ROOT
HETATM    1  C   UNL     1      42.871 -17.743   4.104  1.00  0.00     0.066 A 
HETATM    2  C   UNL     1      42.725 -17.863   2.716  1.00  0.00     0.091 A 
HETATM    3  C   UNL     1      43.126 -19.030   2.057  1.00  0.00     0.050 A 
HETATM    4  C   UNL     1      43.726 -20.080   2.769  1.00  0.00    -0.023 A 
HETATM    5  C   UNL     1      43.911 -19.954   4.165  1.00  0.00    -0.025 A 
HETATM    6  C   UNL     1      43.482 -18.785   4.816  1.00  0.00     0.032 A 
HETATM    7  C   UNL     1      44.150 -21.250   2.120  1.00  0.00     0.012 A 
HETATM    8  C   UNL     1      44.752 -22.284   2.838  1.00  0.00     0.001 A 
HETATM    9  C   UNL     1      44.934 -22.162   4.213  1.00  0.00     0.001 A 
HETATM   10  C   UNL     1      44.516 -21.005   4.872  1.00  0.00     0.012 A 
ENDROOT
BRANCH   1  11
HETATM   11  C   UNL     1      42.452 -16.536   4.871  1.00  0.00     0.254 C 
HETATM   12  N   UNL     1      41.175 -16.081   4.643  1.00  0.00    -0.352 N 
HETATM   13  H   UNL     1      40.547 -16.640   4.078  1.00  0.00     0.163 HD
HETATM   14  O   UNL     1      43.236 -16.007   5.649  1.00  0.00    -0.268 OA
BRANCH  12  15
HETATM   15  C   UNL     1      40.611 -14.956   5.350  1.00  0.00     0.165 C 
BRANCH  15  16
HETATM   16  C   UNL     1      40.976 -13.709   4.628  1.00  0.00     0.009 A 
HETATM   17  C   UNL     1      41.816 -12.693   5.051  1.00  0.00     0.034 A 
HETATM   18  C   UNL     1      42.583 -12.508   6.305  1.00  0.00     0.070 C 
HETATM   19  N   UNL     1      41.835 -11.774   4.041  1.00  0.00    -0.282 N 
HETATM   20  H   UNL     1      42.343 -10.898   4.002  1.00  0.00     0.189 HD
HETATM   21  N   UNL     1      41.076 -12.113   2.990  1.00  0.00    -0.179 NA
HETATM   22  C   UNL     1      40.545 -13.291   3.337  1.00  0.00     0.060 A 
HETATM   23  C   UNL     1      39.621 -13.992   2.410  1.00  0.00     0.073 C 
ENDBRANCH  15  16
ENDBRANCH  12  15
ENDBRANCH   1  11
BRANCH   2  24
HETATM   24  O   UNL     1      42.148 -16.875   1.962  1.00  0.00    -0.289 OA
BRANCH  24  25
HETATM   25  C   UNL     1      41.134 -17.432   1.126  1.00  0.00     0.505 C 
HETATM   26  F   UNL     1      39.938 -17.284   1.745  1.00  0.00    -0.184 F 
HETATM   27  F   UNL     1      41.089 -16.671   0.002  1.00  0.00    -0.184 F 
ENDBRANCH  24  25
ENDBRANCH   2  24
TORSDOF 5
ENDMDL
MODEL 10
REMARK VINA RESULT:      -7.9      5.069      9.183
REMARK  5 active torsions:
REMARK  status: ('A' for Active; 'I' for Inactive)
REMARK    1  A    between atoms: C_8  and  C_9 
REMARK    2  A    between atoms: C_9  and  N_10 
REMARK       I    between atoms: N_10  and  C_11 
REMARK    3  A    between atoms: C_11  and  C_12 
REMARK    4  A    between atoms: C_13  and  O_14 
REMARK    5  A    between atoms: O_14  and  C_15 
ROOT
HETATM    1  C   UNL     1      42.532 -10.700   9.190  1.00  0.00     0.066 A 
HETATM    2  C   UNL     1      43.851 -10.746   9.660  1.00  0.00     0.091 A 
HETATM    3  C   UNL     1      44.130 -10.548  11.016  1.00  0.00     0.050 A 
HETATM    4  C   UNL     1      43.100 -10.252  11.920  1.00  0.00    -0.023 A 
HETATM    5  C   UNL     1      41.769 -10.167  11.450  1.00  0.00    -0.025 A 
HETATM    6  C   UNL     1      41.501 -10.391  10.088  1.00  0.00     0.032 A 
HETATM    7  C   UNL     1      43.365 -10.032  13.281  1.00  0.00     0.012 A 
HETATM    8  C   UNL     1      42.331  -9.731  14.168  1.00  0.00     0.001 A 
HETATM    9  C   UNL     1      41.020  -9.648  13.707  1.00  0.00     0.001 A 
HETATM   10  C   UNL     1      40.740  -9.865  12.357  1.00  0.00     0.012 A 
ENDROOT
BRANCH   1  11
HETATM   11  C   UNL     1      42.162 -10.916   7.763  1.00  0.00     0.254 C 
HETATM   12  N   UNL     1      42.585 -12.094   7.195  1.00  0.00    -0.352 N 
HETATM   13  H   UNL     1      43.007 -12.802   7.785  1.00  0.00     0.163 HD
HETATM   14  O   UNL     1      41.520 -10.062   7.165  1.00  0.00    -0.268 OA
BRANCH  12  15
HETATM   15  C   UNL     1      42.258 -12.467   5.839  1.00  0.00     0.165 C 
BRANCH  15  16
HETATM   16  C   UNL     1      41.397 -13.678   5.874  1.00  0.00     0.009 A 
HETATM   17  C   UNL     1      40.014 -13.741   5.922  1.00  0.00     0.034 A 
HETATM   18  C   UNL     1      38.982 -12.679   5.964  1.00  0.00     0.070 C 
HETATM   19  N   UNL     1      39.697 -15.068   5.935  1.00  0.00    -0.282 N 
HETATM   20  H   UNL     1      38.776 -15.492   5.969  1.00  0.00     0.189 HD
HETATM   21  N   UNL     1      40.765 -15.878   5.897  1.00  0.00    -0.179 NA
HETATM   22  C   UNL     1      41.808 -15.041   5.862  1.00  0.00     0.060 A 
HETATM   23  C   UNL     1      43.191 -15.579   5.820  1.00  0.00     0.073 C 
ENDBRANCH  15  16
ENDBRANCH  12  15
ENDBRANCH   1  11
BRANCH   2  24
HETATM   24  O   UNL     1      44.905 -11.029   8.830  1.00  0.00    -0.289 OA
BRANCH  24  25
HETATM   25  C   UNL     1      45.547 -12.231   9.255  1.00  0.00     0.505 C 
HETATM   26  F   UNL     1      44.684 -13.262   9.088  1.00  0.00    -0.184 F 
HETATM   27  F   UNL     1      46.582 -12.446   8.403  1.00  0.00    -0.184 F 
ENDBRANCH  24  25
ENDBRANCH   2  24
TORSDOF 5
ENDMDL
