MODEL 1
REMARK VINA RESULT:      -8.6      0.000      0.000
REMARK  3 active torsions:
REMARK  status: ('A' for Active; 'I' for Inactive)
REMARK    1  A    between atoms: C_9  and  C_10 
REMARK    2  A    between atoms: C_16  and  C_17 
REMARK       I    between atoms: C_17  and  N_18 
REMARK    3  A    between atoms: N_18  and  C_19 
ROOT
HETATM    1  C   UNL     1      41.425 -16.292   0.105  1.00  0.00     0.070 C 
HETATM    2  C   UNL     1      41.743 -15.562   1.385  1.00  0.00     0.037 A 
HETATM    3  N   UNL     1      41.036 -14.383   1.600  1.00  0.00    -0.191 N 
HETATM    4  C   UNL     1      41.317 -13.533   2.609  1.00  0.00     0.735 A 
HETATM    5  N   UNL     1      42.266 -13.878   3.530  1.00  0.00    -0.091 N 
HETATM    6  N   UNL     1      42.497 -12.848   4.363  1.00  0.00     0.012 NA
HETATM    7  N   UNL     1      41.623 -11.917   3.992  1.00  0.00     0.033 NA
HETATM    8  N   UNL     1      40.885 -12.329   2.897  1.00  0.00     0.030 NA
HETATM    9  C   UNL     1      43.033 -15.115   3.509  1.00  0.00     0.216 A 
HETATM   10  C   UNL     1      42.686 -15.950   2.280  1.00  0.00     0.063 A 
HETATM   11  H   UNL     1      40.377 -14.089   0.883  1.00  0.00     0.184 HD
ENDROOT
BRANCH  10  12
HETATM   12  C   UNL     1      43.525 -17.166   2.140  1.00  0.00     0.256 C 
HETATM   13  N   UNL     1      43.046 -18.242   2.851  1.00  0.00    -0.323 N 
HETATM   14  H   UNL     1      42.233 -18.076   3.431  1.00  0.00     0.169 HD
HETATM   15  O   UNL     1      44.547 -17.096   1.469  1.00  0.00    -0.267 OA
BRANCH  13  16
HETATM   16  C   UNL     1      43.569 -19.551   2.882  1.00  0.00     0.035 A 
HETATM   17  C   UNL     1      43.406 -20.480   1.853  1.00  0.00     0.029 A 
HETATM   18  C   UNL     1      43.944 -21.767   1.969  1.00  0.00     0.002 A 
HETATM   19  C   UNL     1      44.641 -22.136   3.117  1.00  0.00     0.000 A 
HETATM   20  C   UNL     1      44.808 -21.218   4.149  1.00  0.00     0.002 A 
HETATM   21  C   UNL     1      44.279 -19.929   4.029  1.00  0.00     0.029 A 
ENDBRANCH  13  16
ENDBRANCH  10  12
BRANCH   9  22
HETATM   22  C   UNL     1      42.796 -15.865   4.814  1.00  0.00     0.064 A 
HETATM   23  N   UNL     1      41.548 -16.353   5.058  1.00  0.00    -0.263 NA
HETATM   24  C   UNL     1      41.349 -16.989   6.235  1.00  0.00     0.117 A 
HETATM   25  C   UNL     1      42.333 -17.172   7.191  1.00  0.00     0.019 A 
HETATM   26  C   UNL     1      43.602 -16.672   6.930  1.00  0.00     0.003 A 
HETATM   27  C   UNL     1      43.841 -16.009   5.730  1.00  0.00     0.030 A 
ENDBRANCH   9  22
TORSDOF 3
ENDMDL
MODEL 2
REMARK VINA RESULT:      -8.1      1.829      3.844
REMARK  3 active torsions:
REMARK  status: ('A' for Active; 'I' for Inactive)
REMARK    1  A    between atoms: C_9  and  C_10 
REMARK    2  A    between atoms: C_16  and  C_17 
REMARK       I    between atoms: C_17  and  N_18 
REMARK    3  A    between atoms: N_18  and  C_19 
ROOT
HETATM    1  C   UNL     1      44.295 -16.149   6.602  1.00  0.00     0.070 C 
HETATM    2  C   UNL     1      43.155 -15.420   5.937  1.00  0.00     0.037 A 
HETATM    3  N   UNL     1      43.030 -14.072   6.261  1.00  0.00    -0.191 N 
HETATM    4  C   UNL     1      41.974 -13.323   5.882  1.00  0.00     0.735 A 
HETATM    5  N   UNL     1      41.028 -13.866   5.059  1.00  0.00    -0.091 N 
HETATM    6  N   UNL     1      39.997 -13.015   4.915  1.00  0.00     0.012 NA
HETATM    7  N   UNL     1      40.368 -11.927   5.583  1.00  0.00     0.033 NA
HETATM    8  N   UNL     1      41.595 -12.107   6.195  1.00  0.00     0.030 NA
HETATM    9  C   UNL     1      41.054 -15.230   4.551  1.00  0.00     0.216 A 
HETATM   10  C   UNL     1      42.246 -15.998   5.114  1.00  0.00     0.063 A 
HETATM   11  H   UNL     1      43.693 -13.682   6.925  1.00  0.00     0.184 HD
ENDROOT
BRANCH  10  12
HETATM   12  C   UNL     1      42.257 -17.432   4.726  1.00  0.00     0.256 C 
HETATM   13  N   UNL     1      43.303 -17.763   3.897  1.00  0.00    -0.323 N 
HETATM   14  H   UNL     1      43.899 -17.002   3.594  1.00  0.00     0.169 HD
HETATM   15  O   UNL     1      41.350 -18.151   5.127  1.00  0.00    -0.267 OA
BRANCH  13  16
HETATM   16  C   UNL     1      43.634 -19.041   3.402  1.00  0.00     0.035 A 
HETATM   17  C   UNL     1      43.239 -19.518   2.151  1.00  0.00     0.029 A 
HETATM   18  C   UNL     1      43.597 -20.807   1.739  1.00  0.00     0.002 A 
HETATM   19  C   UNL     1      44.344 -21.630   2.578  1.00  0.00     0.000 A 
HETATM   20  C   UNL     1      44.741 -21.164   3.828  1.00  0.00     0.002 A 
HETATM   21  C   UNL     1      44.393 -19.873   4.235  1.00  0.00     0.029 A 
ENDBRANCH  13  16
ENDBRANCH  10  12
BRANCH   9  22
HETATM   22  C   UNL     1      41.048 -15.189   3.027  1.00  0.00     0.064 A 
HETATM   23  N   UNL     1      42.230 -14.971   2.385  1.00  0.00    -0.263 NA
HETATM   24  C   UNL     1      42.201 -14.907   1.035  1.00  0.00     0.117 A 
HETATM   25  C   UNL     1      41.051 -15.054   0.279  1.00  0.00     0.019 A 
HETATM   26  C   UNL     1      39.853 -15.277   0.944  1.00  0.00     0.003 A 
HETATM   27  C   UNL     1      39.846 -15.345   2.334  1.00  0.00     0.030 A 
ENDBRANCH   9  22
TORSDOF 3
ENDMDL
MODEL 3
REMARK VINA RESULT:      -7.5      2.280      5.854
REMARK  3 active torsions:
REMARK  status: ('A' for Active; 'I' for Inactive)
REMARK    1  A    between atoms: C_9  and  C_10 
REMARK    2  A    between atoms: C_16  and  C_17 
REMARK       I    between atoms: C_17  and  N_18 
REMARK    3  A    between atoms: N_18  and  C_19 
ROOT
HETATM    1  C   UNL     1      39.828 -14.451   5.464  1.00  0.00     0.070 C 
HETATM    2  C   UNL     1      41.099 -15.261   5.461  1.00  0.00     0.037 A 
HETATM    3  N   UNL     1      41.374 -15.957   6.634  1.00  0.00    -0.191 N 
HETATM    4  C   UNL     1      42.544 -16.593   6.852  1.00  0.00     0.735 A 
HETATM    5  N   UNL     1      43.470 -16.655   5.848  1.00  0.00    -0.091 N 
HETATM    6  N   UNL     1      44.610 -17.201   6.305  1.00  0.00     0.012 NA
HETATM    7  N   UNL     1      44.335 -17.546   7.559  1.00  0.00     0.033 NA
HETATM    8  N   UNL     1      43.053 -17.169   7.914  1.00  0.00     0.030 NA
HETATM    9  C   UNL     1      43.305 -16.062   4.529  1.00  0.00     0.216 A 
HETATM   10  C   UNL     1      41.985 -15.303   4.434  1.00  0.00     0.063 A 
HETATM   11  H   UNL     1      40.720 -15.860   7.406  1.00  0.00     0.184 HD
ENDROOT
BRANCH  10  12
HETATM   12  C   UNL     1      41.816 -14.575   3.151  1.00  0.00     0.256 C 
HETATM   13  N   UNL     1      41.078 -15.272   2.223  1.00  0.00    -0.323 N 
HETATM   14  H   UNL     1      40.793 -16.208   2.483  1.00  0.00     0.169 HD
HETATM   15  O   UNL     1      42.361 -13.486   3.023  1.00  0.00    -0.267 OA
BRANCH  13  16
HETATM   16  C   UNL     1      40.686 -14.841   0.940  1.00  0.00     0.035 A 
HETATM   17  C   UNL     1      39.651 -13.933   0.705  1.00  0.00     0.029 A 
HETATM   18  C   UNL     1      39.313 -13.568  -0.603  1.00  0.00     0.002 A 
HETATM   19  C   UNL     1      40.001 -14.113  -1.685  1.00  0.00     0.000 A 
HETATM   20  C   UNL     1      41.033 -15.020  -1.461  1.00  0.00     0.002 A 
HETATM   21  C   UNL     1      41.377 -15.377  -0.154  1.00  0.00     0.029 A 
ENDBRANCH  13  16
ENDBRANCH  10  12
BRANCH   9  22
HETATM   22  C   UNL     1      43.429 -17.158   3.477  1.00  0.00     0.064 A 
HETATM   23  N   UNL     1      43.949 -16.827   2.262  1.00  0.00    -0.263 NA
HETATM   24  C   UNL     1      44.023 -17.806   1.331  1.00  0.00     0.117 A 
HETATM   25  C   UNL     1      43.607 -19.108   1.545  1.00  0.00     0.019 A 
HETATM   26  C   UNL     1      43.080 -19.433   2.787  1.00  0.00     0.003 A 
HETATM   27  C   UNL     1      42.986 -18.450   3.767  1.00  0.00     0.030 A 
ENDBRANCH   9  22
TORSDOF 3
ENDMDL
MODEL 4
REMARK VINA RESULT:      -7.4      2.390      5.712
REMARK  3 active torsions:
REMARK  status: ('A' for Active; 'I' for Inactive)
REMARK    1  A    between atoms: C_9  and  C_10 
REMARK    2  A    between atoms: C_16  and  C_17 
REMARK       I    between atoms: C_17  and  N_18 
REMARK    3  A    between atoms: N_18  and  C_19 
ROOT
HETATM    1  C   UNL     1      43.584 -18.493   1.751  1.00  0.00     0.070 C 
HETATM    2  C   UNL     1      43.118 -17.933   3.071  1.00  0.00     0.037 A 
HETATM    3  N   UNL     1      43.892 -18.270   4.177  1.00  0.00    -0.191 N 
HETATM    4  C   UNL     1      43.523 -17.988   5.443  1.00  0.00     0.735 A 
HETATM    5  N   UNL     1      42.395 -17.249   5.664  1.00  0.00    -0.091 N 
HETATM    6  N   UNL     1      42.125 -17.198   6.980  1.00  0.00     0.012 NA
HETATM    7  N   UNL     1      43.142 -17.835   7.552  1.00  0.00     0.033 NA
HETATM    8  N   UNL     1      44.018 -18.335   6.607  1.00  0.00     0.030 NA
HETATM    9  C   UNL     1      41.521 -16.736   4.617  1.00  0.00     0.216 A 
HETATM   10  C   UNL     1      41.996 -17.191   3.241  1.00  0.00     0.063 A 
HETATM   11  H   UNL     1      44.695 -18.876   4.025  1.00  0.00     0.184 HD
ENDROOT
BRANCH  10  12
HETATM   12  C   UNL     1      41.074 -16.800   2.144  1.00  0.00     0.256 C 
HETATM   13  N   UNL     1      41.555 -15.767   1.372  1.00  0.00    -0.323 N 
HETATM   14  H   UNL     1      42.430 -15.351   1.667  1.00  0.00     0.169 HD
HETATM   15  O   UNL     1      39.998 -17.377   2.053  1.00  0.00    -0.267 OA
BRANCH  13  16
HETATM   16  C   UNL     1      40.960 -15.204   0.225  1.00  0.00     0.035 A 
HETATM   17  C   UNL     1      40.024 -14.169   0.261  1.00  0.00     0.029 A 
HETATM   18  C   UNL     1      39.468 -13.677  -0.925  1.00  0.00     0.002 A 
HETATM   19  C   UNL     1      39.836 -14.220  -2.154  1.00  0.00     0.000 A 
HETATM   20  C   UNL     1      40.768 -15.253  -2.199  1.00  0.00     0.002 A 
HETATM   21  C   UNL     1      41.331 -15.739  -1.016  1.00  0.00     0.029 A 
ENDBRANCH  13  16
ENDBRANCH  10  12
BRANCH   9  22
HETATM   22  C   UNL     1      41.442 -15.219   4.740  1.00  0.00     0.064 A 
HETATM   23  N   UNL     1      42.526 -14.486   4.361  1.00  0.00    -0.263 NA
HETATM   24  C   UNL     1      42.449 -13.143   4.506  1.00  0.00     0.117 A 
HETATM   25  C   UNL     1      41.342 -12.483   5.008  1.00  0.00     0.019 A 
HETATM   26  C   UNL     1      40.243 -13.240   5.389  1.00  0.00     0.003 A 
HETATM   27  C   UNL     1      40.289 -14.625   5.257  1.00  0.00     0.030 A 
ENDBRANCH   9  22
TORSDOF 3
ENDMDL
MODEL 5
REMARK VINA RESULT:      -7.2      3.040      6.895
REMARK  3 active torsions:
REMARK  status: ('A' for Active; 'I' for Inactive)
REMARK    1  A    between atoms: C_9  and  C_10 
REMARK    2  A    between atoms: C_16  and  C_17 
REMARK       I    between atoms: C_17  and  N_18 
REMARK    3  A    between atoms: N_18  and  C_19 
ROOT
HETATM    1  C   UNL     1      42.943 -17.361   7.477  1.00  0.00     0.070 C 
HETATM    2  C   UNL     1      43.101 -17.123   5.997  1.00  0.00     0.037 A 
HETATM    3  N   UNL     1      43.023 -18.255   5.191  1.00  0.00    -0.191 N 
HETATM    4  C   UNL     1      43.304 -18.236   3.872  1.00  0.00     0.735 A 
HETATM    5  N   UNL     1      43.578 -17.045   3.262  1.00  0.00    -0.091 N 
HETATM    6  N   UNL     1      43.967 -17.254   1.992  1.00  0.00     0.012 NA
HETATM    7  N   UNL     1      43.840 -18.566   1.818  1.00  0.00     0.033 NA
HETATM    8  N   UNL     1      43.432 -19.191   2.982  1.00  0.00     0.030 NA
HETATM    9  C   UNL     1      43.610 -15.755   3.937  1.00  0.00     0.216 A 
HETATM   10  C   UNL     1      43.360 -15.917   5.433  1.00  0.00     0.063 A 
HETATM   11  H   UNL     1      42.885 -19.153   5.649  1.00  0.00     0.184 HD
ENDROOT
BRANCH  10  12
HETATM   12  C   UNL     1      43.500 -14.649   6.193  1.00  0.00     0.256 C 
HETATM   13  N   UNL     1      44.690 -14.554   6.877  1.00  0.00    -0.323 N 
HETATM   14  H   UNL     1      45.296 -15.365   6.846  1.00  0.00     0.169 HD
HETATM   15  O   UNL     1      42.570 -13.853   6.177  1.00  0.00    -0.267 OA
BRANCH  13  16
HETATM   16  C   UNL     1      45.157 -13.463   7.638  1.00  0.00     0.035 A 
HETATM   17  C   UNL     1      44.451 -12.892   8.697  1.00  0.00     0.029 A 
HETATM   18  C   UNL     1      44.979 -11.798   9.393  1.00  0.00     0.002 A 
HETATM   19  C   UNL     1      46.212 -11.263   9.029  1.00  0.00     0.000 A 
HETATM   20  C   UNL     1      46.924 -11.825   7.973  1.00  0.00     0.002 A 
HETATM   21  C   UNL     1      46.401 -12.923   7.285  1.00  0.00     0.029 A 
ENDBRANCH  13  16
ENDBRANCH  10  12
BRANCH   9  22
HETATM   22  C   UNL     1      42.602 -14.825   3.271  1.00  0.00     0.064 A 
HETATM   23  N   UNL     1      43.065 -13.682   2.694  1.00  0.00    -0.263 NA
HETATM   24  C   UNL     1      42.153 -12.855   2.135  1.00  0.00     0.117 A 
HETATM   25  C   UNL     1      40.792 -13.106   2.114  1.00  0.00     0.019 A 
HETATM   26  C   UNL     1      40.332 -14.275   2.703  1.00  0.00     0.003 A 
HETATM   27  C   UNL     1      41.243 -15.148   3.292  1.00  0.00     0.030 A 
ENDBRANCH   9  22
TORSDOF 3
ENDMDL
MODEL 6
REMARK VINA RESULT:      -7.2      2.914      4.550
REMARK  3 active torsions:
REMARK  status: ('A' for Active; 'I' for Inactive)
REMARK    1  A    between atoms: C_9  and  C_10 
REMARK    2  A    between atoms: C_16  and  C_17 
REMARK       I    between atoms: C_17  and  N_18 
REMARK    3  A    between atoms: N_18  and  C_19 
ROOT
HETATM    1  C   UNL     1      41.236 -12.059   5.161  1.00  0.00     0.070 C 
HETATM    2  C   UNL     1      42.349 -12.650   5.989  1.00  0.00     0.037 A 
HETATM    3  N   UNL     1      42.556 -12.058   7.232  1.00  0.00    -0.191 N 
HETATM    4  C   UNL     1      43.608 -12.358   8.020  1.00  0.00     0.735 A 
HETATM    5  N   UNL     1      44.463 -13.357   7.645  1.00  0.00    -0.091 N 
HETATM    6  N   UNL     1      45.514 -13.404   8.483  1.00  0.00     0.012 NA
HETATM    7  N   UNL     1      45.242 -12.490   9.409  1.00  0.00     0.033 NA
HETATM    8  N   UNL     1      44.061 -11.828   9.131  1.00  0.00     0.030 NA
HETATM    9  C   UNL     1      44.340 -14.140   6.423  1.00  0.00     0.216 A 
HETATM   10  C   UNL     1      43.166 -13.652   5.580  1.00  0.00     0.063 A 
HETATM   11  H   UNL     1      41.964 -11.271   7.485  1.00  0.00     0.184 HD
ENDROOT
BRANCH  10  12
HETATM   12  C   UNL     1      43.065 -14.334   4.265  1.00  0.00     0.256 C 
HETATM   13  N   UNL     1      42.318 -15.488   4.306  1.00  0.00    -0.323 N 
HETATM   14  H   UNL     1      41.983 -15.778   5.217  1.00  0.00     0.169 HD
HETATM   15  O   UNL     1      43.663 -13.852   3.312  1.00  0.00    -0.267 OA
BRANCH  13  16
HETATM   16  C   UNL     1      41.979 -16.330   3.228  1.00  0.00     0.035 A 
HETATM   17  C   UNL     1      40.817 -16.193   2.468  1.00  0.00     0.029 A 
HETATM   18  C   UNL     1      40.546 -17.082   1.421  1.00  0.00     0.002 A 
HETATM   19  C   UNL     1      41.431 -18.118   1.133  1.00  0.00     0.000 A 
HETATM   20  C   UNL     1      42.593 -18.264   1.885  1.00  0.00     0.002 A 
HETATM   21  C   UNL     1      42.868 -17.370   2.924  1.00  0.00     0.029 A 
ENDBRANCH  13  16
ENDBRANCH  10  12
BRANCH   9  22
HETATM   22  C   UNL     1      44.226 -15.614   6.792  1.00  0.00     0.064 A 
HETATM   23  N   UNL     1      43.211 -15.995   7.617  1.00  0.00    -0.263 NA
HETATM   24  C   UNL     1      43.145 -17.302   7.957  1.00  0.00     0.117 A 
HETATM   25  C   UNL     1      44.038 -18.262   7.516  1.00  0.00     0.019 A 
HETATM   26  C   UNL     1      45.068 -17.863   6.674  1.00  0.00     0.003 A 
HETATM   27  C   UNL     1      45.168 -16.524   6.306  1.00  0.00     0.030 A 
ENDBRANCH   9  22
TORSDOF 3
ENDMDL
MODEL 7
REMARK VINA RESULT:      -7.0      2.432      5.895
REMARK  3 active torsions:
REMARK  status: ('A' for Active; 'I' for Inactive)
REMARK    1  A    between atoms: C_9  and  C_10 
REMARK    2  A    between atoms: C_16  and  C_17 
REMARK       I    between atoms: C_17  and  N_18 
REMARK    3  A    between atoms: N_18  and  C_19 
ROOT
HETATM    1  C   UNL     1      43.844 -18.203   1.744  1.00  0.00     0.070 C 
HETATM    2  C   UNL     1      43.621 -18.002   3.221  1.00  0.00     0.037 A 
HETATM    3  N   UNL     1      44.172 -18.973   4.052  1.00  0.00    -0.191 N 
HETATM    4  C   UNL     1      43.925 -19.028   5.377  1.00  0.00     0.735 A 
HETATM    5  N   UNL     1      43.189 -18.038   5.964  1.00  0.00    -0.091 N 
HETATM    6  N   UNL     1      42.938 -18.347   7.248  1.00  0.00     0.012 NA
HETATM    7  N   UNL     1      43.600 -19.482   7.452  1.00  0.00     0.033 NA
HETATM    8  N   UNL     1      44.216 -19.920   6.294  1.00  0.00     0.030 NA
HETATM    9  C   UNL     1      42.616 -16.900   5.258  1.00  0.00     0.216 A 
HETATM   10  C   UNL     1      42.892 -16.994   3.761  1.00  0.00     0.063 A 
HETATM   11  H   UNL     1      44.663 -19.747   3.614  1.00  0.00     0.184 HD
ENDROOT
BRANCH  10  12
HETATM   12  C   UNL     1      42.228 -15.924   2.974  1.00  0.00     0.256 C 
HETATM   13  N   UNL     1      40.872 -15.847   3.196  1.00  0.00    -0.323 N 
HETATM   14  H   UNL     1      40.473 -16.552   3.803  1.00  0.00     0.169 HD
HETATM   15  O   UNL     1      42.908 -15.262   2.200  1.00  0.00    -0.267 OA
BRANCH  13  16
HETATM   16  C   UNL     1      39.967 -14.910   2.658  1.00  0.00     0.035 A 
HETATM   17  C   UNL     1      39.050 -15.203   1.648  1.00  0.00     0.029 A 
HETATM   18  C   UNL     1      38.194 -14.210   1.157  1.00  0.00     0.002 A 
HETATM   19  C   UNL     1      38.255 -12.916   1.667  1.00  0.00     0.000 A 
HETATM   20  C   UNL     1      39.167 -12.613   2.674  1.00  0.00     0.002 A 
HETATM   21  C   UNL     1      40.015 -13.607   3.171  1.00  0.00     0.029 A 
ENDBRANCH  13  16
ENDBRANCH  10  12
BRANCH   9  22
HETATM   22  C   UNL     1      43.156 -15.615   5.875  1.00  0.00     0.064 A 
HETATM   23  N   UNL     1      42.390 -14.492   5.796  1.00  0.00    -0.263 NA
HETATM   24  C   UNL     1      42.898 -13.354   6.321  1.00  0.00     0.117 A 
HETATM   25  C   UNL     1      44.137 -13.272   6.932  1.00  0.00     0.019 A 
HETATM   26  C   UNL     1      44.909 -14.423   7.009  1.00  0.00     0.003 A 
HETATM   27  C   UNL     1      44.418 -15.611   6.475  1.00  0.00     0.030 A 
ENDBRANCH   9  22
TORSDOF 3
ENDMDL
MODEL 8
REMARK VINA RESULT:      -7.0      2.467      6.931
REMARK  3 active torsions:
REMARK  status: ('A' for Active; 'I' for Inactive)
REMARK    1  A    between atoms: C_9  and  C_10 
REMARK    2  A    between atoms: C_16  and  C_17 
REMARK       I    between atoms: C_17  and  N_18 
REMARK    3  A    between atoms: N_18  and  C_19 
ROOT
HETATM    1  C   UNL     1      42.870 -17.393   7.846  1.00  0.00     0.070 C 
HETATM    2  C   UNL     1      43.261 -17.855   6.465  1.00  0.00     0.037 A 
HETATM    3  N   UNL     1      43.523 -19.215   6.335  1.00  0.00    -0.191 N 
HETATM    4  C   UNL     1      44.038 -19.758   5.213  1.00  0.00     0.735 A 
HETATM    5  N   UNL     1      44.224 -18.971   4.111  1.00  0.00    -0.091 N 
HETATM    6  N   UNL     1      44.872 -19.659   3.156  1.00  0.00     0.012 NA
HETATM    7  N   UNL     1      44.997 -20.885   3.655  1.00  0.00     0.033 NA
HETATM    8  N   UNL     1      44.487 -20.960   4.937  1.00  0.00     0.030 NA
HETATM    9  C   UNL     1      43.916 -17.549   4.046  1.00  0.00     0.216 A 
HETATM   10  C   UNL     1      43.420 -17.037   5.394  1.00  0.00     0.063 A 
HETATM   11  H   UNL     1      43.450 -19.793   7.169  1.00  0.00     0.184 HD
ENDROOT
BRANCH  10  12
HETATM   12  C   UNL     1      43.206 -15.568   5.422  1.00  0.00     0.256 C 
HETATM   13  N   UNL     1      41.907 -15.202   5.153  1.00  0.00    -0.323 N 
HETATM   14  H   UNL     1      41.269 -15.949   4.906  1.00  0.00     0.169 HD
HETATM   15  O   UNL     1      44.170 -14.842   5.630  1.00  0.00    -0.267 OA
BRANCH  13  16
HETATM   16  C   UNL     1      41.362 -13.902   5.162  1.00  0.00     0.035 A 
HETATM   17  C   UNL     1      41.908 -12.824   4.463  1.00  0.00     0.029 A 
HETATM   18  C   UNL     1      41.313 -11.559   4.537  1.00  0.00     0.002 A 
HETATM   19  C   UNL     1      40.176 -11.361   5.316  1.00  0.00     0.000 A 
HETATM   20  C   UNL     1      39.626 -12.430   6.018  1.00  0.00     0.002 A 
HETATM   21  C   UNL     1      40.213 -13.696   5.936  1.00  0.00     0.029 A 
ENDBRANCH  13  16
ENDBRANCH  10  12
BRANCH   9  22
HETATM   22  C   UNL     1      42.912 -17.313   2.923  1.00  0.00     0.064 A 
HETATM   23  N   UNL     1      41.590 -17.495   3.194  1.00  0.00    -0.263 NA
HETATM   24  C   UNL     1      40.717 -17.311   2.177  1.00  0.00     0.117 A 
HETATM   25  C   UNL     1      41.089 -16.948   0.895  1.00  0.00     0.019 A 
HETATM   26  C   UNL     1      42.440 -16.764   0.631  1.00  0.00     0.003 A 
HETATM   27  C   UNL     1      43.366 -16.949   1.653  1.00  0.00     0.030 A 
ENDBRANCH   9  22
TORSDOF 3
ENDMDL
MODEL 9
REMARK VINA RESULT:      -7.0      3.772      7.024
REMARK  3 active torsions:
REMARK  status: ('A' for Active; 'I' for Inactive)
REMARK    1  A    between atoms: C_9  and  C_10 
REMARK    2  A    between atoms: C_16  and  C_17 
REMARK       I    between atoms: C_17  and  N_18 
REMARK    3  A    between atoms: N_18  and  C_19 
ROOT
HETATM    1  C   UNL     1      44.404 -16.886   6.659  1.00  0.00     0.070 C 
HETATM    2  C   UNL     1      43.459 -16.165   5.733  1.00  0.00     0.037 A 
HETATM    3  N   UNL     1      42.637 -16.977   4.957  1.00  0.00    -0.191 N 
HETATM    4  C   UNL     1      41.856 -16.498   3.968  1.00  0.00     0.735 A 
HETATM    5  N   UNL     1      41.778 -15.148   3.770  1.00  0.00    -0.091 N 
HETATM    6  N   UNL     1      41.069 -14.884   2.659  1.00  0.00     0.012 NA
HETATM    7  N   UNL     1      40.649 -16.074   2.241  1.00  0.00     0.033 NA
HETATM    8  N   UNL     1      41.136 -17.089   3.044  1.00  0.00     0.030 NA
HETATM    9  C   UNL     1      42.499 -14.152   4.550  1.00  0.00     0.216 A 
HETATM   10  C   UNL     1      43.407 -14.818   5.578  1.00  0.00     0.063 A 
HETATM   11  H   UNL     1      42.740 -17.984   5.055  1.00  0.00     0.184 HD
ENDROOT
BRANCH  10  12
HETATM   12  C   UNL     1      44.259 -13.855   6.321  1.00  0.00     0.256 C 
HETATM   13  N   UNL     1      43.634 -13.312   7.420  1.00  0.00    -0.323 N 
HETATM   14  H   UNL     1      42.664 -13.568   7.562  1.00  0.00     0.169 HD
HETATM   15  O   UNL     1      45.376 -13.609   5.887  1.00  0.00    -0.267 OA
BRANCH  13  16
HETATM   16  C   UNL     1      44.181 -12.420   8.365  1.00  0.00     0.035 A 
HETATM   17  C   UNL     1      45.505 -12.467   8.804  1.00  0.00     0.029 A 
HETATM   18  C   UNL     1      45.967 -11.553   9.758  1.00  0.00     0.002 A 
HETATM   19  C   UNL     1      45.107 -10.593  10.286  1.00  0.00     0.000 A 
HETATM   20  C   UNL     1      43.785 -10.540   9.855  1.00  0.00     0.002 A 
HETATM   21  C   UNL     1      43.326 -11.446   8.895  1.00  0.00     0.029 A 
ENDBRANCH  13  16
ENDBRANCH  10  12
BRANCH   9  22
HETATM   22  C   UNL     1      41.492 -13.200   5.186  1.00  0.00     0.064 A 
HETATM   23  N   UNL     1      41.722 -11.861   5.089  1.00  0.00    -0.263 NA
HETATM   24  C   UNL     1      40.834 -11.034   5.686  1.00  0.00     0.117 A 
HETATM   25  C   UNL     1      39.716 -11.468   6.376  1.00  0.00     0.019 A 
HETATM   26  C   UNL     1      39.490 -12.835   6.466  1.00  0.00     0.003 A 
HETATM   27  C   UNL     1      40.386 -13.715   5.867  1.00  0.00     0.030 A 
ENDBRANCH   9  22
TORSDOF 3
ENDMDL
MODEL 10
REMARK VINA RESULT:      -7.0      2.779      5.581
REMARK  3 active torsions:
REMARK  status: ('A' for Active; 'I' for Inactive)
REMARK    1  A    between atoms: C_9  and  C_10 
REMARK    2  A    between atoms: C_16  and  C_17 
REMARK       I    between atoms: C_17  and  N_18 
REMARK    3  A    between atoms: N_18  and  C_19 
ROOT
HETATM    1  C   UNL     1      39.866 -11.505   2.417  1.00  0.00     0.070 C 
HETATM    2  C   UNL     1      40.950 -12.388   2.980  1.00  0.00     0.037 A 
HETATM    3  N   UNL     1      41.121 -12.330   4.359  1.00  0.00    -0.191 N 
HETATM    4  C   UNL     1      42.148 -12.929   4.997  1.00  0.00     0.735 A 
HETATM    5  N   UNL     1      43.010 -13.717   4.286  1.00  0.00    -0.091 N 
HETATM    6  N   UNL     1      44.033 -14.103   5.067  1.00  0.00     0.012 NA
HETATM    7  N   UNL     1      43.737 -13.617   6.268  1.00  0.00     0.033 NA
HETATM    8  N   UNL     1      42.568 -12.880   6.238  1.00  0.00     0.030 NA
HETATM    9  C   UNL     1      42.921 -13.961   2.853  1.00  0.00     0.216 A 
HETATM   10  C   UNL     1      41.775 -13.166   2.235  1.00  0.00     0.063 A 
HETATM   11  H   UNL     1      40.525 -11.694   4.883  1.00  0.00     0.184 HD
ENDROOT
BRANCH  10  12
HETATM   12  C   UNL     1      41.712 -13.280   0.756  1.00  0.00     0.256 C 
HETATM   13  N   UNL     1      40.824 -14.237   0.322  1.00  0.00    -0.323 N 
HETATM   14  H   UNL     1      40.371 -14.791   1.038  1.00  0.00     0.169 HD
HETATM   15  O   UNL     1      42.454 -12.574   0.084  1.00  0.00    -0.267 OA
BRANCH  13  16
HETATM   16  C   UNL     1      40.484 -14.550  -1.010  1.00  0.00     0.035 A 
HETATM   17  C   UNL     1      41.057 -15.596  -1.735  1.00  0.00     0.029 A 
HETATM   18  C   UNL     1      40.674 -15.832  -3.060  1.00  0.00     0.002 A 
HETATM   19  C   UNL     1      39.723 -15.020  -3.672  1.00  0.00     0.000 A 
HETATM   20  C   UNL     1      39.146 -13.974  -2.958  1.00  0.00     0.002 A 
HETATM   21  C   UNL     1      39.521 -13.744  -1.631  1.00  0.00     0.029 A 
ENDBRANCH  13  16
ENDBRANCH  10  12
BRANCH   9  22
HETATM   22  C   UNL     1      42.790 -15.461   2.616  1.00  0.00     0.064 A 
HETATM   23  N   UNL     1      41.637 -16.075   3.002  1.00  0.00    -0.263 NA
HETATM   24  C   UNL     1      41.551 -17.411   2.811  1.00  0.00     0.117 A 
HETATM   25  C   UNL     1      42.556 -18.178   2.249  1.00  0.00     0.019 A 
HETATM   26  C   UNL     1      43.726 -17.541   1.857  1.00  0.00     0.003 A 
HETATM   27  C   UNL     1      43.850 -16.167   2.042  1.00  0.00     0.030 A 
ENDBRANCH   9  22
TORSDOF 3
ENDMDL
