MODEL 1
REMARK VINA RESULT:      -8.4      0.000      0.000
REMARK  9 active torsions:
REMARK  status: ('A' for Active; 'I' for Inactive)
REMARK    1  A    between atoms: C_3  and  O_4 
REMARK    2  A    between atoms: O_4  and  C_5 
REMARK    3  A    between atoms: C_5  and  C_6 
REMARK    4  A    between atoms: N_7  and  C_8 
REMARK    5  A    between atoms: C_14  and  S_15 
REMARK    6  A    between atoms: S_15  and  C_16 
REMARK    7  A    between atoms: C_16  and  C_17 
REMARK       I    between atoms: C_17  and  N_18 
REMARK    8  A    between atoms: N_18  and  C_19 
REMARK    9  A    between atoms: C_19  and  C_20 
ROOT
HETATM    1  C   UNL     1      42.774 -17.049   1.546  1.00  0.00     0.160 A 
HETATM    2  N   UNL     1      41.900 -16.538   2.506  1.00  0.00    -0.274 N 
HETATM    3  C   UNL     1      40.862 -16.019   1.747  1.00  0.00     0.196 A 
HETATM    4  N   UNL     1      41.073 -16.222   0.468  1.00  0.00    -0.122 NA
HETATM    5  N   UNL     1      42.271 -16.852   0.339  1.00  0.00    -0.131 NA
ENDROOT
BRANCH   3   6
HETATM    6  S   UNL     1      39.619 -14.938   2.299  1.00  0.00    -0.081 SA
BRANCH   6   7
HETATM    7  C   UNL     1      39.755 -13.631   1.046  1.00  0.00     0.185 C 
BRANCH   7   8
HETATM    8  C   UNL     1      38.843 -13.805  -0.161  1.00  0.00     0.227 C 
HETATM    9  N   UNL     1      39.387 -14.416  -1.263  1.00  0.00    -0.360 N 
HETATM   10  H   UNL     1      40.355 -14.731  -1.230  1.00  0.00     0.162 HD
HETATM   11  O   UNL     1      37.711 -13.322  -0.168  1.00  0.00    -0.273 OA
BRANCH   9  12
HETATM   12  C   UNL     1      38.732 -14.462  -2.553  1.00  0.00     0.126 C 
BRANCH  12  13
HETATM   13  C   UNL     1      39.631 -15.080  -3.637  1.00  0.00    -0.005 C 
HETATM   14  C   UNL     1      40.943 -15.614  -3.055  1.00  0.00     0.011 C 
HETATM   15  C   UNL     1      38.884 -16.205  -4.355  1.00  0.00     0.011 C 
ENDBRANCH  12  13
ENDBRANCH   9  12
ENDBRANCH   7   8
ENDBRANCH   6   7
ENDBRANCH   3   6
BRANCH   2  16
HETATM   16  C   UNL     1      42.040 -16.523   3.922  1.00  0.00     0.043 A 
HETATM   17  C   UNL     1      42.931 -15.640   4.545  1.00  0.00     0.030 A 
HETATM   18  C   UNL     1      43.054 -15.633   5.938  1.00  0.00     0.002 A 
HETATM   19  C   UNL     1      42.290 -16.501   6.715  1.00  0.00     0.000 A 
HETATM   20  C   UNL     1      41.401 -17.380   6.101  1.00  0.00     0.002 A 
HETATM   21  C   UNL     1      41.275 -17.393   4.710  1.00  0.00     0.030 A 
ENDBRANCH   2  16
BRANCH   1  22
HETATM   22  C   UNL     1      44.042 -17.791   1.789  1.00  0.00     0.256 C 
BRANCH  22  23
HETATM   23  O   UNL     1      43.737 -19.181   1.787  1.00  0.00    -0.343 OA
BRANCH  23  24
HETATM   24  C   UNL     1      44.109 -19.890   2.900  1.00  0.00     0.075 A 
HETATM   25  C   UNL     1      44.250 -21.279   2.730  1.00  0.00    -0.029 A 
HETATM   26  C   UNL     1      44.076 -21.931   1.386  1.00  0.00     0.051 C 
HETATM   27  C   UNL     1      44.644 -22.069   3.823  1.00  0.00     0.009 A 
HETATM   28  C   UNL     1      44.858 -21.494   5.074  1.00  0.00     0.001 A 
HETATM   29  C   UNL     1      44.691 -20.124   5.245  1.00  0.00     0.003 A 
HETATM   30  C   UNL     1      44.317 -19.324   4.163  1.00  0.00     0.037 A 
ENDBRANCH  23  24
ENDBRANCH  22  23
ENDBRANCH   1  22
TORSDOF 9
ENDMDL
MODEL 2
REMARK VINA RESULT:      -8.2      2.463      4.186
REMARK  9 active torsions:
REMARK  status: ('A' for Active; 'I' for Inactive)
REMARK    1  A    between atoms: C_3  and  O_4 
REMARK    2  A    between atoms: O_4  and  C_5 
REMARK    3  A    between atoms: C_5  and  C_6 
REMARK    4  A    between atoms: N_7  and  C_8 
REMARK    5  A    between atoms: C_14  and  S_15 
REMARK    6  A    between atoms: S_15  and  C_16 
REMARK    7  A    between atoms: C_16  and  C_17 
REMARK       I    between atoms: C_17  and  N_18 
REMARK    8  A    between atoms: N_18  and  C_19 
REMARK    9  A    between atoms: C_19  and  C_20 
ROOT
HETATM    1  C   UNL     1      43.395 -17.414   5.769  1.00  0.00     0.160 A 
HETATM    2  N   UNL     1      43.098 -16.460   4.796  1.00  0.00    -0.274 N 
HETATM    3  C   UNL     1      43.420 -15.263   5.417  1.00  0.00     0.196 A 
HETATM    4  N   UNL     1      43.890 -15.475   6.623  1.00  0.00    -0.122 NA
HETATM    5  N   UNL     1      43.863 -16.815   6.850  1.00  0.00    -0.131 NA
ENDROOT
BRANCH   3   6
HETATM    6  S   UNL     1      42.967 -13.670   4.888  1.00  0.00    -0.081 SA
BRANCH   6   7
HETATM    7  C   UNL     1      41.182 -13.723   5.218  1.00  0.00     0.185 C 
BRANCH   7   8
HETATM    8  C   UNL     1      40.304 -13.265   4.061  1.00  0.00     0.227 C 
HETATM    9  N   UNL     1      40.711 -13.622   2.799  1.00  0.00    -0.360 N 
HETATM   10  H   UNL     1      41.560 -14.173   2.688  1.00  0.00     0.162 HD
HETATM   11  O   UNL     1      39.340 -12.525   4.257  1.00  0.00    -0.273 OA
BRANCH   9  12
HETATM   12  C   UNL     1      40.119 -13.089   1.591  1.00  0.00     0.126 C 
BRANCH  12  13
HETATM   13  C   UNL     1      39.349 -14.162   0.802  1.00  0.00    -0.005 C 
HETATM   14  C   UNL     1      37.835 -14.030   0.986  1.00  0.00     0.011 C 
HETATM   15  C   UNL     1      39.703 -14.071  -0.683  1.00  0.00     0.011 C 
ENDBRANCH  12  13
ENDBRANCH   9  12
ENDBRANCH   7   8
ENDBRANCH   6   7
ENDBRANCH   3   6
BRANCH   2  16
HETATM   16  C   UNL     1      42.567 -16.653   3.490  1.00  0.00     0.043 A 
HETATM   17  C   UNL     1      41.263 -17.131   3.309  1.00  0.00     0.030 A 
HETATM   18  C   UNL     1      40.754 -17.310   2.019  1.00  0.00     0.002 A 
HETATM   19  C   UNL     1      41.537 -17.012   0.906  1.00  0.00     0.000 A 
HETATM   20  C   UNL     1      42.833 -16.534   1.080  1.00  0.00     0.002 A 
HETATM   21  C   UNL     1      43.349 -16.355   2.365  1.00  0.00     0.030 A 
ENDBRANCH   2  16
BRANCH   1  22
HETATM   22  C   UNL     1      43.307 -18.895   5.632  1.00  0.00     0.256 C 
BRANCH  22  23
HETATM   23  O   UNL     1      44.504 -19.344   5.007  1.00  0.00    -0.343 OA
BRANCH  23  24
HETATM   24  C   UNL     1      44.355 -20.155   3.912  1.00  0.00     0.075 A 
HETATM   25  C   UNL     1      44.660 -21.514   4.102  1.00  0.00    -0.029 A 
HETATM   26  C   UNL     1      45.053 -22.054   5.449  1.00  0.00     0.051 C 
HETATM   27  C   UNL     1      44.515 -22.408   3.028  1.00  0.00     0.009 A 
HETATM   28  C   UNL     1      44.110 -21.953   1.774  1.00  0.00     0.001 A 
HETATM   29  C   UNL     1      43.836 -20.603   1.583  1.00  0.00     0.003 A 
HETATM   30  C   UNL     1      43.959 -19.706   2.647  1.00  0.00     0.037 A 
ENDBRANCH  23  24
ENDBRANCH  22  23
ENDBRANCH   1  22
TORSDOF 9
ENDMDL
MODEL 3
REMARK VINA RESULT:      -8.0      2.145      2.358
REMARK  9 active torsions:
REMARK  status: ('A' for Active; 'I' for Inactive)
REMARK    1  A    between atoms: C_3  and  O_4 
REMARK    2  A    between atoms: O_4  and  C_5 
REMARK    3  A    between atoms: C_5  and  C_6 
REMARK    4  A    between atoms: N_7  and  C_8 
REMARK    5  A    between atoms: C_14  and  S_15 
REMARK    6  A    between atoms: S_15  and  C_16 
REMARK    7  A    between atoms: C_16  and  C_17 
REMARK       I    between atoms: C_17  and  N_18 
REMARK    8  A    between atoms: N_18  and  C_19 
REMARK    9  A    between atoms: C_19  and  C_20 
ROOT
HETATM    1  C   UNL     1      42.752 -16.934   1.440  1.00  0.00     0.160 A 
HETATM    2  N   UNL     1      41.858 -16.443   2.392  1.00  0.00    -0.274 N 
HETATM    3  C   UNL     1      40.830 -15.920   1.622  1.00  0.00     0.196 A 
HETATM    4  N   UNL     1      41.065 -16.104   0.345  1.00  0.00    -0.122 NA
HETATM    5  N   UNL     1      42.269 -16.724   0.228  1.00  0.00    -0.131 NA
ENDROOT
BRANCH   3   6
HETATM    6  S   UNL     1      39.570 -14.855   2.167  1.00  0.00    -0.081 SA
BRANCH   6   7
HETATM    7  C   UNL     1      40.541 -13.356   2.496  1.00  0.00     0.185 C 
BRANCH   7   8
HETATM    8  C   UNL     1      41.628 -13.061   1.470  1.00  0.00     0.227 C 
HETATM    9  N   UNL     1      41.223 -12.914   0.167  1.00  0.00    -0.360 N 
HETATM   10  H   UNL     1      40.233 -12.996  -0.058  1.00  0.00     0.162 HD
HETATM   11  O   UNL     1      42.815 -13.062   1.795  1.00  0.00    -0.273 OA
BRANCH   9  12
HETATM   12  C   UNL     1      42.141 -12.848  -0.949  1.00  0.00     0.126 C 
BRANCH  12  13
HETATM   13  C   UNL     1      42.136 -11.465  -1.622  1.00  0.00    -0.005 C 
HETATM   14  C   UNL     1      43.232 -10.554  -1.063  1.00  0.00     0.011 C 
HETATM   15  C   UNL     1      42.310 -11.621  -3.133  1.00  0.00     0.011 C 
ENDBRANCH  12  13
ENDBRANCH   9  12
ENDBRANCH   7   8
ENDBRANCH   6   7
ENDBRANCH   3   6
BRANCH   2  16
HETATM   16  C   UNL     1      41.973 -16.447   3.810  1.00  0.00     0.043 A 
HETATM   17  C   UNL     1      42.846 -15.567   4.462  1.00  0.00     0.030 A 
HETATM   18  C   UNL     1      42.944 -15.579   5.856  1.00  0.00     0.002 A 
HETATM   19  C   UNL     1      42.173 -16.463   6.607  1.00  0.00     0.000 A 
HETATM   20  C   UNL     1      41.302 -17.340   5.966  1.00  0.00     0.002 A 
HETATM   21  C   UNL     1      41.201 -17.334   4.573  1.00  0.00     0.030 A 
ENDBRANCH   2  16
BRANCH   1  22
HETATM   22  C   UNL     1      44.020 -17.672   1.696  1.00  0.00     0.256 C 
BRANCH  22  23
HETATM   23  O   UNL     1      43.713 -19.061   1.738  1.00  0.00    -0.343 OA
BRANCH  23  24
HETATM   24  C   UNL     1      44.091 -19.736   2.869  1.00  0.00     0.075 A 
HETATM   25  C   UNL     1      44.240 -21.129   2.737  1.00  0.00    -0.029 A 
HETATM   26  C   UNL     1      44.067 -21.819   1.413  1.00  0.00     0.051 C 
HETATM   27  C   UNL     1      44.641 -21.885   3.851  1.00  0.00     0.009 A 
HETATM   28  C   UNL     1      44.854 -21.274   5.086  1.00  0.00     0.001 A 
HETATM   29  C   UNL     1      44.679 -19.901   5.219  1.00  0.00     0.003 A 
HETATM   30  C   UNL     1      44.298 -19.134   4.116  1.00  0.00     0.037 A 
ENDBRANCH  23  24
ENDBRANCH  22  23
ENDBRANCH   1  22
TORSDOF 9
ENDMDL
MODEL 4
REMARK VINA RESULT:      -7.9      0.799      1.327
REMARK  9 active torsions:
REMARK  status: ('A' for Active; 'I' for Inactive)
REMARK    1  A    between atoms: C_3  and  O_4 
REMARK    2  A    between atoms: O_4  and  C_5 
REMARK    3  A    between atoms: C_5  and  C_6 
REMARK    4  A    between atoms: N_7  and  C_8 
REMARK    5  A    between atoms: C_14  and  S_15 
REMARK    6  A    between atoms: S_15  and  C_16 
REMARK    7  A    between atoms: C_16  and  C_17 
REMARK       I    between atoms: C_17  and  N_18 
REMARK    8  A    between atoms: N_18  and  C_19 
REMARK    9  A    between atoms: C_19  and  C_20 
ROOT
HETATM    1  C   UNL     1      42.714 -16.920   1.466  1.00  0.00     0.160 A 
HETATM    2  N   UNL     1      41.964 -16.337   2.488  1.00  0.00    -0.274 N 
HETATM    3  C   UNL     1      40.973 -15.650   1.802  1.00  0.00     0.196 A 
HETATM    4  N   UNL     1      41.094 -15.827   0.508  1.00  0.00    -0.122 NA
HETATM    5  N   UNL     1      42.187 -16.607   0.295  1.00  0.00    -0.131 NA
ENDROOT
BRANCH   3   6
HETATM    6  S   UNL     1      39.917 -14.435   2.456  1.00  0.00    -0.081 SA
BRANCH   6   7
HETATM    7  C   UNL     1      38.411 -14.776   1.500  1.00  0.00     0.185 C 
BRANCH   7   8
HETATM    8  C   UNL     1      38.254 -13.940   0.236  1.00  0.00     0.227 C 
HETATM    9  N   UNL     1      38.846 -14.425  -0.903  1.00  0.00    -0.360 N 
HETATM   10  H   UNL     1      39.350 -15.309  -0.863  1.00  0.00     0.162 HD
HETATM   11  O   UNL     1      37.708 -12.837   0.277  1.00  0.00    -0.273 OA
BRANCH   9  12
HETATM   12  C   UNL     1      38.977 -13.656  -2.121  1.00  0.00     0.126 C 
BRANCH  12  13
HETATM   13  C   UNL     1      40.431 -13.603  -2.619  1.00  0.00    -0.005 C 
HETATM   14  C   UNL     1      40.918 -14.969  -3.110  1.00  0.00     0.011 C 
HETATM   15  C   UNL     1      40.561 -12.571  -3.740  1.00  0.00     0.011 C 
ENDBRANCH  12  13
ENDBRANCH   9  12
ENDBRANCH   7   8
ENDBRANCH   6   7
ENDBRANCH   3   6
BRANCH   2  16
HETATM   16  C   UNL     1      42.171 -16.400   3.894  1.00  0.00     0.043 A 
HETATM   17  C   UNL     1      41.357 -17.201   4.704  1.00  0.00     0.030 A 
HETATM   18  C   UNL     1      41.578 -17.257   6.084  1.00  0.00     0.002 A 
HETATM   19  C   UNL     1      42.608 -16.520   6.662  1.00  0.00     0.000 A 
HETATM   20  C   UNL     1      43.422 -15.722   5.861  1.00  0.00     0.002 A 
HETATM   21  C   UNL     1      43.206 -15.661   4.483  1.00  0.00     0.030 A 
ENDBRANCH   2  16
BRANCH   1  22
HETATM   22  C   UNL     1      43.878 -17.837   1.617  1.00  0.00     0.256 C 
BRANCH  22  23
HETATM   23  O   UNL     1      43.371 -19.151   1.822  1.00  0.00    -0.343 OA
BRANCH  23  24
HETATM   24  C   UNL     1      43.899 -19.853   2.874  1.00  0.00     0.075 A 
HETATM   25  C   UNL     1      44.133 -21.221   2.649  1.00  0.00    -0.029 A 
HETATM   26  C   UNL     1      43.885 -21.854   1.308  1.00  0.00     0.051 C 
HETATM   27  C   UNL     1      44.688 -22.001   3.677  1.00  0.00     0.009 A 
HETATM   28  C   UNL     1      44.973 -21.440   4.921  1.00  0.00     0.001 A 
HETATM   29  C   UNL     1      44.715 -20.093   5.147  1.00  0.00     0.003 A 
HETATM   30  C   UNL     1      44.180 -19.301   4.129  1.00  0.00     0.037 A 
ENDBRANCH  23  24
ENDBRANCH  22  23
ENDBRANCH   1  22
TORSDOF 9
ENDMDL
MODEL 5
REMARK VINA RESULT:      -7.7      1.088      2.011
REMARK  9 active torsions:
REMARK  status: ('A' for Active; 'I' for Inactive)
REMARK    1  A    between atoms: C_3  and  O_4 
REMARK    2  A    between atoms: O_4  and  C_5 
REMARK    3  A    between atoms: C_5  and  C_6 
REMARK    4  A    between atoms: N_7  and  C_8 
REMARK    5  A    between atoms: C_14  and  S_15 
REMARK    6  A    between atoms: S_15  and  C_16 
REMARK    7  A    between atoms: C_16  and  C_17 
REMARK       I    between atoms: C_17  and  N_18 
REMARK    8  A    between atoms: N_18  and  C_19 
REMARK    9  A    between atoms: C_19  and  C_20 
ROOT
HETATM    1  C   UNL     1      42.720 -16.577   1.335  1.00  0.00     0.160 A 
HETATM    2  N   UNL     1      42.150 -15.602   2.154  1.00  0.00    -0.274 N 
HETATM    3  C   UNL     1      41.140 -15.073   1.363  1.00  0.00     0.196 A 
HETATM    4  N   UNL     1      41.088 -15.685   0.204  1.00  0.00    -0.122 NA
HETATM    5  N   UNL     1      42.081 -16.614   0.178  1.00  0.00    -0.131 NA
ENDROOT
BRANCH   3   6
HETATM    6  S   UNL     1      40.273 -13.595   1.647  1.00  0.00    -0.081 SA
BRANCH   6   7
HETATM    7  C   UNL     1      38.577 -14.154   1.313  1.00  0.00     0.185 C 
BRANCH   7   8
HETATM    8  C   UNL     1      38.035 -13.766  -0.056  1.00  0.00     0.227 C 
HETATM    9  N   UNL     1      38.490 -14.491  -1.129  1.00  0.00    -0.360 N 
HETATM   10  H   UNL     1      39.151 -15.249  -0.972  1.00  0.00     0.162 HD
HETATM   11  O   UNL     1      37.306 -12.782  -0.188  1.00  0.00    -0.273 OA
BRANCH   9  12
HETATM   12  C   UNL     1      38.246 -14.116  -2.505  1.00  0.00     0.126 C 
BRANCH  12  13
HETATM   13  C   UNL     1      39.500 -14.280  -3.381  1.00  0.00    -0.005 C 
HETATM   14  C   UNL     1      40.717 -13.576  -2.775  1.00  0.00     0.011 C 
HETATM   15  C   UNL     1      39.804 -15.765  -3.582  1.00  0.00     0.011 C 
ENDBRANCH  12  13
ENDBRANCH   9  12
ENDBRANCH   7   8
ENDBRANCH   6   7
ENDBRANCH   3   6
BRANCH   2  16
HETATM   16  C   UNL     1      42.521 -15.215   3.471  1.00  0.00     0.043 A 
HETATM   17  C   UNL     1      41.908 -15.793   4.590  1.00  0.00     0.030 A 
HETATM   18  C   UNL     1      42.289 -15.406   5.878  1.00  0.00     0.002 A 
HETATM   19  C   UNL     1      43.281 -14.446   6.059  1.00  0.00     0.000 A 
HETATM   20  C   UNL     1      43.897 -13.868   4.951  1.00  0.00     0.002 A 
HETATM   21  C   UNL     1      43.520 -14.249   3.662  1.00  0.00     0.030 A 
ENDBRANCH   2  16
BRANCH   1  22
HETATM   22  C   UNL     1      43.817 -17.520   1.690  1.00  0.00     0.256 C 
BRANCH  22  23
HETATM   23  O   UNL     1      43.394 -18.268   2.824  1.00  0.00    -0.343 OA
BRANCH  23  24
HETATM   24  C   UNL     1      43.755 -19.591   2.853  1.00  0.00     0.075 A 
HETATM   25  C   UNL     1      44.429 -20.023   4.009  1.00  0.00    -0.029 A 
HETATM   26  C   UNL     1      44.672 -19.101   5.172  1.00  0.00     0.051 C 
HETATM   27  C   UNL     1      44.816 -21.369   4.116  1.00  0.00     0.009 A 
HETATM   28  C   UNL     1      44.569 -22.264   3.076  1.00  0.00     0.001 A 
HETATM   29  C   UNL     1      43.926 -21.826   1.924  1.00  0.00     0.003 A 
HETATM   30  C   UNL     1      43.520 -20.495   1.811  1.00  0.00     0.037 A 
ENDBRANCH  23  24
ENDBRANCH  22  23
ENDBRANCH   1  22
TORSDOF 9
ENDMDL
MODEL 6
REMARK VINA RESULT:      -7.6      3.834      6.670
REMARK  9 active torsions:
REMARK  status: ('A' for Active; 'I' for Inactive)
REMARK    1  A    between atoms: C_3  and  O_4 
REMARK    2  A    between atoms: O_4  and  C_5 
REMARK    3  A    between atoms: C_5  and  C_6 
REMARK    4  A    between atoms: N_7  and  C_8 
REMARK    5  A    between atoms: C_14  and  S_15 
REMARK    6  A    between atoms: S_15  and  C_16 
REMARK    7  A    between atoms: C_16  and  C_17 
REMARK       I    between atoms: C_17  and  N_18 
REMARK    8  A    between atoms: N_18  and  C_19 
REMARK    9  A    between atoms: C_19  and  C_20 
ROOT
HETATM    1  C   UNL     1      43.186 -16.903   5.591  1.00  0.00     0.160 A 
HETATM    2  N   UNL     1      42.800 -15.985   4.613  1.00  0.00    -0.274 N 
HETATM    3  C   UNL     1      43.031 -14.759   5.220  1.00  0.00     0.196 A 
HETATM    4  N   UNL     1      43.531 -14.921   6.422  1.00  0.00    -0.122 NA
HETATM    5  N   UNL     1      43.616 -16.257   6.661  1.00  0.00    -0.131 NA
ENDROOT
BRANCH   3   6
HETATM    6  S   UNL     1      42.445 -13.214   4.683  1.00  0.00    -0.081 SA
BRANCH   6   7
HETATM    7  C   UNL     1      40.891 -13.123   5.619  1.00  0.00     0.185 C 
BRANCH   7   8
HETATM    8  C   UNL     1      40.743 -11.884   6.492  1.00  0.00     0.227 C 
HETATM    9  N   UNL     1      39.983 -12.017   7.628  1.00  0.00    -0.360 N 
HETATM   10  H   UNL     1      39.565 -12.921   7.843  1.00  0.00     0.162 HD
HETATM   11  O   UNL     1      41.200 -10.801   6.129  1.00  0.00    -0.273 OA
BRANCH   9  12
HETATM   12  C   UNL     1      39.566 -10.897   8.443  1.00  0.00     0.126 C 
BRANCH  12  13
HETATM   13  C   UNL     1      40.286 -10.870   9.802  1.00  0.00    -0.005 C 
HETATM   14  C   UNL     1      41.714 -10.330   9.682  1.00  0.00     0.011 C 
HETATM   15  C   UNL     1      39.491 -10.023  10.796  1.00  0.00     0.011 C 
ENDBRANCH  12  13
ENDBRANCH   9  12
ENDBRANCH   7   8
ENDBRANCH   6   7
ENDBRANCH   3   6
BRANCH   2  16
HETATM   16  C   UNL     1      42.272 -16.232   3.316  1.00  0.00     0.043 A 
HETATM   17  C   UNL     1      43.010 -15.921   2.168  1.00  0.00     0.030 A 
HETATM   18  C   UNL     1      42.479 -16.175   0.900  1.00  0.00     0.002 A 
HETATM   19  C   UNL     1      41.214 -16.743   0.770  1.00  0.00     0.000 A 
HETATM   20  C   UNL     1      40.475 -17.058   1.907  1.00  0.00     0.002 A 
HETATM   21  C   UNL     1      40.999 -16.804   3.176  1.00  0.00     0.030 A 
ENDBRANCH   2  16
BRANCH   1  22
HETATM   22  C   UNL     1      43.217 -18.387   5.467  1.00  0.00     0.256 C 
BRANCH  22  23
HETATM   23  O   UNL     1      44.313 -18.729   4.628  1.00  0.00    -0.343 OA
BRANCH  23  24
HETATM   24  C   UNL     1      44.454 -20.057   4.317  1.00  0.00     0.075 A 
HETATM   25  C   UNL     1      44.198 -20.409   2.980  1.00  0.00    -0.029 A 
HETATM   26  C   UNL     1      43.861 -19.375   1.942  1.00  0.00     0.051 C 
HETATM   27  C   UNL     1      44.337 -21.750   2.584  1.00  0.00     0.009 A 
HETATM   28  C   UNL     1      44.690 -22.731   3.509  1.00  0.00     0.001 A 
HETATM   29  C   UNL     1      44.917 -22.382   4.836  1.00  0.00     0.003 A 
HETATM   30  C   UNL     1      44.799 -21.051   5.240  1.00  0.00     0.037 A 
ENDBRANCH  23  24
ENDBRANCH  22  23
ENDBRANCH   1  22
TORSDOF 9
ENDMDL
MODEL 7
REMARK VINA RESULT:      -7.5      3.812      7.269
REMARK  9 active torsions:
REMARK  status: ('A' for Active; 'I' for Inactive)
REMARK    1  A    between atoms: C_3  and  O_4 
REMARK    2  A    between atoms: O_4  and  C_5 
REMARK    3  A    between atoms: C_5  and  C_6 
REMARK    4  A    between atoms: N_7  and  C_8 
REMARK    5  A    between atoms: C_14  and  S_15 
REMARK    6  A    between atoms: S_15  and  C_16 
REMARK    7  A    between atoms: C_16  and  C_17 
REMARK       I    between atoms: C_17  and  N_18 
REMARK    8  A    between atoms: N_18  and  C_19 
REMARK    9  A    between atoms: C_19  and  C_20 
ROOT
HETATM    1  C   UNL     1      42.324 -15.532   4.589  1.00  0.00     0.160 A 
HETATM    2  N   UNL     1      41.779 -14.421   3.945  1.00  0.00    -0.274 N 
HETATM    3  C   UNL     1      42.148 -13.366   4.766  1.00  0.00     0.196 A 
HETATM    4  N   UNL     1      42.864 -13.792   5.779  1.00  0.00    -0.122 NA
HETATM    5  N   UNL     1      42.964 -15.144   5.678  1.00  0.00    -0.131 NA
ENDROOT
BRANCH   3   6
HETATM    6  S   UNL     1      41.503 -11.753   4.727  1.00  0.00    -0.081 SA
BRANCH   6   7
HETATM    7  C   UNL     1      40.961 -11.587   6.452  1.00  0.00     0.185 C 
BRANCH   7   8
HETATM    8  C   UNL     1      41.929 -10.838   7.358  1.00  0.00     0.227 C 
HETATM    9  N   UNL     1      42.691 -11.598   8.211  1.00  0.00    -0.360 N 
HETATM   10  H   UNL     1      42.588 -12.611   8.200  1.00  0.00     0.162 HD
HETATM   11  O   UNL     1      41.941  -9.607   7.384  1.00  0.00    -0.273 OA
BRANCH   9  12
HETATM   12  C   UNL     1      43.492 -11.037   9.277  1.00  0.00     0.126 C 
BRANCH  12  13
HETATM   13  C   UNL     1      44.598 -12.001   9.738  1.00  0.00    -0.005 C 
HETATM   14  C   UNL     1      45.335 -12.634   8.555  1.00  0.00     0.011 C 
HETATM   15  C   UNL     1      45.592 -11.262  10.635  1.00  0.00     0.011 C 
ENDBRANCH  12  13
ENDBRANCH   9  12
ENDBRANCH   7   8
ENDBRANCH   6   7
ENDBRANCH   3   6
BRANCH   2  16
HETATM   16  C   UNL     1      41.008 -14.371   2.751  1.00  0.00     0.043 A 
HETATM   17  C   UNL     1      39.624 -14.588   2.780  1.00  0.00     0.030 A 
HETATM   18  C   UNL     1      38.879 -14.530   1.598  1.00  0.00     0.002 A 
HETATM   19  C   UNL     1      39.506 -14.254   0.385  1.00  0.00     0.000 A 
HETATM   20  C   UNL     1      40.880 -14.036   0.349  1.00  0.00     0.002 A 
HETATM   21  C   UNL     1      41.631 -14.095   1.526  1.00  0.00     0.030 A 
ENDBRANCH   2  16
BRANCH   1  22
HETATM   22  C   UNL     1      42.299 -16.945   4.118  1.00  0.00     0.256 C 
BRANCH  22  23
HETATM   23  O   UNL     1      43.630 -17.311   3.774  1.00  0.00    -0.343 OA
BRANCH  23  24
HETATM   24  C   UNL     1      43.828 -18.614   3.396  1.00  0.00     0.075 A 
HETATM   25  C   UNL     1      44.513 -19.427   4.317  1.00  0.00    -0.029 A 
HETATM   26  C   UNL     1      44.934 -18.911   5.664  1.00  0.00     0.051 C 
HETATM   27  C   UNL     1      44.738 -20.778   4.005  1.00  0.00     0.009 A 
HETATM   28  C   UNL     1      44.322 -21.305   2.782  1.00  0.00     0.001 A 
HETATM   29  C   UNL     1      43.670 -20.490   1.864  1.00  0.00     0.003 A 
HETATM   30  C   UNL     1      43.423 -19.149   2.168  1.00  0.00     0.037 A 
ENDBRANCH  23  24
ENDBRANCH  22  23
ENDBRANCH   1  22
TORSDOF 9
ENDMDL
MODEL 8
REMARK VINA RESULT:      -7.3      2.001      2.723
REMARK  9 active torsions:
REMARK  status: ('A' for Active; 'I' for Inactive)
REMARK    1  A    between atoms: C_3  and  O_4 
REMARK    2  A    between atoms: O_4  and  C_5 
REMARK    3  A    between atoms: C_5  and  C_6 
REMARK    4  A    between atoms: N_7  and  C_8 
REMARK    5  A    between atoms: C_14  and  S_15 
REMARK    6  A    between atoms: S_15  and  C_16 
REMARK    7  A    between atoms: C_16  and  C_17 
REMARK       I    between atoms: C_17  and  N_18 
REMARK    8  A    between atoms: N_18  and  C_19 
REMARK    9  A    between atoms: C_19  and  C_20 
ROOT
HETATM    1  C   UNL     1      41.836 -16.793   1.669  1.00  0.00     0.160 A 
HETATM    2  N   UNL     1      41.803 -15.425   1.940  1.00  0.00    -0.274 N 
HETATM    3  C   UNL     1      41.500 -14.864   0.709  1.00  0.00     0.196 A 
HETATM    4  N   UNL     1      41.336 -15.796  -0.200  1.00  0.00    -0.122 NA
HETATM    5  N   UNL     1      41.558 -16.999   0.393  1.00  0.00    -0.131 NA
ENDROOT
BRANCH   3   6
HETATM    6  S   UNL     1      41.647 -13.189   0.272  1.00  0.00    -0.081 SA
BRANCH   6   7
HETATM    7  C   UNL     1      42.246 -13.358  -1.434  1.00  0.00     0.185 C 
BRANCH   7   8
HETATM    8  C   UNL     1      41.201 -13.087  -2.508  1.00  0.00     0.227 C 
HETATM    9  N   UNL     1      39.905 -13.425  -2.207  1.00  0.00    -0.360 N 
HETATM   10  H   UNL     1      39.695 -13.827  -1.296  1.00  0.00     0.162 HD
HETATM   11  O   UNL     1      41.535 -12.682  -3.622  1.00  0.00    -0.273 OA
BRANCH   9  12
HETATM   12  C   UNL     1      38.838 -13.436  -3.184  1.00  0.00     0.126 C 
BRANCH  12  13
HETATM   13  C   UNL     1      38.196 -14.827  -3.324  1.00  0.00    -0.005 C 
HETATM   14  C   UNL     1      36.873 -14.772  -4.093  1.00  0.00     0.011 C 
HETATM   15  C   UNL     1      39.165 -15.780  -4.025  1.00  0.00     0.011 C 
ENDBRANCH  12  13
ENDBRANCH   9  12
ENDBRANCH   7   8
ENDBRANCH   6   7
ENDBRANCH   3   6
BRANCH   2  16
HETATM   16  C   UNL     1      42.048 -14.754   3.170  1.00  0.00     0.043 A 
HETATM   17  C   UNL     1      40.995 -14.444   4.041  1.00  0.00     0.030 A 
HETATM   18  C   UNL     1      41.253 -13.789   5.249  1.00  0.00     0.002 A 
HETATM   19  C   UNL     1      42.556 -13.442   5.597  1.00  0.00     0.000 A 
HETATM   20  C   UNL     1      43.608 -13.749   4.736  1.00  0.00     0.002 A 
HETATM   21  C   UNL     1      43.357 -14.401   3.527  1.00  0.00     0.030 A 
ENDBRANCH   2  16
BRANCH   1  22
HETATM   22  C   UNL     1      42.051 -17.898   2.645  1.00  0.00     0.256 C 
BRANCH  22  23
HETATM   23  O   UNL     1      43.444 -18.189   2.669  1.00  0.00    -0.343 OA
BRANCH  23  24
HETATM   24  C   UNL     1      43.790 -19.511   2.782  1.00  0.00     0.075 A 
HETATM   25  C   UNL     1      44.450 -19.878   3.969  1.00  0.00    -0.029 A 
HETATM   26  C   UNL     1      44.692 -18.889   5.075  1.00  0.00     0.051 C 
HETATM   27  C   UNL     1      44.821 -21.218   4.162  1.00  0.00     0.009 A 
HETATM   28  C   UNL     1      44.574 -22.173   3.177  1.00  0.00     0.001 A 
HETATM   29  C   UNL     1      43.946 -21.801   1.994  1.00  0.00     0.003 A 
HETATM   30  C   UNL     1      43.555 -20.475   1.796  1.00  0.00     0.037 A 
ENDBRANCH  23  24
ENDBRANCH  22  23
ENDBRANCH   1  22
TORSDOF 9
ENDMDL
MODEL 9
REMARK VINA RESULT:      -7.3      2.228      2.861
REMARK  9 active torsions:
REMARK  status: ('A' for Active; 'I' for Inactive)
REMARK    1  A    between atoms: C_3  and  O_4 
REMARK    2  A    between atoms: O_4  and  C_5 
REMARK    3  A    between atoms: C_5  and  C_6 
REMARK    4  A    between atoms: N_7  and  C_8 
REMARK    5  A    between atoms: C_14  and  S_15 
REMARK    6  A    between atoms: S_15  and  C_16 
REMARK    7  A    between atoms: C_16  and  C_17 
REMARK       I    between atoms: C_17  and  N_18 
REMARK    8  A    between atoms: N_18  and  C_19 
REMARK    9  A    between atoms: C_19  and  C_20 
ROOT
HETATM    1  C   UNL     1      40.974 -15.912   3.525  1.00  0.00     0.160 A 
HETATM    2  N   UNL     1      40.323 -14.683   3.623  1.00  0.00    -0.274 N 
HETATM    3  C   UNL     1      39.464 -14.691   2.534  1.00  0.00     0.196 A 
HETATM    4  N   UNL     1      39.565 -15.817   1.870  1.00  0.00    -0.122 NA
HETATM    5  N   UNL     1      40.516 -16.575   2.478  1.00  0.00    -0.131 NA
ENDROOT
BRANCH   3   6
HETATM    6  S   UNL     1      38.617 -13.324   1.876  1.00  0.00    -0.081 SA
BRANCH   6   7
HETATM    7  C   UNL     1      37.934 -14.070   0.369  1.00  0.00     0.185 C 
BRANCH   7   8
HETATM    8  C   UNL     1      38.521 -13.537  -0.931  1.00  0.00     0.227 C 
HETATM    9  N   UNL     1      38.322 -14.297  -2.057  1.00  0.00    -0.360 N 
HETATM   10  H   UNL     1      37.794 -15.165  -1.983  1.00  0.00     0.162 HD
HETATM   11  O   UNL     1      39.224 -12.526  -0.935  1.00  0.00    -0.273 OA
BRANCH   9  12
HETATM   12  C   UNL     1      38.992 -14.048  -3.315  1.00  0.00     0.126 C 
BRANCH  12  13
HETATM   13  C   UNL     1      39.827 -15.255  -3.774  1.00  0.00    -0.005 C 
HETATM   14  C   UNL     1      40.841 -15.687  -2.711  1.00  0.00     0.011 C 
HETATM   15  C   UNL     1      38.906 -16.425  -4.120  1.00  0.00     0.011 C 
ENDBRANCH  12  13
ENDBRANCH   9  12
ENDBRANCH   7   8
ENDBRANCH   6   7
ENDBRANCH   3   6
BRANCH   2  16
HETATM   16  C   UNL     1      40.505 -13.651   4.586  1.00  0.00     0.043 A 
HETATM   17  C   UNL     1      39.620 -13.508   5.662  1.00  0.00     0.030 A 
HETATM   18  C   UNL     1      39.816 -12.492   6.602  1.00  0.00     0.002 A 
HETATM   19  C   UNL     1      40.893 -11.618   6.478  1.00  0.00     0.000 A 
HETATM   20  C   UNL     1      41.778 -11.755   5.411  1.00  0.00     0.002 A 
HETATM   21  C   UNL     1      41.586 -12.767   4.467  1.00  0.00     0.030 A 
ENDBRANCH   2  16
BRANCH   1  22
HETATM   22  C   UNL     1      41.970 -16.480   4.477  1.00  0.00     0.256 C 
BRANCH  22  23
HETATM   23  O   UNL     1      43.178 -16.703   3.758  1.00  0.00    -0.343 OA
BRANCH  23  24
HETATM   24  C   UNL     1      43.701 -17.969   3.820  1.00  0.00     0.075 A 
HETATM   25  C   UNL     1      43.895 -18.618   2.587  1.00  0.00    -0.029 A 
HETATM   26  C   UNL     1      43.612 -17.931   1.281  1.00  0.00     0.051 C 
HETATM   27  C   UNL     1      44.442 -19.912   2.571  1.00  0.00     0.009 A 
HETATM   28  C   UNL     1      44.758 -20.565   3.762  1.00  0.00     0.001 A 
HETATM   29  C   UNL     1      44.540 -19.929   4.979  1.00  0.00     0.003 A 
HETATM   30  C   UNL     1      44.013 -18.637   5.009  1.00  0.00     0.037 A 
ENDBRANCH  23  24
ENDBRANCH  22  23
ENDBRANCH   1  22
TORSDOF 9
ENDMDL
MODEL 10
REMARK VINA RESULT:      -7.1      2.668      3.313
REMARK  9 active torsions:
REMARK  status: ('A' for Active; 'I' for Inactive)
REMARK    1  A    between atoms: C_3  and  O_4 
REMARK    2  A    between atoms: O_4  and  C_5 
REMARK    3  A    between atoms: C_5  and  C_6 
REMARK    4  A    between atoms: N_7  and  C_8 
REMARK    5  A    between atoms: C_14  and  S_15 
REMARK    6  A    between atoms: S_15  and  C_16 
REMARK    7  A    between atoms: C_16  and  C_17 
REMARK       I    between atoms: C_17  and  N_18 
REMARK    8  A    between atoms: N_18  and  C_19 
REMARK    9  A    between atoms: C_19  and  C_20 
ROOT
HETATM    1  C   UNL     1      41.870 -16.962   2.220  1.00  0.00     0.160 A 
HETATM    2  N   UNL     1      41.472 -15.627   2.307  1.00  0.00    -0.274 N 
HETATM    3  C   UNL     1      41.145 -15.307   0.998  1.00  0.00     0.196 A 
HETATM    4  N   UNL     1      41.299 -16.346   0.212  1.00  0.00    -0.122 NA
HETATM    5  N   UNL     1      41.764 -17.375   0.969  1.00  0.00    -0.131 NA
ENDROOT
BRANCH   3   6
HETATM    6  S   UNL     1      40.906 -13.711   0.354  1.00  0.00    -0.081 SA
BRANCH   6   7
HETATM    7  C   UNL     1      40.036 -14.119  -1.187  1.00  0.00     0.185 C 
BRANCH   7   8
HETATM    8  C   UNL     1      40.774 -13.728  -2.460  1.00  0.00     0.227 C 
HETATM    9  N   UNL     1      41.819 -12.847  -2.323  1.00  0.00    -0.360 N 
HETATM   10  H   UNL     1      42.060 -12.504  -1.395  1.00  0.00     0.162 HD
HETATM   11  O   UNL     1      40.375 -14.109  -3.561  1.00  0.00    -0.273 OA
BRANCH   9  12
HETATM   12  C   UNL     1      42.477 -12.211  -3.443  1.00  0.00     0.126 C 
BRANCH  12  13
HETATM   13  C   UNL     1      42.200 -10.699  -3.495  1.00  0.00    -0.005 C 
HETATM   14  C   UNL     1      42.998  -9.935  -2.436  1.00  0.00     0.011 C 
HETATM   15  C   UNL     1      42.529 -10.157  -4.886  1.00  0.00     0.011 C 
ENDBRANCH  12  13
ENDBRANCH   9  12
ENDBRANCH   7   8
ENDBRANCH   6   7
ENDBRANCH   3   6
BRANCH   2  16
HETATM   16  C   UNL     1      41.433 -14.781   3.450  1.00  0.00     0.043 A 
HETATM   17  C   UNL     1      40.252 -14.621   4.185  1.00  0.00     0.030 A 
HETATM   18  C   UNL     1      40.232 -13.790   5.310  1.00  0.00     0.002 A 
HETATM   19  C   UNL     1      41.386 -13.118   5.708  1.00  0.00     0.000 A 
HETATM   20  C   UNL     1      42.564 -13.275   4.983  1.00  0.00     0.002 A 
HETATM   21  C   UNL     1      42.590 -14.102   3.858  1.00  0.00     0.030 A 
ENDBRANCH   2  16
BRANCH   1  22
HETATM   22  C   UNL     1      42.270 -17.855   3.343  1.00  0.00     0.256 C 
BRANCH  22  23
HETATM   23  O   UNL     1      43.628 -18.228   3.137  1.00  0.00    -0.343 OA
BRANCH  23  24
HETATM   24  C   UNL     1      43.885 -19.571   3.037  1.00  0.00     0.075 A 
HETATM   25  C   UNL     1      44.542 -20.158   4.133  1.00  0.00    -0.029 A 
HETATM   26  C   UNL     1      44.874 -19.369   5.369  1.00  0.00     0.051 C 
HETATM   27  C   UNL     1      44.825 -21.533   4.108  1.00  0.00     0.009 A 
HETATM   28  C   UNL     1      44.493 -22.307   2.997  1.00  0.00     0.001 A 
HETATM   29  C   UNL     1      43.867 -21.718   1.905  1.00  0.00     0.003 A 
HETATM   30  C   UNL     1      43.564 -20.355   1.923  1.00  0.00     0.037 A 
ENDBRANCH  23  24
ENDBRANCH  22  23
ENDBRANCH   1  22
TORSDOF 9
ENDMDL
