MODEL 1
REMARK VINA RESULT:      -8.0      0.000      0.000
REMARK  2 active torsions:
REMARK  status: ('A' for Active; 'I' for Inactive)
REMARK    1  A    between atoms: C_9  and  C_10 
REMARK       I    between atoms: C_10  and  N_11 
REMARK    2  A    between atoms: N_11  and  C_12 
ROOT
HETATM    1  C   UNL     1      41.200 -15.295   3.498  1.00  0.00     0.267 C 
HETATM    2  N   UNL     1      40.744 -14.282   2.713  1.00  0.00    -0.156 N 
HETATM    3  O   UNL     1      40.840 -15.349   4.682  1.00  0.00    -0.270 OA
HETATM    4  H   UNL     1      40.156 -13.595   3.172  1.00  0.00     0.187 HD
ENDROOT
BRANCH   1   5
HETATM    5  C   UNL     1      42.158 -16.390   2.981  1.00  0.00     0.282 C 
HETATM    6  N   UNL     1      41.347 -17.363   2.117  1.00  0.00    -0.058 N 
HETATM    7  C   UNL     1      42.183 -18.408   1.485  1.00  0.00     0.272 C 
HETATM    8  H   UNL     1      40.625 -17.786   2.717  1.00  0.00     0.278 HD
HETATM    9  H   UNL     1      40.820 -16.824   1.420  1.00  0.00     0.278 HD
HETATM   10  C   UNL     1      43.114 -19.074   2.456  1.00  0.00    -0.026 A 
HETATM   11  C   UNL     1      43.417 -18.483   3.699  1.00  0.00    -0.048 A 
HETATM   12  C   UNL     1      43.739 -20.277   2.096  1.00  0.00     0.009 A 
HETATM   13  C   UNL     1      44.312 -19.123   4.569  1.00  0.00     0.008 A 
HETATM   14  C   UNL     1      42.748 -17.202   4.144  1.00  0.00     0.082 C 
HETATM   15  C   UNL     1      44.918 -20.322   4.201  1.00  0.00     0.001 A 
HETATM   16  C   UNL     1      44.634 -20.898   2.966  1.00  0.00     0.001 A 
ENDBRANCH   1   5
BRANCH   2  17
HETATM   17  C   UNL     1      40.957 -14.198   1.364  1.00  0.00     0.708 A 
HETATM   18  N   UNL     1      40.459 -14.981   0.438  1.00  0.00    -0.062 NA
HETATM   19  C   UNL     1      40.969 -14.519  -0.753  1.00  0.00     0.103 A 
HETATM   20  C   UNL     1      41.791 -13.419  -0.541  1.00  0.00     0.078 A 
HETATM   21  C   UNL     1      40.776 -14.994  -2.057  1.00  0.00     0.034 A 
HETATM   22  N   UNL     1      41.755 -13.225   0.816  1.00  0.00    -0.188 N 
HETATM   23  C   UNL     1      42.455 -12.749  -1.570  1.00  0.00     0.032 A 
HETATM   24  H   UNL     1      42.250 -12.501   1.316  1.00  0.00     0.184 HD
HETATM   25  C   UNL     1      42.256 -13.239  -2.866  1.00  0.00     0.002 A 
HETATM   26  C   UNL     1      41.430 -14.340  -3.109  1.00  0.00     0.002 A 
ENDBRANCH   2  17
TORSDOF 2
ENDMDL
MODEL 2
REMARK VINA RESULT:      -7.9      3.095      4.503
REMARK  2 active torsions:
REMARK  status: ('A' for Active; 'I' for Inactive)
REMARK    1  A    between atoms: C_9  and  C_10 
REMARK       I    between atoms: C_10  and  N_11 
REMARK    2  A    between atoms: N_11  and  C_12 
ROOT
HETATM    1  C   UNL     1      43.220 -16.884   7.724  1.00  0.00     0.267 C 
HETATM    2  N   UNL     1      42.966 -15.721   7.065  1.00  0.00    -0.156 N 
HETATM    3  O   UNL     1      43.524 -16.843   8.925  1.00  0.00    -0.270 OA
HETATM    4  H   UNL     1      43.087 -14.871   7.604  1.00  0.00     0.187 HD
ENDROOT
BRANCH   1   5
HETATM    5  C   UNL     1      43.151 -18.268   7.040  1.00  0.00     0.282 C 
HETATM    6  N   UNL     1      43.747 -19.303   8.002  1.00  0.00    -0.058 N 
HETATM    7  C   UNL     1      43.647 -20.688   7.493  1.00  0.00     0.272 C 
HETATM    8  H   UNL     1      44.730 -19.044   8.170  1.00  0.00     0.278 HD
HETATM    9  H   UNL     1      43.294 -19.201   8.919  1.00  0.00     0.278 HD
HETATM   10  C   UNL     1      44.119 -20.821   6.074  1.00  0.00    -0.026 A 
HETATM   11  C   UNL     1      44.247 -19.693   5.239  1.00  0.00    -0.048 A 
HETATM   12  C   UNL     1      44.382 -22.096   5.552  1.00  0.00     0.009 A 
HETATM   13  C   UNL     1      44.666 -19.859   3.911  1.00  0.00     0.008 A 
HETATM   14  C   UNL     1      44.002 -18.296   5.763  1.00  0.00     0.082 C 
HETATM   15  C   UNL     1      44.932 -21.132   3.409  1.00  0.00     0.001 A 
HETATM   16  C   UNL     1      44.789 -22.249   4.227  1.00  0.00     0.001 A 
ENDBRANCH   1   5
BRANCH   2  17
HETATM   17  C   UNL     1      42.487 -15.650   5.785  1.00  0.00     0.708 A 
HETATM   18  N   UNL     1      41.314 -16.054   5.361  1.00  0.00    -0.062 NA
HETATM   19  C   UNL     1      41.299 -15.794   4.010  1.00  0.00     0.103 A 
HETATM   20  C   UNL     1      42.493 -15.208   3.609  1.00  0.00     0.078 A 
HETATM   21  C   UNL     1      40.298 -16.037   3.061  1.00  0.00     0.034 A 
HETATM   22  N   UNL     1      43.228 -15.113   4.763  1.00  0.00    -0.188 N 
HETATM   23  C   UNL     1      42.763 -14.846   2.289  1.00  0.00     0.032 A 
HETATM   24  H   UNL     1      44.160 -14.732   4.832  1.00  0.00     0.184 HD
HETATM   25  C   UNL     1      41.755 -15.099   1.351  1.00  0.00     0.002 A 
HETATM   26  C   UNL     1      40.542 -15.682   1.728  1.00  0.00     0.002 A 
ENDBRANCH   2  17
TORSDOF 2
ENDMDL
MODEL 3
REMARK VINA RESULT:      -7.9      3.705      4.649
REMARK  2 active torsions:
REMARK  status: ('A' for Active; 'I' for Inactive)
REMARK    1  A    between atoms: C_9  and  C_10 
REMARK       I    between atoms: C_10  and  N_11 
REMARK    2  A    between atoms: N_11  and  C_12 
ROOT
HETATM    1  C   UNL     1      43.764 -17.586   7.032  1.00  0.00     0.267 C 
HETATM    2  N   UNL     1      43.275 -16.342   7.287  1.00  0.00    -0.156 N 
HETATM    3  O   UNL     1      44.032 -18.335   7.982  1.00  0.00    -0.270 OA
HETATM    4  H   UNL     1      43.200 -16.087   8.266  1.00  0.00     0.187 HD
ENDROOT
BRANCH   1   5
HETATM    5  C   UNL     1      44.008 -18.114   5.601  1.00  0.00     0.282 C 
HETATM    6  N   UNL     1      42.722 -17.907   4.792  1.00  0.00    -0.058 N 
HETATM    7  C   UNL     1      42.868 -18.290   3.370  1.00  0.00     0.272 C 
HETATM    8  H   UNL     1      41.977 -18.456   5.244  1.00  0.00     0.278 HD
HETATM    9  H   UNL     1      42.421 -16.930   4.895  1.00  0.00     0.278 HD
HETATM   10  C   UNL     1      43.499 -19.640   3.193  1.00  0.00    -0.026 A 
HETATM   11  C   UNL     1      44.214 -20.254   4.241  1.00  0.00    -0.048 A 
HETATM   12  C   UNL     1      43.424 -20.277   1.946  1.00  0.00     0.009 A 
HETATM   13  C   UNL     1      44.812 -21.506   4.029  1.00  0.00     0.008 A 
HETATM   14  C   UNL     1      44.299 -19.622   5.611  1.00  0.00     0.082 C 
HETATM   15  C   UNL     1      44.721 -22.130   2.787  1.00  0.00     0.001 A 
HETATM   16  C   UNL     1      44.029 -21.517   1.746  1.00  0.00     0.001 A 
ENDBRANCH   1   5
BRANCH   2  17
HETATM   17  C   UNL     1      42.814 -15.484   6.327  1.00  0.00     0.708 A 
HETATM   18  N   UNL     1      43.520 -14.896   5.392  1.00  0.00    -0.062 NA
HETATM   19  C   UNL     1      42.629 -14.122   4.685  1.00  0.00     0.103 A 
HETATM   20  C   UNL     1      41.346 -14.254   5.203  1.00  0.00     0.078 A 
HETATM   21  C   UNL     1      42.846 -13.276   3.590  1.00  0.00     0.034 A 
HETATM   22  N   UNL     1      41.488 -15.140   6.239  1.00  0.00    -0.188 N 
HETATM   23  C   UNL     1      40.239 -13.575   4.690  1.00  0.00     0.032 A 
HETATM   24  H   UNL     1      40.743 -15.460   6.840  1.00  0.00     0.184 HD
HETATM   25  C   UNL     1      40.474 -12.730   3.599  1.00  0.00     0.002 A 
HETATM   26  C   UNL     1      41.752 -12.582   3.055  1.00  0.00     0.002 A 
ENDBRANCH   2  17
TORSDOF 2
ENDMDL
MODEL 4
REMARK VINA RESULT:      -7.8      7.382     10.013
REMARK  2 active torsions:
REMARK  status: ('A' for Active; 'I' for Inactive)
REMARK    1  A    between atoms: C_9  and  C_10 
REMARK       I    between atoms: C_10  and  N_11 
REMARK    2  A    between atoms: N_11  and  C_12 
ROOT
HETATM    1  C   UNL     1      45.333 -11.938   8.710  1.00  0.00     0.267 C 
HETATM    2  N   UNL     1      45.532 -12.905   7.774  1.00  0.00    -0.156 N 
HETATM    3  O   UNL     1      46.197 -11.063   8.866  1.00  0.00    -0.270 OA
HETATM    4  H   UNL     1      46.417 -12.869   7.281  1.00  0.00     0.187 HD
ENDROOT
BRANCH   1   5
HETATM    5  C   UNL     1      44.072 -11.879   9.601  1.00  0.00     0.282 C 
HETATM    6  N   UNL     1      43.027 -11.014   8.888  1.00  0.00    -0.058 N 
HETATM    7  C   UNL     1      41.733 -10.964   9.605  1.00  0.00     0.272 C 
HETATM    8  H   UNL     1      43.423 -10.069   8.781  1.00  0.00     0.278 HD
HETATM    9  H   UNL     1      42.915 -11.357   7.925  1.00  0.00     0.278 HD
HETATM   10  C   UNL     1      41.891 -10.662  11.067  1.00  0.00    -0.026 A 
HETATM   11  C   UNL     1      43.134 -10.816  11.714  1.00  0.00    -0.048 A 
HETATM   12  C   UNL     1      40.770 -10.275  11.815  1.00  0.00     0.009 A 
HETATM   13  C   UNL     1      43.236 -10.549  13.087  1.00  0.00     0.008 A 
HETATM   14  C   UNL     1      44.377 -11.204  10.946  1.00  0.00     0.082 C 
HETATM   15  C   UNL     1      42.115 -10.157  13.816  1.00  0.00     0.001 A 
HETATM   16  C   UNL     1      40.884 -10.021  13.182  1.00  0.00     0.001 A 
ENDBRANCH   1   5
BRANCH   2  17
HETATM   17  C   UNL     1      44.594 -13.833   7.415  1.00  0.00     0.708 A 
HETATM   18  N   UNL     1      44.507 -15.070   7.841  1.00  0.00    -0.062 NA
HETATM   19  C   UNL     1      43.424 -15.612   7.189  1.00  0.00     0.103 A 
HETATM   20  C   UNL     1      42.833 -14.673   6.353  1.00  0.00     0.078 A 
HETATM   21  C   UNL     1      42.888 -16.905   7.260  1.00  0.00     0.034 A 
HETATM   22  N   UNL     1      43.588 -13.542   6.527  1.00  0.00    -0.188 N 
HETATM   23  C   UNL     1      41.719 -14.947   5.558  1.00  0.00     0.032 A 
HETATM   24  H   UNL     1      43.435 -12.660   6.061  1.00  0.00     0.184 HD
HETATM   25  C   UNL     1      41.199 -16.244   5.637  1.00  0.00     0.002 A 
HETATM   26  C   UNL     1      41.769 -17.207   6.473  1.00  0.00     0.002 A 
ENDBRANCH   2  17
TORSDOF 2
ENDMDL
MODEL 5
REMARK VINA RESULT:      -7.7      1.663      6.947
REMARK  2 active torsions:
REMARK  status: ('A' for Active; 'I' for Inactive)
REMARK    1  A    between atoms: C_9  and  C_10 
REMARK       I    between atoms: C_10  and  N_11 
REMARK    2  A    between atoms: N_11  and  C_12 
ROOT
HETATM    1  C   UNL     1      39.102 -14.892   1.374  1.00  0.00     0.267 C 
HETATM    2  N   UNL     1      39.165 -16.082   2.031  1.00  0.00    -0.156 N 
HETATM    3  O   UNL     1      38.022 -14.285   1.330  1.00  0.00    -0.270 OA
HETATM    4  H   UNL     1      38.292 -16.423   2.416  1.00  0.00     0.187 HD
ENDROOT
BRANCH   1   5
HETATM    5  C   UNL     1      40.320 -14.257   0.668  1.00  0.00     0.282 C 
HETATM    6  N   UNL     1      40.627 -12.923   1.359  1.00  0.00    -0.058 N 
HETATM    7  C   UNL     1      41.842 -12.265   0.828  1.00  0.00     0.272 C 
HETATM    8  H   UNL     1      39.803 -12.316   1.246  1.00  0.00     0.278 HD
HETATM    9  H   UNL     1      40.693 -13.083   2.372  1.00  0.00     0.278 HD
HETATM   10  C   UNL     1      41.861 -12.203  -0.671  1.00  0.00    -0.026 A 
HETATM   11  C   UNL     1      41.022 -13.028  -1.447  1.00  0.00    -0.048 A 
HETATM   12  C   UNL     1      42.769 -11.349  -1.314  1.00  0.00     0.009 A 
HETATM   13  C   UNL     1      41.086 -12.960  -2.846  1.00  0.00     0.008 A 
HETATM   14  C   UNL     1      40.006 -13.943  -0.802  1.00  0.00     0.082 C 
HETATM   15  C   UNL     1      41.989 -12.100  -3.470  1.00  0.00     0.001 A 
HETATM   16  C   UNL     1      42.830 -11.297  -2.706  1.00  0.00     0.001 A 
ENDBRANCH   1   5
BRANCH   2  17
HETATM   17  C   UNL     1      40.324 -16.770   2.266  1.00  0.00     0.708 A 
HETATM   18  N   UNL     1      41.055 -17.405   1.382  1.00  0.00    -0.062 NA
HETATM   19  C   UNL     1      42.100 -17.953   2.090  1.00  0.00     0.103 A 
HETATM   20  C   UNL     1      42.001 -17.632   3.438  1.00  0.00     0.078 A 
HETATM   21  C   UNL     1      43.169 -18.742   1.646  1.00  0.00     0.034 A 
HETATM   22  N   UNL     1      40.869 -16.864   3.522  1.00  0.00    -0.188 N 
HETATM   23  C   UNL     1      42.919 -18.063   4.398  1.00  0.00     0.032 A 
HETATM   24  H   UNL     1      40.498 -16.461   4.370  1.00  0.00     0.184 HD
HETATM   25  C   UNL     1      43.979 -18.854   3.939  1.00  0.00     0.002 A 
HETATM   26  C   UNL     1      44.106 -19.187   2.588  1.00  0.00     0.002 A 
ENDBRANCH   2  17
TORSDOF 2
ENDMDL
MODEL 6
REMARK VINA RESULT:      -7.6      4.544      7.425
REMARK  2 active torsions:
REMARK  status: ('A' for Active; 'I' for Inactive)
REMARK    1  A    between atoms: C_9  and  C_10 
REMARK       I    between atoms: C_10  and  N_11 
REMARK    2  A    between atoms: N_11  and  C_12 
ROOT
HETATM    1  C   UNL     1      43.517 -17.469   7.779  1.00  0.00     0.267 C 
HETATM    2  N   UNL     1      43.719 -18.785   7.496  1.00  0.00    -0.156 N 
HETATM    3  O   UNL     1      43.524 -17.099   8.962  1.00  0.00    -0.270 OA
HETATM    4  H   UNL     1      43.822 -19.400   8.295  1.00  0.00     0.187 HD
ENDROOT
BRANCH   1   5
HETATM    5  C   UNL     1      43.274 -16.404   6.687  1.00  0.00     0.282 C 
HETATM    6  N   UNL     1      43.877 -15.080   7.172  1.00  0.00    -0.058 N 
HETATM    7  C   UNL     1      43.789 -14.002   6.161  1.00  0.00     0.272 C 
HETATM    8  H   UNL     1      43.388 -14.812   8.037  1.00  0.00     0.278 HD
HETATM    9  H   UNL     1      44.848 -15.248   7.465  1.00  0.00     0.278 HD
HETATM   10  C   UNL     1      42.417 -13.874   5.566  1.00  0.00    -0.026 A 
HETATM   11  C   UNL     1      41.474 -14.916   5.677  1.00  0.00    -0.048 A 
HETATM   12  C   UNL     1      42.087 -12.722   4.839  1.00  0.00     0.009 A 
HETATM   13  C   UNL     1      40.210 -14.769   5.085  1.00  0.00     0.008 A 
HETATM   14  C   UNL     1      41.772 -16.165   6.474  1.00  0.00     0.082 C 
HETATM   15  C   UNL     1      39.894 -13.614   4.373  1.00  0.00     0.001 A 
HETATM   16  C   UNL     1      40.830 -12.592   4.248  1.00  0.00     0.001 A 
ENDBRANCH   1   5
BRANCH   2  17
HETATM   17  C   UNL     1      43.873 -19.285   6.232  1.00  0.00     0.708 A 
HETATM   18  N   UNL     1      43.675 -18.648   5.104  1.00  0.00    -0.062 NA
HETATM   19  C   UNL     1      43.937 -19.562   4.110  1.00  0.00     0.103 A 
HETATM   20  C   UNL     1      44.314 -20.784   4.654  1.00  0.00     0.078 A 
HETATM   21  C   UNL     1      43.869 -19.420   2.718  1.00  0.00     0.034 A 
HETATM   22  N   UNL     1      44.280 -20.577   6.009  1.00  0.00    -0.188 N 
HETATM   23  C   UNL     1      44.629 -21.903   3.881  1.00  0.00     0.032 A 
HETATM   24  H   UNL     1      44.499 -21.268   6.711  1.00  0.00     0.184 HD
HETATM   25  C   UNL     1      44.553 -21.745   2.492  1.00  0.00     0.002 A 
HETATM   26  C   UNL     1      44.182 -20.527   1.918  1.00  0.00     0.002 A 
ENDBRANCH   2  17
TORSDOF 2
ENDMDL
MODEL 7
REMARK VINA RESULT:      -7.6      2.462      7.083
REMARK  2 active torsions:
REMARK  status: ('A' for Active; 'I' for Inactive)
REMARK    1  A    between atoms: C_9  and  C_10 
REMARK       I    between atoms: C_10  and  N_11 
REMARK    2  A    between atoms: N_11  and  C_12 
ROOT
HETATM    1  C   UNL     1      43.421 -16.161   5.456  1.00  0.00     0.267 C 
HETATM    2  N   UNL     1      44.119 -17.237   5.911  1.00  0.00    -0.156 N 
HETATM    3  O   UNL     1      43.486 -15.093   6.081  1.00  0.00    -0.270 OA
HETATM    4  H   UNL     1      44.627 -17.102   6.778  1.00  0.00     0.187 HD
ENDROOT
BRANCH   1   5
HETATM    5  C   UNL     1      42.539 -16.208   4.190  1.00  0.00     0.282 C 
HETATM    6  N   UNL     1      43.418 -15.851   2.985  1.00  0.00    -0.058 N 
HETATM    7  C   UNL     1      42.700 -15.958   1.695  1.00  0.00     0.272 C 
HETATM    8  H   UNL     1      43.772 -14.895   3.129  1.00  0.00     0.278 HD
HETATM    9  H   UNL     1      44.258 -16.443   3.003  1.00  0.00     0.278 HD
HETATM   10  C   UNL     1      41.367 -15.267   1.713  1.00  0.00    -0.026 A 
HETATM   11  C   UNL     1      40.739 -14.926   2.928  1.00  0.00    -0.048 A 
HETATM   12  C   UNL     1      40.710 -15.006   0.502  1.00  0.00     0.009 A 
HETATM   13  C   UNL     1      39.481 -14.304   2.905  1.00  0.00     0.008 A 
HETATM   14  C   UNL     1      41.418 -15.160   4.258  1.00  0.00     0.082 C 
HETATM   15  C   UNL     1      38.844 -14.044   1.693  1.00  0.00     0.001 A 
HETATM   16  C   UNL     1      39.457 -14.396   0.493  1.00  0.00     0.001 A 
ENDBRANCH   1   5
BRANCH   2  17
HETATM   17  C   UNL     1      44.238 -18.419   5.233  1.00  0.00     0.708 A 
HETATM   18  N   UNL     1      44.099 -18.604   3.943  1.00  0.00    -0.062 NA
HETATM   19  C   UNL     1      44.289 -19.951   3.738  1.00  0.00     0.103 A 
HETATM   20  C   UNL     1      44.561 -20.597   4.939  1.00  0.00     0.078 A 
HETATM   21  C   UNL     1      44.240 -20.695   2.552  1.00  0.00     0.034 A 
HETATM   22  N   UNL     1      44.538 -19.595   5.875  1.00  0.00    -0.188 N 
HETATM   23  C   UNL     1      44.786 -21.971   5.036  1.00  0.00     0.032 A 
HETATM   24  H   UNL     1      44.694 -19.717   6.864  1.00  0.00     0.184 HD
HETATM   25  C   UNL     1      44.729 -22.700   3.842  1.00  0.00     0.002 A 
HETATM   26  C   UNL     1      44.463 -22.076   2.621  1.00  0.00     0.002 A 
ENDBRANCH   2  17
TORSDOF 2
ENDMDL
MODEL 8
REMARK VINA RESULT:      -7.6      2.514      3.957
REMARK  2 active torsions:
REMARK  status: ('A' for Active; 'I' for Inactive)
REMARK    1  A    between atoms: C_9  and  C_10 
REMARK       I    between atoms: C_10  and  N_11 
REMARK    2  A    between atoms: N_11  and  C_12 
ROOT
HETATM    1  C   UNL     1      43.096 -16.986   1.286  1.00  0.00     0.267 C 
HETATM    2  N   UNL     1      42.421 -16.329   0.304  1.00  0.00    -0.156 N 
HETATM    3  O   UNL     1      44.018 -17.753   0.974  1.00  0.00    -0.270 OA
HETATM    4  H   UNL     1      42.697 -16.548  -0.646  1.00  0.00     0.187 HD
ENDROOT
BRANCH   1   5
HETATM    5  C   UNL     1      42.763 -16.825   2.786  1.00  0.00     0.282 C 
HETATM    6  N   UNL     1      43.457 -15.554   3.293  1.00  0.00    -0.058 N 
HETATM    7  C   UNL     1      43.130 -15.242   4.702  1.00  0.00     0.272 C 
HETATM    8  H   UNL     1      44.471 -15.682   3.172  1.00  0.00     0.278 HD
HETATM    9  H   UNL     1      43.219 -14.776   2.665  1.00  0.00     0.278 HD
HETATM   10  C   UNL     1      43.276 -16.429   5.609  1.00  0.00    -0.026 A 
HETATM   11  C   UNL     1      43.323 -17.740   5.093  1.00  0.00    -0.048 A 
HETATM   12  C   UNL     1      43.309 -16.235   6.997  1.00  0.00     0.009 A 
HETATM   13  C   UNL     1      43.434 -18.826   5.975  1.00  0.00     0.008 A 
HETATM   14  C   UNL     1      43.318 -18.000   3.604  1.00  0.00     0.082 C 
HETATM   15  C   UNL     1      43.475 -18.616   7.352  1.00  0.00     0.001 A 
HETATM   16  C   UNL     1      43.411 -17.323   7.863  1.00  0.00     0.001 A 
ENDBRANCH   1   5
BRANCH   2  17
HETATM   17  C   UNL     1      41.486 -15.356   0.532  1.00  0.00     0.708 A 
HETATM   18  N   UNL     1      41.713 -14.098   0.818  1.00  0.00    -0.062 NA
HETATM   19  C   UNL     1      40.474 -13.523   0.977  1.00  0.00     0.103 A 
HETATM   20  C   UNL     1      39.468 -14.460   0.771  1.00  0.00     0.078 A 
HETATM   21  C   UNL     1      40.130 -12.204   1.302  1.00  0.00     0.034 A 
HETATM   22  N   UNL     1      40.140 -15.618   0.474  1.00  0.00    -0.188 N 
HETATM   23  C   UNL     1      38.109 -14.162   0.878  1.00  0.00     0.032 A 
HETATM   24  H   UNL     1      39.708 -16.508   0.270  1.00  0.00     0.184 HD
HETATM   25  C   UNL     1      37.782 -12.841   1.208  1.00  0.00     0.002 A 
HETATM   26  C   UNL     1      38.772 -11.877   1.415  1.00  0.00     0.002 A 
ENDBRANCH   2  17
TORSDOF 2
ENDMDL
MODEL 9
REMARK VINA RESULT:      -7.4      1.833      6.716
REMARK  2 active torsions:
REMARK  status: ('A' for Active; 'I' for Inactive)
REMARK    1  A    between atoms: C_9  and  C_10 
REMARK       I    between atoms: C_10  and  N_11 
REMARK    2  A    between atoms: N_11  and  C_12 
ROOT
HETATM    1  C   UNL     1      41.957 -15.522   4.449  1.00  0.00     0.267 C 
HETATM    2  N   UNL     1      42.677 -16.540   4.992  1.00  0.00    -0.156 N 
HETATM    3  O   UNL     1      41.788 -14.485   5.106  1.00  0.00    -0.270 OA
HETATM    4  H   UNL     1      43.003 -16.396   5.942  1.00  0.00     0.187 HD
ENDROOT
BRANCH   1   5
HETATM    5  C   UNL     1      41.328 -15.598   3.040  1.00  0.00     0.282 C 
HETATM    6  N   UNL     1      42.294 -14.934   2.052  1.00  0.00    -0.058 N 
HETATM    7  C   UNL     1      41.840 -15.033   0.647  1.00  0.00     0.272 C 
HETATM    8  H   UNL     1      42.402 -13.950   2.333  1.00  0.00     0.278 HD
HETATM    9  H   UNL     1      43.229 -15.343   2.179  1.00  0.00     0.278 HD
HETATM   10  C   UNL     1      40.405 -14.631   0.471  1.00  0.00    -0.026 A 
HETATM   11  C   UNL     1      39.525 -14.567   1.570  1.00  0.00    -0.048 A 
HETATM   12  C   UNL     1      39.916 -14.370  -0.817  1.00  0.00     0.009 A 
HETATM   13  C   UNL     1      38.184 -14.212   1.362  1.00  0.00     0.008 A 
HETATM   14  C   UNL     1      40.010 -14.811   2.980  1.00  0.00     0.082 C 
HETATM   15  C   UNL     1      37.714 -13.947   0.077  1.00  0.00     0.001 A 
HETATM   16  C   UNL     1      38.578 -14.027  -1.012  1.00  0.00     0.001 A 
ENDBRANCH   1   5
BRANCH   2  17
HETATM   17  C   UNL     1      43.048 -17.669   4.313  1.00  0.00     0.708 A 
HETATM   18  N   UNL     1      42.672 -18.020   3.108  1.00  0.00    -0.062 NA
HETATM   19  C   UNL     1      43.283 -19.229   2.867  1.00  0.00     0.103 A 
HETATM   20  C   UNL     1      44.058 -19.613   3.954  1.00  0.00     0.078 A 
HETATM   21  C   UNL     1      43.218 -20.059   1.740  1.00  0.00     0.034 A 
HETATM   22  N   UNL     1      43.903 -18.594   4.858  1.00  0.00    -0.188 N 
HETATM   23  C   UNL     1      44.785 -20.804   3.995  1.00  0.00     0.032 A 
HETATM   24  H   UNL     1      44.333 -18.552   5.770  1.00  0.00     0.184 HD
HETATM   25  C   UNL     1      44.706 -21.624   2.863  1.00  0.00     0.002 A 
HETATM   26  C   UNL     1      43.938 -21.260   1.754  1.00  0.00     0.002 A 
ENDBRANCH   2  17
TORSDOF 2
ENDMDL
MODEL 10
REMARK VINA RESULT:      -7.2      1.225      2.067
REMARK  2 active torsions:
REMARK  status: ('A' for Active; 'I' for Inactive)
REMARK    1  A    between atoms: C_9  and  C_10 
REMARK       I    between atoms: C_10  and  N_11 
REMARK    2  A    between atoms: N_11  and  C_12 
ROOT
HETATM    1  C   UNL     1      40.172 -14.522   3.764  1.00  0.00     0.267 C 
HETATM    2  N   UNL     1      39.762 -13.736   2.732  1.00  0.00    -0.156 N 
HETATM    3  O   UNL     1      39.553 -14.480   4.837  1.00  0.00    -0.270 OA
HETATM    4  H   UNL     1      38.981 -13.119   2.927  1.00  0.00     0.187 HD
ENDROOT
BRANCH   1   5
HETATM    5  C   UNL     1      41.387 -15.470   3.664  1.00  0.00     0.282 C 
HETATM    6  N   UNL     1      40.877 -16.854   3.243  1.00  0.00    -0.058 N 
HETATM    7  C   UNL     1      41.969 -17.828   3.020  1.00  0.00     0.272 C 
HETATM    8  H   UNL     1      40.234 -17.186   3.976  1.00  0.00     0.278 HD
HETATM    9  H   UNL     1      40.286 -16.748   2.409  1.00  0.00     0.278 HD
HETATM   10  C   UNL     1      42.964 -17.852   4.144  1.00  0.00    -0.026 A 
HETATM   11  C   UNL     1      43.043 -16.794   5.072  1.00  0.00    -0.048 A 
HETATM   12  C   UNL     1      43.869 -18.919   4.239  1.00  0.00     0.009 A 
HETATM   13  C   UNL     1      44.003 -16.841   6.093  1.00  0.00     0.008 A 
HETATM   14  C   UNL     1      42.071 -15.637   5.029  1.00  0.00     0.082 C 
HETATM   15  C   UNL     1      44.891 -17.912   6.180  1.00  0.00     0.001 A 
HETATM   16  C   UNL     1      44.825 -18.949   5.253  1.00  0.00     0.001 A 
ENDBRANCH   1   5
BRANCH   2  17
HETATM   17  C   UNL     1      40.274 -13.799   1.465  1.00  0.00     0.708 A 
HETATM   18  N   UNL     1      41.169 -13.000   0.938  1.00  0.00    -0.062 NA
HETATM   19  C   UNL     1      41.350 -13.444  -0.352  1.00  0.00     0.103 A 
HETATM   20  C   UNL     1      40.548 -14.550  -0.607  1.00  0.00     0.078 A 
HETATM   21  C   UNL     1      42.182 -12.948  -1.364  1.00  0.00     0.034 A 
HETATM   22  N   UNL     1      39.883 -14.766   0.573  1.00  0.00    -0.188 N 
HETATM   23  C   UNL     1      40.516 -15.205  -1.838  1.00  0.00     0.032 A 
HETATM   24  H   UNL     1      39.209 -15.499   0.738  1.00  0.00     0.184 HD
HETATM   25  C   UNL     1      41.349 -14.695  -2.841  1.00  0.00     0.002 A 
HETATM   26  C   UNL     1      42.169 -13.588  -2.611  1.00  0.00     0.002 A 
ENDBRANCH   2  17
TORSDOF 2
ENDMDL
