MODEL 1
REMARK VINA RESULT:      -9.5      0.000      0.000
REMARK  7 active torsions:
REMARK  status: ('A' for Active; 'I' for Inactive)
REMARK    1  A    between atoms: N_7  and  C_8 
REMARK    2  A    between atoms: C_8  and  C_9 
REMARK       I    between atoms: C_9  and  N_10 
REMARK    3  A    between atoms: N_10  and  C_11 
REMARK    4  A    between atoms: C_11  and  C_12 
REMARK    5  A    between atoms: C_12  and  C_13 
REMARK    6  A    between atoms: C_12  and  C_23 
REMARK    7  A    between atoms: C_26  and  O_27 
ROOT
HETATM    1  C   UNL     1      44.337 -14.817   7.338  1.00  0.00     0.136 C 
ENDROOT
BRANCH   1   2
HETATM    2  N   UNL     1      44.512 -13.391   7.559  1.00  0.00    -0.359 N 
HETATM    3  C   UNL     1      44.573 -12.878   8.841  1.00  0.00     0.236 C 
HETATM    4  O   UNL     1      44.417 -13.568   9.845  1.00  0.00    -0.272 OA
HETATM    5  H   UNL     1      44.880 -12.825   6.798  1.00  0.00     0.162 HD
BRANCH   3   6
HETATM    6  C   UNL     1      44.774 -11.366   8.919  1.00  0.00     0.239 C 
BRANCH   6   7
HETATM    7  N   UNL     1      43.681 -10.738   9.630  1.00  0.00    -0.259 N 
HETATM    8  C   UNL     1      42.524 -10.343   9.053  1.00  0.00     0.326 A 
HETATM    9  N   UNL     1      41.711  -9.804  10.013  1.00  0.00    -0.324 N 
HETATM   10  O   UNL     1      42.241 -10.410   7.868  1.00  0.00    -0.247 OA
HETATM   11  C   UNL     1      42.294  -9.840  11.343  1.00  0.00     0.119 A 
HETATM   12  H   UNL     1      40.804  -9.424   9.775  1.00  0.00     0.165 HD
HETATM   13  C   UNL     1      41.500 -10.774  12.288  1.00  0.00     0.019 C 
HETATM   14  C   UNL     1      43.662 -10.474  10.971  1.00  0.00     0.257 A 
HETATM   15  C   UNL     1      42.479  -8.415  11.880  1.00  0.00     0.041 C 
HETATM   16  C   UNL     1      39.988 -10.500  12.253  1.00  0.00     0.013 C 
HETATM   17  C   UNL     1      42.015 -10.679  13.737  1.00  0.00     0.007 C 
HETATM   18  C   UNL     1      42.102  -9.243  14.245  1.00  0.00     0.001 C 
HETATM   19  C   UNL     1      42.957  -8.374  13.331  1.00  0.00     0.003 C 
HETATM   20  O   UNL     1      44.566 -10.724  11.757  1.00  0.00    -0.270 OA
ENDBRANCH   6   7
ENDBRANCH   3   6
ENDBRANCH   1   2
BRANCH   1  21
HETATM   21  C   UNL     1      43.656 -15.271   6.027  1.00  0.00     0.071 C 
BRANCH  21  22
HETATM   22  C   UNL     1      42.162 -15.049   5.941  1.00  0.00    -0.020 A 
HETATM   23  C   UNL     1      41.523 -13.832   5.498  1.00  0.00    -0.001 A 
HETATM   24  C   UNL     1      40.143 -14.025   5.567  1.00  0.00     0.042 A 
HETATM   25  C   UNL     1      41.996 -12.586   5.034  1.00  0.00     0.014 A 
HETATM   26  C   UNL     1      39.217 -13.040   5.204  1.00  0.00     0.030 A 
HETATM   27  N   UNL     1      39.938 -15.303   6.023  1.00  0.00    -0.365 N 
HETATM   28  C   UNL     1      39.714 -11.817   4.749  1.00  0.00     0.002 A 
HETATM   29  C   UNL     1      41.084 -11.591   4.663  1.00  0.00     0.001 A 
HETATM   30  H   UNL     1      39.031 -15.726   6.154  1.00  0.00     0.165 HD
HETATM   31  C   UNL     1      41.136 -15.926   6.245  1.00  0.00     0.097 A 
ENDBRANCH  21  22
BRANCH  21  32
HETATM   32  C   UNL     1      43.915 -16.693   5.549  1.00  0.00    -0.048 A 
HETATM   33  C   UNL     1      43.559 -17.049   4.237  1.00  0.00     0.011 A 
HETATM   34  C   UNL     1      43.779 -18.343   3.755  1.00  0.00     0.037 A 
HETATM   35  C   UNL     1      44.355 -19.317   4.570  1.00  0.00     0.068 A 
HETATM   36  C   UNL     1      44.704 -18.984   5.876  1.00  0.00     0.037 A 
HETATM   37  C   UNL     1      44.486 -17.687   6.359  1.00  0.00     0.011 A 
BRANCH  35  38
HETATM   38  O   UNL     1      44.514 -20.539   3.977  1.00  0.00    -0.356 OA
HETATM   39  C   UNL     1      44.334 -20.598   2.568  1.00  0.00     0.210 C 
ENDBRANCH  35  38
ENDBRANCH  21  32
ENDBRANCH   1  21
TORSDOF 7
ENDMDL
MODEL 2
REMARK VINA RESULT:      -9.3      4.701      9.761
REMARK  7 active torsions:
REMARK  status: ('A' for Active; 'I' for Inactive)
REMARK    1  A    between atoms: N_7  and  C_8 
REMARK    2  A    between atoms: C_8  and  C_9 
REMARK       I    between atoms: C_9  and  N_10 
REMARK    3  A    between atoms: N_10  and  C_11 
REMARK    4  A    between atoms: C_11  and  C_12 
REMARK    5  A    between atoms: C_12  and  C_13 
REMARK    6  A    between atoms: C_12  and  C_23 
REMARK    7  A    between atoms: C_26  and  O_27 
ROOT
HETATM    1  C   UNL     1      41.236 -17.144   4.478  1.00  0.00     0.136 C 
ENDROOT
BRANCH   1   2
HETATM    2  N   UNL     1      40.486 -16.815   3.278  1.00  0.00    -0.359 N 
HETATM    3  C   UNL     1      40.159 -15.503   2.988  1.00  0.00     0.236 C 
HETATM    4  O   UNL     1      40.416 -14.568   3.742  1.00  0.00    -0.272 OA
HETATM    5  H   UNL     1      40.461 -17.493   2.521  1.00  0.00     0.162 HD
BRANCH   3   6
HETATM    6  C   UNL     1      39.382 -15.306   1.688  1.00  0.00     0.239 C 
BRANCH   6   7
HETATM    7  N   UNL     1      40.242 -14.782   0.649  1.00  0.00    -0.259 N 
HETATM    8  C   UNL     1      41.196 -15.500   0.014  1.00  0.00     0.326 A 
HETATM    9  N   UNL     1      41.807 -14.703  -0.914  1.00  0.00    -0.324 N 
HETATM   10  O   UNL     1      41.505 -16.659   0.239  1.00  0.00    -0.247 OA
HETATM   11  C   UNL     1      41.250 -13.361  -0.972  1.00  0.00     0.119 A 
HETATM   12  H   UNL     1      42.571 -15.050  -1.479  1.00  0.00     0.165 HD
HETATM   13  C   UNL     1      40.555 -13.092  -2.329  1.00  0.00     0.019 C 
HETATM   14  C   UNL     1      40.199 -13.506   0.161  1.00  0.00     0.257 A 
HETATM   15  C   UNL     1      42.319 -12.326  -0.600  1.00  0.00     0.041 C 
HETATM   16  C   UNL     1      41.434 -13.480  -3.529  1.00  0.00     0.013 C 
HETATM   17  C   UNL     1      40.117 -11.620  -2.454  1.00  0.00     0.007 C 
HETATM   18  C   UNL     1      41.243 -10.636  -2.151  1.00  0.00     0.001 C 
HETATM   19  C   UNL     1      41.850 -10.883  -0.775  1.00  0.00     0.003 C 
HETATM   20  O   UNL     1      39.435 -12.627   0.537  1.00  0.00    -0.270 OA
ENDBRANCH   6   7
ENDBRANCH   3   6
ENDBRANCH   1   2
BRANCH   1  21
HETATM   21  C   UNL     1      42.768 -16.934   4.458  1.00  0.00     0.071 C 
BRANCH  21  22
HETATM   22  C   UNL     1      43.613 -18.186   4.544  1.00  0.00    -0.020 A 
HETATM   23  C   UNL     1      43.653 -19.237   3.556  1.00  0.00    -0.001 A 
HETATM   24  C   UNL     1      44.545 -20.211   4.004  1.00  0.00     0.042 A 
HETATM   25  C   UNL     1      43.015 -19.442   2.313  1.00  0.00     0.014 A 
HETATM   26  C   UNL     1      44.827 -21.376   3.281  1.00  0.00     0.030 A 
HETATM   27  N   UNL     1      45.040 -19.779   5.208  1.00  0.00    -0.365 N 
HETATM   28  C   UNL     1      44.182 -21.553   2.055  1.00  0.00     0.002 A 
HETATM   29  C   UNL     1      43.289 -20.600   1.575  1.00  0.00     0.001 A 
HETATM   30  H   UNL     1      45.725 -20.277   5.758  1.00  0.00     0.165 HD
HETATM   31  C   UNL     1      44.496 -18.569   5.540  1.00  0.00     0.097 A 
ENDBRANCH  21  22
BRANCH  21  32
HETATM   32  C   UNL     1      43.360 -15.936   5.443  1.00  0.00    -0.048 A 
HETATM   33  C   UNL     1      43.414 -16.273   6.807  1.00  0.00     0.011 A 
HETATM   34  C   UNL     1      43.948 -15.388   7.748  1.00  0.00     0.037 A 
HETATM   35  C   UNL     1      44.439 -14.143   7.356  1.00  0.00     0.068 A 
HETATM   36  C   UNL     1      44.383 -13.789   6.010  1.00  0.00     0.037 A 
HETATM   37  C   UNL     1      43.849 -14.676   5.066  1.00  0.00     0.011 A 
BRANCH  35  38
HETATM   38  O   UNL     1      44.933 -13.375   8.373  1.00  0.00    -0.356 OA
HETATM   39  C   UNL     1      46.123 -12.644   8.105  1.00  0.00     0.210 C 
ENDBRANCH  35  38
ENDBRANCH  21  32
ENDBRANCH   1  21
TORSDOF 7
ENDMDL
MODEL 3
REMARK VINA RESULT:      -9.3      4.751      8.129
REMARK  7 active torsions:
REMARK  status: ('A' for Active; 'I' for Inactive)
REMARK    1  A    between atoms: N_7  and  C_8 
REMARK    2  A    between atoms: C_8  and  C_9 
REMARK       I    between atoms: C_9  and  N_10 
REMARK    3  A    between atoms: N_10  and  C_11 
REMARK    4  A    between atoms: C_11  and  C_12 
REMARK    5  A    between atoms: C_12  and  C_13 
REMARK    6  A    between atoms: C_12  and  C_23 
REMARK    7  A    between atoms: C_26  and  O_27 
ROOT
HETATM    1  C   UNL     1      41.303 -11.724   2.118  1.00  0.00     0.136 C 
ENDROOT
BRANCH   1   2
HETATM    2  N   UNL     1      41.240 -12.161   3.503  1.00  0.00    -0.359 N 
HETATM    3  C   UNL     1      42.337 -12.745   4.108  1.00  0.00     0.236 C 
HETATM    4  O   UNL     1      43.382 -12.987   3.508  1.00  0.00    -0.272 OA
HETATM    5  H   UNL     1      40.512 -11.777   4.099  1.00  0.00     0.162 HD
BRANCH   3   6
HETATM    6  C   UNL     1      42.131 -13.140   5.568  1.00  0.00     0.239 C 
BRANCH   6   7
HETATM    7  N   UNL     1      42.080 -14.579   5.709  1.00  0.00    -0.259 N 
HETATM    8  C   UNL     1      41.035 -15.346   5.324  1.00  0.00     0.326 A 
HETATM    9  N   UNL     1      41.326 -16.657   5.589  1.00  0.00    -0.324 N 
HETATM   10  O   UNL     1      39.982 -14.956   4.849  1.00  0.00    -0.247 OA
HETATM   11  C   UNL     1      42.648 -16.846   6.162  1.00  0.00     0.119 A 
HETATM   12  H   UNL     1      40.656 -17.390   5.395  1.00  0.00     0.165 HD
HETATM   13  C   UNL     1      43.577 -17.634   5.206  1.00  0.00     0.019 C 
HETATM   14  C   UNL     1      43.077 -15.355   6.233  1.00  0.00     0.257 A 
HETATM   15  C   UNL     1      42.536 -17.451   7.567  1.00  0.00     0.041 C 
HETATM   16  C   UNL     1      42.917 -18.914   4.668  1.00  0.00     0.013 C 
HETATM   17  C   UNL     1      44.917 -17.980   5.882  1.00  0.00     0.007 C 
HETATM   18  C   UNL     1      44.743 -18.653   7.241  1.00  0.00     0.001 C 
HETATM   19  C   UNL     1      43.889 -17.810   8.180  1.00  0.00     0.003 C 
HETATM   20  O   UNL     1      44.146 -14.943   6.661  1.00  0.00    -0.270 OA
ENDBRANCH   6   7
ENDBRANCH   3   6
ENDBRANCH   1   2
BRANCH   1  21
HETATM   21  C   UNL     1      40.358 -12.401   1.099  1.00  0.00     0.071 C 
BRANCH  21  22
HETATM   22  C   UNL     1      39.970 -13.832   1.400  1.00  0.00    -0.020 A 
HETATM   23  C   UNL     1      40.866 -14.963   1.375  1.00  0.00    -0.001 A 
HETATM   24  C   UNL     1      40.129 -16.101   1.704  1.00  0.00     0.042 A 
HETATM   25  C   UNL     1      42.244 -15.120   1.110  1.00  0.00     0.014 A 
HETATM   26  C   UNL     1      40.692 -17.380   1.776  1.00  0.00     0.030 A 
HETATM   27  N   UNL     1      38.839 -15.691   1.931  1.00  0.00    -0.365 N 
HETATM   28  C   UNL     1      42.057 -17.505   1.510  1.00  0.00     0.002 A 
HETATM   29  C   UNL     1      42.825 -16.392   1.182  1.00  0.00     0.001 A 
HETATM   30  H   UNL     1      38.084 -16.302   2.206  1.00  0.00     0.165 HD
HETATM   31  C   UNL     1      38.732 -14.338   1.757  1.00  0.00     0.097 A 
ENDBRANCH  21  22
BRANCH  21  32
HETATM   32  C   UNL     1      40.749 -12.353  -0.371  1.00  0.00    -0.048 A 
HETATM   33  C   UNL     1      42.037 -11.913  -0.722  1.00  0.00     0.011 A 
HETATM   34  C   UNL     1      42.439 -11.852  -2.060  1.00  0.00     0.037 A 
HETATM   35  C   UNL     1      41.568 -12.222  -3.082  1.00  0.00     0.068 A 
HETATM   36  C   UNL     1      40.284 -12.651  -2.754  1.00  0.00     0.037 A 
HETATM   37  C   UNL     1      39.881 -12.714  -1.413  1.00  0.00     0.011 A 
BRANCH  35  38
HETATM   38  O   UNL     1      42.085 -12.116  -4.344  1.00  0.00    -0.356 OA
HETATM   39  C   UNL     1      42.351 -10.803  -4.819  1.00  0.00     0.210 C 
ENDBRANCH  35  38
ENDBRANCH  21  32
ENDBRANCH   1  21
TORSDOF 7
ENDMDL
MODEL 4
REMARK VINA RESULT:      -9.2      2.410      4.102
REMARK  7 active torsions:
REMARK  status: ('A' for Active; 'I' for Inactive)
REMARK    1  A    between atoms: N_7  and  C_8 
REMARK    2  A    between atoms: C_8  and  C_9 
REMARK       I    between atoms: C_9  and  N_10 
REMARK    3  A    between atoms: N_10  and  C_11 
REMARK    4  A    between atoms: C_11  and  C_12 
REMARK    5  A    between atoms: C_12  and  C_13 
REMARK    6  A    between atoms: C_12  and  C_23 
REMARK    7  A    between atoms: C_26  and  O_27 
ROOT
HETATM    1  C   UNL     1      40.091 -13.330   5.077  1.00  0.00     0.136 C 
ENDROOT
BRANCH   1   2
HETATM    2  N   UNL     1      40.393 -12.004   5.589  1.00  0.00    -0.359 N 
HETATM    3  C   UNL     1      39.891 -11.587   6.808  1.00  0.00     0.236 C 
HETATM    4  O   UNL     1      39.123 -12.269   7.483  1.00  0.00    -0.272 OA
HETATM    5  H   UNL     1      41.193 -11.508   5.205  1.00  0.00     0.162 HD
BRANCH   3   6
HETATM    6  C   UNL     1      40.302 -10.177   7.224  1.00  0.00     0.239 C 
BRANCH   6   7
HETATM    7  N   UNL     1      40.351 -10.059   8.665  1.00  0.00    -0.259 N 
HETATM    8  C   UNL     1      39.263  -9.901   9.454  1.00  0.00     0.326 A 
HETATM    9  N   UNL     1      39.668  -9.839  10.760  1.00  0.00    -0.324 N 
HETATM   10  O   UNL     1      38.106  -9.792   9.084  1.00  0.00    -0.247 OA
HETATM   11  C   UNL     1      41.105  -9.988  10.921  1.00  0.00     0.119 A 
HETATM   12  H   UNL     1      39.001  -9.696  11.506  1.00  0.00     0.165 HD
HETATM   13  C   UNL     1      41.460 -11.292  11.677  1.00  0.00     0.019 C 
HETATM   14  C   UNL     1      41.488 -10.105   9.421  1.00  0.00     0.257 A 
HETATM   15  C   UNL     1      41.704  -8.721  11.543  1.00  0.00     0.041 C 
HETATM   16  C   UNL     1      40.643 -11.466  12.967  1.00  0.00     0.013 C 
HETATM   17  C   UNL     1      42.965 -11.364  11.997  1.00  0.00     0.007 C 
HETATM   18  C   UNL     1      43.489 -10.108  12.687  1.00  0.00     0.001 C 
HETATM   19  C   UNL     1      43.189  -8.854  11.875  1.00  0.00     0.003 C 
HETATM   20  O   UNL     1      42.624 -10.245   8.988  1.00  0.00    -0.270 OA
ENDBRANCH   6   7
ENDBRANCH   3   6
ENDBRANCH   1   2
BRANCH   1  21
HETATM   21  C   UNL     1      41.267 -14.202   4.577  1.00  0.00     0.071 C 
BRANCH  21  22
HETATM   22  C   UNL     1      40.981 -15.081   3.379  1.00  0.00    -0.020 A 
HETATM   23  C   UNL     1      41.962 -15.855   2.658  1.00  0.00    -0.001 A 
HETATM   24  C   UNL     1      41.305 -16.522   1.624  1.00  0.00     0.042 A 
HETATM   25  C   UNL     1      43.352 -16.057   2.799  1.00  0.00     0.014 A 
HETATM   26  C   UNL     1      41.962 -17.370   0.725  1.00  0.00     0.030 A 
HETATM   27  N   UNL     1      39.978 -16.182   1.707  1.00  0.00    -0.365 N 
HETATM   28  C   UNL     1      43.337 -17.551   0.889  1.00  0.00     0.002 A 
HETATM   29  C   UNL     1      44.025 -16.905   1.912  1.00  0.00     0.001 A 
HETATM   30  H   UNL     1      39.257 -16.534   1.093  1.00  0.00     0.165 HD
HETATM   31  C   UNL     1      39.770 -15.326   2.754  1.00  0.00     0.097 A 
ENDBRANCH  21  22
BRANCH  21  32
HETATM   32  C   UNL     1      41.989 -15.071   5.596  1.00  0.00    -0.048 A 
HETATM   33  C   UNL     1      41.378 -16.257   6.039  1.00  0.00     0.011 A 
HETATM   34  C   UNL     1      42.005 -17.086   6.974  1.00  0.00     0.037 A 
HETATM   35  C   UNL     1      43.253 -16.753   7.496  1.00  0.00     0.068 A 
HETATM   36  C   UNL     1      43.868 -15.576   7.077  1.00  0.00     0.037 A 
HETATM   37  C   UNL     1      43.242 -14.745   6.138  1.00  0.00     0.011 A 
BRANCH  35  38
HETATM   38  O   UNL     1      43.754 -17.647   8.401  1.00  0.00    -0.356 OA
HETATM   39  C   UNL     1      43.985 -18.970   7.934  1.00  0.00     0.210 C 
ENDBRANCH  35  38
ENDBRANCH  21  32
ENDBRANCH   1  21
TORSDOF 7
ENDMDL
MODEL 5
REMARK VINA RESULT:      -9.2      4.957      7.475
REMARK  7 active torsions:
REMARK  status: ('A' for Active; 'I' for Inactive)
REMARK    1  A    between atoms: N_7  and  C_8 
REMARK    2  A    between atoms: C_8  and  C_9 
REMARK       I    between atoms: C_9  and  N_10 
REMARK    3  A    between atoms: N_10  and  C_11 
REMARK    4  A    between atoms: C_11  and  C_12 
REMARK    5  A    between atoms: C_12  and  C_13 
REMARK    6  A    between atoms: C_12  and  C_23 
REMARK    7  A    between atoms: C_26  and  O_27 
ROOT
HETATM    1  C   UNL     1      42.005 -12.844   1.275  1.00  0.00     0.136 C 
ENDROOT
BRANCH   1   2
HETATM    2  N   UNL     1      41.730 -13.049   2.687  1.00  0.00    -0.359 N 
HETATM    3  C   UNL     1      42.759 -13.285   3.579  1.00  0.00     0.236 C 
HETATM    4  O   UNL     1      43.931 -13.402   3.231  1.00  0.00    -0.272 OA
HETATM    5  H   UNL     1      40.838 -12.731   3.057  1.00  0.00     0.162 HD
BRANCH   3   6
HETATM    6  C   UNL     1      42.322 -13.467   5.031  1.00  0.00     0.239 C 
BRANCH   6   7
HETATM    7  N   UNL     1      42.293 -14.870   5.387  1.00  0.00    -0.259 N 
HETATM    8  C   UNL     1      41.347 -15.742   4.970  1.00  0.00     0.326 A 
HETATM    9  N   UNL     1      41.631 -16.980   5.481  1.00  0.00    -0.324 N 
HETATM   10  O   UNL     1      40.372 -15.486   4.284  1.00  0.00    -0.247 OA
HETATM   11  C   UNL     1      42.849 -17.007   6.273  1.00  0.00     0.119 A 
HETATM   12  H   UNL     1      41.023 -17.769   5.303  1.00  0.00     0.165 HD
HETATM   13  C   UNL     1      43.942 -17.879   5.608  1.00  0.00     0.019 C 
HETATM   14  C   UNL     1      43.215 -15.501   6.173  1.00  0.00     0.257 A 
HETATM   15  C   UNL     1      42.531 -17.399   7.721  1.00  0.00     0.041 C 
HETATM   16  C   UNL     1      43.416 -19.259   5.182  1.00  0.00     0.013 C 
HETATM   17  C   UNL     1      45.166 -18.045   6.528  1.00  0.00     0.007 C 
HETATM   18  C   UNL     1      44.796 -18.514   7.932  1.00  0.00     0.001 C 
HETATM   19  C   UNL     1      43.777 -17.587   8.584  1.00  0.00     0.003 C 
HETATM   20  O   UNL     1      44.189 -14.972   6.692  1.00  0.00    -0.270 OA
ENDBRANCH   6   7
ENDBRANCH   3   6
ENDBRANCH   1   2
BRANCH   1  21
HETATM   21  C   UNL     1      41.632 -13.976   0.290  1.00  0.00     0.071 C 
BRANCH  21  22
HETATM   22  C   UNL     1      40.274 -13.865  -0.368  1.00  0.00    -0.020 A 
HETATM   23  C   UNL     1      39.899 -14.483  -1.617  1.00  0.00    -0.001 A 
HETATM   24  C   UNL     1      38.572 -14.141  -1.882  1.00  0.00     0.042 A 
HETATM   25  C   UNL     1      40.567 -15.313  -2.544  1.00  0.00     0.014 A 
HETATM   26  C   UNL     1      37.885 -14.577  -3.020  1.00  0.00     0.030 A 
HETATM   27  N   UNL     1      38.146 -13.355  -0.841  1.00  0.00    -0.365 N 
HETATM   28  C   UNL     1      38.571 -15.396  -3.919  1.00  0.00     0.002 A 
HETATM   29  C   UNL     1      39.893 -15.762  -3.686  1.00  0.00     0.001 A 
HETATM   30  H   UNL     1      37.214 -12.974  -0.755  1.00  0.00     0.165 HD
HETATM   31  C   UNL     1      39.151 -13.187   0.072  1.00  0.00     0.097 A 
ENDBRANCH  21  22
BRANCH  21  32
HETATM   32  C   UNL     1      41.768 -15.412   0.776  1.00  0.00    -0.048 A 
HETATM   33  C   UNL     1      43.052 -15.950   0.969  1.00  0.00     0.011 A 
HETATM   34  C   UNL     1      43.225 -17.264   1.414  1.00  0.00     0.037 A 
HETATM   35  C   UNL     1      42.124 -18.078   1.674  1.00  0.00     0.068 A 
HETATM   36  C   UNL     1      40.844 -17.565   1.478  1.00  0.00     0.037 A 
HETATM   37  C   UNL     1      40.670 -16.247   1.034  1.00  0.00     0.011 A 
BRANCH  35  38
HETATM   38  O   UNL     1      42.430 -19.339   2.104  1.00  0.00    -0.356 OA
HETATM   39  C   UNL     1      43.707 -19.848   1.740  1.00  0.00     0.210 C 
ENDBRANCH  35  38
ENDBRANCH  21  32
ENDBRANCH   1  21
TORSDOF 7
ENDMDL
MODEL 6
REMARK VINA RESULT:      -9.2      3.137      5.669
REMARK  7 active torsions:
REMARK  status: ('A' for Active; 'I' for Inactive)
REMARK    1  A    between atoms: N_7  and  C_8 
REMARK    2  A    between atoms: C_8  and  C_9 
REMARK       I    between atoms: C_9  and  N_10 
REMARK    3  A    between atoms: N_10  and  C_11 
REMARK    4  A    between atoms: C_11  and  C_12 
REMARK    5  A    between atoms: C_12  and  C_13 
REMARK    6  A    between atoms: C_12  and  C_23 
REMARK    7  A    between atoms: C_26  and  O_27 
ROOT
HETATM    1  C   UNL     1      40.808 -16.518   6.034  1.00  0.00     0.136 C 
ENDROOT
BRANCH   1   2
HETATM    2  N   UNL     1      39.950 -15.362   5.836  1.00  0.00    -0.359 N 
HETATM    3  C   UNL     1      40.481 -14.085   5.814  1.00  0.00     0.236 C 
HETATM    4  O   UNL     1      41.668 -13.851   6.023  1.00  0.00    -0.272 OA
HETATM    5  H   UNL     1      39.030 -15.506   5.428  1.00  0.00     0.162 HD
BRANCH   3   6
HETATM    6  C   UNL     1      39.463 -12.970   5.584  1.00  0.00     0.239 C 
BRANCH   6   7
HETATM    7  N   UNL     1      39.819 -11.786   6.336  1.00  0.00    -0.259 N 
HETATM    8  C   UNL     1      40.445 -10.709   5.810  1.00  0.00     0.326 A 
HETATM    9  N   UNL     1      40.614  -9.771   6.792  1.00  0.00    -0.324 N 
HETATM   10  O   UNL     1      40.838 -10.584   4.662  1.00  0.00    -0.247 OA
HETATM   11  C   UNL     1      40.060 -10.177   8.073  1.00  0.00     0.119 A 
HETATM   12  H   UNL     1      41.089  -8.898   6.603  1.00  0.00     0.165 HD
HETATM   13  C   UNL     1      38.869  -9.279   8.488  1.00  0.00     0.019 C 
HETATM   14  C   UNL     1      39.561 -11.590   7.663  1.00  0.00     0.257 A 
HETATM   15  C   UNL     1      41.171 -10.272   9.126  1.00  0.00     0.041 C 
HETATM   16  C   UNL     1      39.193  -7.780   8.369  1.00  0.00     0.013 C 
HETATM   17  C   UNL     1      38.394  -9.599   9.918  1.00  0.00     0.007 C 
HETATM   18  C   UNL     1      39.530  -9.601  10.937  1.00  0.00     0.001 C 
HETATM   19  C   UNL     1      40.647 -10.556  10.533  1.00  0.00     0.003 C 
HETATM   20  O   UNL     1      39.001 -12.386   8.404  1.00  0.00    -0.270 OA
ENDBRANCH   6   7
ENDBRANCH   3   6
ENDBRANCH   1   2
BRANCH   1  21
HETATM   21  C   UNL     1      41.324 -17.262   4.781  1.00  0.00     0.071 C 
BRANCH  21  22
HETATM   22  C   UNL     1      42.579 -18.087   4.966  1.00  0.00    -0.020 A 
HETATM   23  C   UNL     1      43.153 -18.969   3.978  1.00  0.00    -0.001 A 
HETATM   24  C   UNL     1      44.296 -19.545   4.532  1.00  0.00     0.042 A 
HETATM   25  C   UNL     1      42.806 -19.322   2.656  1.00  0.00     0.014 A 
HETATM   26  C   UNL     1      45.103 -20.454   3.839  1.00  0.00     0.030 A 
HETATM   27  N   UNL     1      44.428 -19.037   5.800  1.00  0.00    -0.365 N 
HETATM   28  C   UNL     1      44.737 -20.784   2.532  1.00  0.00     0.002 A 
HETATM   29  C   UNL     1      43.605 -20.226   1.946  1.00  0.00     0.001 A 
HETATM   30  H   UNL     1      45.181 -19.265   6.433  1.00  0.00     0.165 HD
HETATM   31  C   UNL     1      43.412 -18.162   6.069  1.00  0.00     0.097 A 
ENDBRANCH  21  22
BRANCH  21  32
HETATM   32  C   UNL     1      41.516 -16.455   3.505  1.00  0.00    -0.048 A 
HETATM   33  C   UNL     1      40.558 -16.557   2.481  1.00  0.00     0.011 A 
HETATM   34  C   UNL     1      40.693 -15.834   1.292  1.00  0.00     0.037 A 
HETATM   35  C   UNL     1      41.787 -14.993   1.090  1.00  0.00     0.068 A 
HETATM   36  C   UNL     1      42.750 -14.888   2.090  1.00  0.00     0.037 A 
HETATM   37  C   UNL     1      42.615 -15.611   3.283  1.00  0.00     0.011 A 
BRANCH  35  38
HETATM   38  O   UNL     1      41.798 -14.345  -0.113  1.00  0.00    -0.356 OA
HETATM   39  C   UNL     1      41.008 -14.908  -1.153  1.00  0.00     0.210 C 
ENDBRANCH  35  38
ENDBRANCH  21  32
ENDBRANCH   1  21
TORSDOF 7
ENDMDL
MODEL 7
REMARK VINA RESULT:      -9.1      5.145      9.079
REMARK  7 active torsions:
REMARK  status: ('A' for Active; 'I' for Inactive)
REMARK    1  A    between atoms: N_7  and  C_8 
REMARK    2  A    between atoms: C_8  and  C_9 
REMARK       I    between atoms: C_9  and  N_10 
REMARK    3  A    between atoms: N_10  and  C_11 
REMARK    4  A    between atoms: C_11  and  C_12 
REMARK    5  A    between atoms: C_12  and  C_13 
REMARK    6  A    between atoms: C_12  and  C_23 
REMARK    7  A    between atoms: C_26  and  O_27 
ROOT
HETATM    1  C   UNL     1      41.060 -17.164   1.427  1.00  0.00     0.136 C 
ENDROOT
BRANCH   1   2
HETATM    2  N   UNL     1      40.195 -16.073   1.012  1.00  0.00    -0.359 N 
HETATM    3  C   UNL     1      40.649 -15.107   0.133  1.00  0.00     0.236 C 
HETATM    4  O   UNL     1      41.804 -15.075  -0.286  1.00  0.00    -0.272 OA
HETATM    5  H   UNL     1      39.191 -16.180   1.128  1.00  0.00     0.162 HD
BRANCH   3   6
HETATM    6  C   UNL     1      39.627 -14.030  -0.224  1.00  0.00     0.239 C 
BRANCH   6   7
HETATM    7  N   UNL     1      40.265 -12.738  -0.354  1.00  0.00    -0.259 N 
HETATM    8  C   UNL     1      40.659 -11.974   0.690  1.00  0.00     0.326 A 
HETATM    9  N   UNL     1      41.235 -10.829   0.210  1.00  0.00    -0.324 N 
HETATM   10  O   UNL     1      40.505 -12.224   1.874  1.00  0.00    -0.247 OA
HETATM   11  C   UNL     1      41.285 -10.780  -1.242  1.00  0.00     0.119 A 
HETATM   12  H   UNL     1      41.573 -10.112   0.838  1.00  0.00     0.165 HD
HETATM   13  C   UNL     1      42.743 -10.814  -1.762  1.00  0.00     0.019 C 
HETATM   14  C   UNL     1      40.568 -12.125  -1.537  1.00  0.00     0.257 A 
HETATM   15  C   UNL     1      40.463  -9.594  -1.761  1.00  0.00     0.041 C 
HETATM   16  C   UNL     1      43.647  -9.797  -1.048  1.00  0.00     0.013 C 
HETATM   17  C   UNL     1      42.802 -10.590  -3.285  1.00  0.00     0.007 C 
HETATM   18  C   UNL     1      42.033  -9.351  -3.735  1.00  0.00     0.001 C 
HETATM   19  C   UNL     1      40.582  -9.391  -3.271  1.00  0.00     0.003 C 
HETATM   20  O   UNL     1      40.337 -12.576  -2.651  1.00  0.00    -0.270 OA
ENDBRANCH   6   7
ENDBRANCH   3   6
ENDBRANCH   1   2
BRANCH   1  21
HETATM   21  C   UNL     1      41.658 -17.116   2.852  1.00  0.00     0.071 C 
BRANCH  21  22
HETATM   22  C   UNL     1      42.229 -15.786   3.290  1.00  0.00    -0.020 A 
HETATM   23  C   UNL     1      41.606 -14.874   4.219  1.00  0.00    -0.001 A 
HETATM   24  C   UNL     1      42.442 -13.766   4.357  1.00  0.00     0.042 A 
HETATM   25  C   UNL     1      40.407 -14.898   4.965  1.00  0.00     0.014 A 
HETATM   26  C   UNL     1      42.141 -12.683   5.191  1.00  0.00     0.030 A 
HETATM   27  N   UNL     1      43.534 -13.986   3.556  1.00  0.00    -0.365 N 
HETATM   28  C   UNL     1      40.949 -12.734   5.917  1.00  0.00     0.002 A 
HETATM   29  C   UNL     1      40.092 -13.825   5.808  1.00  0.00     0.001 A 
HETATM   30  H   UNL     1      44.317 -13.354   3.470  1.00  0.00     0.165 HD
HETATM   31  C   UNL     1      43.422 -15.190   2.918  1.00  0.00     0.097 A 
ENDBRANCH  21  22
BRANCH  21  32
HETATM   32  C   UNL     1      42.681 -18.178   3.227  1.00  0.00    -0.048 A 
HETATM   33  C   UNL     1      43.003 -18.370   4.581  1.00  0.00     0.011 A 
HETATM   34  C   UNL     1      43.938 -19.333   4.972  1.00  0.00     0.037 A 
HETATM   35  C   UNL     1      44.579 -20.128   4.024  1.00  0.00     0.068 A 
HETATM   36  C   UNL     1      44.280 -19.945   2.676  1.00  0.00     0.037 A 
HETATM   37  C   UNL     1      43.342 -18.981   2.284  1.00  0.00     0.011 A 
BRANCH  35  38
HETATM   38  O   UNL     1      45.469 -21.030   4.538  1.00  0.00    -0.356 OA
HETATM   39  C   UNL     1      44.934 -22.259   5.013  1.00  0.00     0.210 C 
ENDBRANCH  35  38
ENDBRANCH  21  32
ENDBRANCH   1  21
TORSDOF 7
ENDMDL
MODEL 8
REMARK VINA RESULT:      -9.1      5.486      9.020
REMARK  7 active torsions:
REMARK  status: ('A' for Active; 'I' for Inactive)
REMARK    1  A    between atoms: N_7  and  C_8 
REMARK    2  A    between atoms: C_8  and  C_9 
REMARK       I    between atoms: C_9  and  N_10 
REMARK    3  A    between atoms: N_10  and  C_11 
REMARK    4  A    between atoms: C_11  and  C_12 
REMARK    5  A    between atoms: C_12  and  C_13 
REMARK    6  A    between atoms: C_12  and  C_23 
REMARK    7  A    between atoms: C_26  and  O_27 
ROOT
HETATM    1  C   UNL     1      42.853 -17.598   1.369  1.00  0.00     0.136 C 
ENDROOT
BRANCH   1   2
HETATM    2  N   UNL     1      42.603 -16.592   0.351  1.00  0.00    -0.359 N 
HETATM    3  C   UNL     1      41.392 -15.926   0.299  1.00  0.00     0.236 C 
HETATM    4  O   UNL     1      40.454 -16.186   1.048  1.00  0.00    -0.272 OA
HETATM    5  H   UNL     1      43.399 -16.175  -0.124  1.00  0.00     0.162 HD
BRANCH   3   6
HETATM    6  C   UNL     1      41.277 -14.888  -0.815  1.00  0.00     0.239 C 
BRANCH   6   7
HETATM    7  N   UNL     1      40.538 -13.729  -0.363  1.00  0.00    -0.259 N 
HETATM    8  C   UNL     1      39.236 -13.498  -0.646  1.00  0.00     0.326 A 
HETATM    9  N   UNL     1      38.855 -12.324  -0.053  1.00  0.00    -0.324 N 
HETATM   10  O   UNL     1      38.509 -14.186  -1.342  1.00  0.00    -0.247 OA
HETATM   11  C   UNL     1      39.919 -11.699   0.714  1.00  0.00     0.119 A 
HETATM   12  H   UNL     1      37.918 -11.962  -0.168  1.00  0.00     0.165 HD
HETATM   13  C   UNL     1      39.592 -11.675   2.227  1.00  0.00     0.019 C 
HETATM   14  C   UNL     1      41.045 -12.726   0.415  1.00  0.00     0.257 A 
HETATM   15  C   UNL     1      40.260 -10.324   0.126  1.00  0.00     0.041 C 
HETATM   16  C   UNL     1      38.182 -11.134   2.517  1.00  0.00     0.013 C 
HETATM   17  C   UNL     1      40.636 -10.863   3.016  1.00  0.00     0.007 C 
HETATM   18  C   UNL     1      40.876  -9.474   2.432  1.00  0.00     0.001 C 
HETATM   19  C   UNL     1      41.273  -9.543   0.962  1.00  0.00     0.003 C 
HETATM   20  O   UNL     1      42.193 -12.662   0.833  1.00  0.00    -0.270 OA
ENDBRANCH   6   7
ENDBRANCH   3   6
ENDBRANCH   1   2
BRANCH   1  21
HETATM   21  C   UNL     1      43.603 -17.164   2.650  1.00  0.00     0.071 C 
BRANCH  21  22
HETATM   22  C   UNL     1      44.012 -18.277   3.590  1.00  0.00    -0.020 A 
HETATM   23  C   UNL     1      44.127 -19.671   3.235  1.00  0.00    -0.001 A 
HETATM   24  C   UNL     1      44.522 -20.372   4.375  1.00  0.00     0.042 A 
HETATM   25  C   UNL     1      43.938 -20.400   2.040  1.00  0.00     0.014 A 
HETATM   26  C   UNL     1      44.732 -21.755   4.384  1.00  0.00     0.030 A 
HETATM   27  N   UNL     1      44.654 -19.452   5.385  1.00  0.00    -0.365 N 
HETATM   28  C   UNL     1      44.539 -22.450   3.188  1.00  0.00     0.002 A 
HETATM   29  C   UNL     1      44.148 -21.784   2.030  1.00  0.00     0.001 A 
HETATM   30  H   UNL     1      44.948 -19.674   6.325  1.00  0.00     0.165 HD
HETATM   31  C   UNL     1      44.357 -18.198   4.928  1.00  0.00     0.097 A 
ENDBRANCH  21  22
BRANCH  21  32
HETATM   32  C   UNL     1      42.973 -16.075   3.506  1.00  0.00    -0.048 A 
HETATM   33  C   UNL     1      41.785 -16.355   4.203  1.00  0.00     0.011 A 
HETATM   34  C   UNL     1      41.171 -15.385   5.002  1.00  0.00     0.037 A 
HETATM   35  C   UNL     1      41.722 -14.111   5.123  1.00  0.00     0.068 A 
HETATM   36  C   UNL     1      42.893 -13.813   4.431  1.00  0.00     0.037 A 
HETATM   37  C   UNL     1      43.510 -14.785   3.632  1.00  0.00     0.011 A 
BRANCH  35  38
HETATM   38  O   UNL     1      41.024 -13.259   5.933  1.00  0.00    -0.356 OA
HETATM   39  C   UNL     1      39.611 -13.241   5.779  1.00  0.00     0.210 C 
ENDBRANCH  35  38
ENDBRANCH  21  32
ENDBRANCH   1  21
TORSDOF 7
ENDMDL
MODEL 9
REMARK VINA RESULT:      -9.0      5.063      9.722
REMARK  7 active torsions:
REMARK  status: ('A' for Active; 'I' for Inactive)
REMARK    1  A    between atoms: N_7  and  C_8 
REMARK    2  A    between atoms: C_8  and  C_9 
REMARK       I    between atoms: C_9  and  N_10 
REMARK    3  A    between atoms: N_10  and  C_11 
REMARK    4  A    between atoms: C_11  and  C_12 
REMARK    5  A    between atoms: C_12  and  C_13 
REMARK    6  A    between atoms: C_12  and  C_23 
REMARK    7  A    between atoms: C_26  and  O_27 
ROOT
HETATM    1  C   UNL     1      42.817 -17.661   1.524  1.00  0.00     0.136 C 
ENDROOT
BRANCH   1   2
HETATM    2  N   UNL     1      42.610 -16.653   0.497  1.00  0.00    -0.359 N 
HETATM    3  C   UNL     1      41.400 -15.993   0.391  1.00  0.00     0.236 C 
HETATM    4  O   UNL     1      40.429 -16.259   1.095  1.00  0.00    -0.272 OA
HETATM    5  H   UNL     1      43.426 -16.232   0.061  1.00  0.00     0.162 HD
BRANCH   3   6
HETATM    6  C   UNL     1      41.332 -14.952  -0.724  1.00  0.00     0.239 C 
BRANCH   6   7
HETATM    7  N   UNL     1      40.689 -13.741  -0.259  1.00  0.00    -0.259 N 
HETATM    8  C   UNL     1      41.295 -12.802   0.502  1.00  0.00     0.326 A 
HETATM    9  N   UNL     1      40.407 -11.790   0.747  1.00  0.00    -0.324 N 
HETATM   10  O   UNL     1      42.432 -12.843   0.942  1.00  0.00    -0.247 OA
HETATM   11  C   UNL     1      39.117 -11.994   0.110  1.00  0.00     0.119 A 
HETATM   12  H   UNL     1      40.663 -10.999   1.323  1.00  0.00     0.165 HD
HETATM   13  C   UNL     1      38.846 -10.931  -0.983  1.00  0.00     0.019 C 
HETATM   14  C   UNL     1      39.401 -13.378  -0.534  1.00  0.00     0.257 A 
HETATM   15  C   UNL     1      38.012 -12.099   1.169  1.00  0.00     0.041 C 
HETATM   16  C   UNL     1      39.103  -9.498  -0.486  1.00  0.00     0.013 C 
HETATM   17  C   UNL     1      37.413 -11.044  -1.535  1.00  0.00     0.007 C 
HETATM   18  C   UNL     1      36.351 -11.063  -0.439  1.00  0.00     0.001 C 
HETATM   19  C   UNL     1      36.608 -12.173   0.573  1.00  0.00     0.003 C 
HETATM   20  O   UNL     1      38.608 -14.025  -1.204  1.00  0.00    -0.270 OA
ENDBRANCH   6   7
ENDBRANCH   3   6
ENDBRANCH   1   2
BRANCH   1  21
HETATM   21  C   UNL     1      43.517 -17.230   2.834  1.00  0.00     0.071 C 
BRANCH  21  22
HETATM   22  C   UNL     1      43.983 -18.350   3.738  1.00  0.00    -0.020 A 
HETATM   23  C   UNL     1      44.107 -19.736   3.355  1.00  0.00    -0.001 A 
HETATM   24  C   UNL     1      44.561 -20.448   4.466  1.00  0.00     0.042 A 
HETATM   25  C   UNL     1      43.880 -20.449   2.158  1.00  0.00     0.014 A 
HETATM   26  C   UNL     1      44.795 -21.827   4.444  1.00  0.00     0.030 A 
HETATM   27  N   UNL     1      44.720 -19.542   5.485  1.00  0.00    -0.365 N 
HETATM   28  C   UNL     1      44.563 -22.507   3.246  1.00  0.00     0.002 A 
HETATM   29  C   UNL     1      44.113 -21.829   2.116  1.00  0.00     0.001 A 
HETATM   30  H   UNL     1      45.057 -19.773   6.408  1.00  0.00     0.165 HD
HETATM   31  C   UNL     1      44.383 -18.286   5.062  1.00  0.00     0.097 A 
ENDBRANCH  21  22
BRANCH  21  32
HETATM   32  C   UNL     1      42.803 -16.220   3.720  1.00  0.00    -0.048 A 
HETATM   33  C   UNL     1      43.352 -14.934   3.871  1.00  0.00     0.011 A 
HETATM   34  C   UNL     1      42.731 -13.974   4.675  1.00  0.00     0.037 A 
HETATM   35  C   UNL     1      41.550 -14.270   5.353  1.00  0.00     0.068 A 
HETATM   36  C   UNL     1      40.997 -15.542   5.223  1.00  0.00     0.037 A 
HETATM   37  C   UNL     1      41.619 -16.505   4.416  1.00  0.00     0.011 A 
BRANCH  35  38
HETATM   38  O   UNL     1      41.046 -13.244   6.103  1.00  0.00    -0.356 OA
HETATM   39  C   UNL     1      41.470 -11.931   5.761  1.00  0.00     0.210 C 
ENDBRANCH  35  38
ENDBRANCH  21  32
ENDBRANCH   1  21
TORSDOF 7
ENDMDL
MODEL 10
REMARK VINA RESULT:      -9.0      5.752      9.870
REMARK  7 active torsions:
REMARK  status: ('A' for Active; 'I' for Inactive)
REMARK    1  A    between atoms: N_7  and  C_8 
REMARK    2  A    between atoms: C_8  and  C_9 
REMARK       I    between atoms: C_9  and  N_10 
REMARK    3  A    between atoms: N_10  and  C_11 
REMARK    4  A    between atoms: C_11  and  C_12 
REMARK    5  A    between atoms: C_12  and  C_13 
REMARK    6  A    between atoms: C_12  and  C_23 
REMARK    7  A    between atoms: C_26  and  O_27 
ROOT
HETATM    1  C   UNL     1      41.201 -16.954   1.329  1.00  0.00     0.136 C 
ENDROOT
BRANCH   1   2
HETATM    2  N   UNL     1      40.239 -15.981   0.840  1.00  0.00    -0.359 N 
HETATM    3  C   UNL     1      40.634 -14.965  -0.011  1.00  0.00     0.236 C 
HETATM    4  O   UNL     1      41.804 -14.788  -0.341  1.00  0.00    -0.272 OA
HETATM    5  H   UNL     1      39.250 -16.214   0.881  1.00  0.00     0.162 HD
BRANCH   3   6
HETATM    6  C   UNL     1      39.515 -14.027  -0.454  1.00  0.00     0.239 C 
BRANCH   6   7
HETATM    7  N   UNL     1      39.869 -13.347  -1.682  1.00  0.00    -0.259 N 
HETATM    8  C   UNL     1      39.644 -13.843  -2.920  1.00  0.00     0.326 A 
HETATM    9  N   UNL     1      40.088 -12.940  -3.847  1.00  0.00    -0.324 N 
HETATM   10  O   UNL     1      39.160 -14.929  -3.192  1.00  0.00    -0.247 OA
HETATM   11  C   UNL     1      40.629 -11.729  -3.252  1.00  0.00     0.119 A 
HETATM   12  H   UNL     1      40.032 -13.138  -4.836  1.00  0.00     0.165 HD
HETATM   13  C   UNL     1      39.764 -10.491  -3.593  1.00  0.00     0.019 C 
HETATM   14  C   UNL     1      40.461 -12.118  -1.758  1.00  0.00     0.257 A 
HETATM   15  C   UNL     1      42.112 -11.575  -3.615  1.00  0.00     0.041 C 
HETATM   16  C   UNL     1      39.448 -10.390  -5.095  1.00  0.00     0.013 C 
HETATM   17  C   UNL     1      40.428  -9.189  -3.109  1.00  0.00     0.007 C 
HETATM   18  C   UNL     1      41.877  -9.053  -3.567  1.00  0.00     0.001 C 
HETATM   19  C   UNL     1      42.716 -10.253  -3.145  1.00  0.00     0.003 C 
HETATM   20  O   UNL     1      40.780 -11.422  -0.804  1.00  0.00    -0.270 OA
ENDBRANCH   6   7
ENDBRANCH   3   6
ENDBRANCH   1   2
BRANCH   1  21
HETATM   21  C   UNL     1      41.631 -16.869   2.812  1.00  0.00     0.071 C 
BRANCH  21  22
HETATM   22  C   UNL     1      42.158 -15.529   3.276  1.00  0.00    -0.020 A 
HETATM   23  C   UNL     1      41.500 -14.653   4.215  1.00  0.00    -0.001 A 
HETATM   24  C   UNL     1      42.300 -13.521   4.377  1.00  0.00     0.042 A 
HETATM   25  C   UNL     1      40.297 -14.725   4.951  1.00  0.00     0.014 A 
HETATM   26  C   UNL     1      41.960 -12.463   5.226  1.00  0.00     0.030 A 
HETATM   27  N   UNL     1      43.405 -13.694   3.582  1.00  0.00    -0.365 N 
HETATM   28  C   UNL     1      40.764 -12.562   5.942  1.00  0.00     0.002 A 
HETATM   29  C   UNL     1      39.943 -13.677   5.809  1.00  0.00     0.001 A 
HETATM   30  H   UNL     1      44.168 -13.037   3.512  1.00  0.00     0.165 HD
HETATM   31  C   UNL     1      43.334 -14.891   2.923  1.00  0.00     0.097 A 
ENDBRANCH  21  22
BRANCH  21  32
HETATM   32  C   UNL     1      42.597 -17.924   3.331  1.00  0.00    -0.048 A 
HETATM   33  C   UNL     1      43.215 -18.795   2.417  1.00  0.00     0.011 A 
HETATM   34  C   UNL     1      44.109 -19.779   2.848  1.00  0.00     0.037 A 
HETATM   35  C   UNL     1      44.408 -19.925   4.202  1.00  0.00     0.068 A 
HETATM   36  C   UNL     1      43.797 -19.077   5.123  1.00  0.00     0.037 A 
HETATM   37  C   UNL     1      42.902 -18.089   4.691  1.00  0.00     0.011 A 
BRANCH  35  38
HETATM   38  O   UNL     1      45.297 -20.923   4.490  1.00  0.00    -0.356 OA
HETATM   39  C   UNL     1      44.773 -22.243   4.573  1.00  0.00     0.210 C 
ENDBRANCH  35  38
ENDBRANCH  21  32
ENDBRANCH   1  21
TORSDOF 7
ENDMDL
