MODEL 1
REMARK VINA RESULT:      -8.5      0.000      0.000
REMARK  6 active torsions:
REMARK  status: ('A' for Active; 'I' for Inactive)
REMARK    1  A    between atoms: C_3  and  C_4 
REMARK    2  A    between atoms: C_4  and  N_5 
REMARK    3  A    between atoms: C_4  and  C_9 
REMARK       I    between atoms: N_5  and  C_6 
REMARK       I    between atoms: C_6  and  N_7 
REMARK    4  A    between atoms: C_9  and  C_10 
REMARK       I    between atoms: C_10  and  N_11 
REMARK    5  A    between atoms: N_11  and  C_12 
REMARK    6  A    between atoms: C_14  and  C_15 
ROOT
HETATM    1  C   UNL     1      41.115 -17.008   4.902  1.00  0.00     0.133 C 
ENDROOT
BRANCH   1   2
HETATM    2  C   UNL     1      42.645 -16.974   4.841  1.00  0.00     0.128 C 
BRANCH   2   3
HETATM    3  C   UNL     1      43.311 -18.180   4.173  1.00  0.00    -0.029 A 
HETATM    4  C   UNL     1      44.233 -19.054   4.793  1.00  0.00    -0.054 A 
HETATM    5  C   UNL     1      44.740 -18.885   6.199  1.00  0.00     0.049 C 
HETATM    6  C   UNL     1      44.747 -20.145   4.061  1.00  0.00     0.007 A 
HETATM    7  C   UNL     1      44.342 -20.398   2.751  1.00  0.00     0.001 A 
HETATM    8  C   UNL     1      43.426 -19.555   2.142  1.00  0.00     0.001 A 
HETATM    9  C   UNL     1      42.920 -18.461   2.842  1.00  0.00     0.010 A 
ENDBRANCH   2   3
BRANCH   2  10
HETATM   10  N   UNL     1      43.250 -15.736   4.348  1.00  0.00    -0.339 N 
HETATM   11  C   UNL     1      43.660 -14.678   5.093  1.00  0.00     0.292 C 
HETATM   12  N   UNL     1      44.160 -13.676   4.326  1.00  0.00    -0.254 NA
HETATM   13  O   UNL     1      43.614 -14.578   6.309  1.00  0.00    -0.254 OA
HETATM   14  H   UNL     1      44.702 -13.951   3.521  1.00  0.00     0.128 HD
HETATM   15  H   UNL     1      44.572 -12.931   4.873  1.00  0.00     0.128 HD
HETATM   16  H   UNL     1      43.087 -15.533   3.372  1.00  0.00     0.164 HD
ENDBRANCH   2  10
ENDBRANCH   1   2
BRANCH   1  17
HETATM   17  C   UNL     1      40.514 -15.884   4.084  1.00  0.00     0.224 C 
HETATM   18  N   UNL     1      40.204 -16.255   2.790  1.00  0.00    -0.327 N 
HETATM   19  H   UNL     1      40.189 -17.248   2.592  1.00  0.00     0.169 HD
HETATM   20  O   UNL     1      40.343 -14.775   4.585  1.00  0.00    -0.273 OA
BRANCH  18  21
HETATM   21  C   UNL     1      39.855 -15.405   1.719  1.00  0.00     0.035 A 
HETATM   22  C   UNL     1      40.730 -15.066   0.681  1.00  0.00     0.042 A 
HETATM   23  C   UNL     1      40.308 -14.260  -0.390  1.00  0.00    -0.021 A 
HETATM   24  C   UNL     1      38.990 -13.790  -0.405  1.00  0.00     0.012 A 
HETATM   25  C   UNL     1      38.111 -14.120   0.628  1.00  0.00     0.003 A 
HETATM   26  C   UNL     1      38.541 -14.927   1.681  1.00  0.00     0.029 A 
BRANCH  23  27
HETATM   27  C   UNL     1      41.209 -13.935  -1.485  1.00  0.00     0.010 A 
HETATM   28  C   UNL     1      42.181 -12.913  -1.615  1.00  0.00     0.152 A 
HETATM   29  N   UNL     1      42.819 -12.948  -2.788  1.00  0.00    -0.187 NA
HETATM   30  N   UNL     1      42.253 -13.989  -3.419  1.00  0.00    -0.289 N 
HETATM   31  H   UNL     1      42.575 -14.219  -4.353  1.00  0.00     0.188 HD
HETATM   32  C   UNL     1      41.292 -14.615  -2.682  1.00  0.00     0.123 A 
ENDBRANCH  23  27
ENDBRANCH  18  21
ENDBRANCH   1  17
TORSDOF 6
ENDMDL
MODEL 2
REMARK VINA RESULT:      -8.3      2.472      8.138
REMARK  6 active torsions:
REMARK  status: ('A' for Active; 'I' for Inactive)
REMARK    1  A    between atoms: C_3  and  C_4 
REMARK    2  A    between atoms: C_4  and  N_5 
REMARK    3  A    between atoms: C_4  and  C_9 
REMARK       I    between atoms: N_5  and  C_6 
REMARK       I    between atoms: C_6  and  N_7 
REMARK    4  A    between atoms: C_9  and  C_10 
REMARK       I    between atoms: C_10  and  N_11 
REMARK    5  A    between atoms: N_11  and  C_12 
REMARK    6  A    between atoms: C_14  and  C_15 
ROOT
HETATM    1  C   UNL     1      41.731 -16.226  -0.088  1.00  0.00     0.133 C 
ENDROOT
BRANCH   1   2
HETATM    2  C   UNL     1      41.091 -14.849   0.111  1.00  0.00     0.128 C 
BRANCH   2   3
HETATM    3  C   UNL     1      41.642 -13.725  -0.771  1.00  0.00    -0.029 A 
HETATM    4  C   UNL     1      41.663 -13.729  -2.185  1.00  0.00    -0.054 A 
HETATM    5  C   UNL     1      41.195 -14.880  -3.032  1.00  0.00     0.049 C 
HETATM    6  C   UNL     1      42.178 -12.608  -2.868  1.00  0.00     0.007 A 
HETATM    7  C   UNL     1      42.636 -11.484  -2.182  1.00  0.00     0.001 A 
HETATM    8  C   UNL     1      42.603 -11.466  -0.797  1.00  0.00     0.001 A 
HETATM    9  C   UNL     1      42.115 -12.572  -0.102  1.00  0.00     0.010 A 
ENDBRANCH   2   3
BRANCH   2  10
HETATM   10  N   UNL     1      39.628 -14.805   0.114  1.00  0.00    -0.339 N 
HETATM   11  C   UNL     1      38.824 -14.586   1.186  1.00  0.00     0.292 C 
HETATM   12  N   UNL     1      37.508 -14.629   0.854  1.00  0.00    -0.254 NA
HETATM   13  O   UNL     1      39.177 -14.368   2.333  1.00  0.00    -0.254 OA
HETATM   14  H   UNL     1      37.254 -14.238  -0.041  1.00  0.00     0.128 HD
HETATM   15  H   UNL     1      36.901 -14.355   1.616  1.00  0.00     0.128 HD
HETATM   16  H   UNL     1      39.179 -15.253  -0.671  1.00  0.00     0.164 HD
ENDBRANCH   2  10
ENDBRANCH   1   2
BRANCH   1  17
HETATM   17  C   UNL     1      41.813 -16.981   1.222  1.00  0.00     0.224 C 
HETATM   18  N   UNL     1      43.096 -17.056   1.731  1.00  0.00    -0.327 N 
HETATM   19  H   UNL     1      43.783 -16.433   1.325  1.00  0.00     0.169 HD
HETATM   20  O   UNL     1      40.799 -17.452   1.731  1.00  0.00    -0.273 OA
BRANCH  18  21
HETATM   21  C   UNL     1      43.547 -17.870   2.790  1.00  0.00     0.035 A 
HETATM   22  C   UNL     1      43.495 -17.492   4.136  1.00  0.00     0.042 A 
HETATM   23  C   UNL     1      43.907 -18.370   5.154  1.00  0.00    -0.021 A 
HETATM   24  C   UNL     1      44.381 -19.639   4.802  1.00  0.00     0.012 A 
HETATM   25  C   UNL     1      44.439 -20.024   3.461  1.00  0.00     0.003 A 
HETATM   26  C   UNL     1      44.020 -19.146   2.462  1.00  0.00     0.029 A 
BRANCH  23  27
HETATM   27  C   UNL     1      43.823 -17.986   6.555  1.00  0.00     0.010 A 
HETATM   28  C   UNL     1      43.565 -16.732   7.160  1.00  0.00     0.152 A 
HETATM   29  N   UNL     1      43.565 -16.790   8.495  1.00  0.00    -0.187 NA
HETATM   30  N   UNL     1      43.828 -18.081   8.751  1.00  0.00    -0.289 N 
HETATM   31  H   UNL     1      43.885 -18.378   9.719  1.00  0.00     0.188 HD
HETATM   32  C   UNL     1      43.985 -18.838   7.627  1.00  0.00     0.123 A 
ENDBRANCH  23  27
ENDBRANCH  18  21
ENDBRANCH   1  17
TORSDOF 6
ENDMDL
MODEL 3
REMARK VINA RESULT:      -8.0      1.847      2.912
REMARK  6 active torsions:
REMARK  status: ('A' for Active; 'I' for Inactive)
REMARK    1  A    between atoms: C_3  and  C_4 
REMARK    2  A    between atoms: C_4  and  N_5 
REMARK    3  A    between atoms: C_4  and  C_9 
REMARK       I    between atoms: N_5  and  C_6 
REMARK       I    between atoms: C_6  and  N_7 
REMARK    4  A    between atoms: C_9  and  C_10 
REMARK       I    between atoms: C_10  and  N_11 
REMARK    5  A    between atoms: N_11  and  C_12 
REMARK    6  A    between atoms: C_14  and  C_15 
ROOT
HETATM    1  C   UNL     1      40.730 -17.048   2.402  1.00  0.00     0.133 C 
ENDROOT
BRANCH   1   2
HETATM    2  C   UNL     1      41.890 -16.754   3.358  1.00  0.00     0.128 C 
BRANCH   2   3
HETATM    3  C   UNL     1      42.827 -17.929   3.648  1.00  0.00    -0.029 A 
HETATM    4  C   UNL     1      43.695 -18.536   2.711  1.00  0.00    -0.054 A 
HETATM    5  C   UNL     1      43.777 -18.143   1.262  1.00  0.00     0.049 C 
HETATM    6  C   UNL     1      44.526 -19.596   3.129  1.00  0.00     0.007 A 
HETATM    7  C   UNL     1      44.533 -20.039   4.450  1.00  0.00     0.001 A 
HETATM    8  C   UNL     1      43.697 -19.438   5.378  1.00  0.00     0.001 A 
HETATM    9  C   UNL     1      42.855 -18.401   4.982  1.00  0.00     0.010 A 
ENDBRANCH   2   3
BRANCH   2  10
HETATM   10  N   UNL     1      42.675 -15.550   3.079  1.00  0.00    -0.339 N 
HETATM   11  C   UNL     1      43.124 -14.644   3.985  1.00  0.00     0.292 C 
HETATM   12  N   UNL     1      43.806 -13.629   3.397  1.00  0.00    -0.254 NA
HETATM   13  O   UNL     1      42.969 -14.681   5.195  1.00  0.00    -0.254 OA
HETATM   14  H   UNL     1      44.392 -13.872   2.612  1.00  0.00     0.128 HD
HETATM   15  H   UNL     1      44.243 -13.009   4.067  1.00  0.00     0.128 HD
HETATM   16  H   UNL     1      42.634 -15.217   2.127  1.00  0.00     0.164 HD
ENDBRANCH   2  10
ENDBRANCH   1   2
BRANCH   1  17
HETATM   17  C   UNL     1      40.521 -15.902   1.434  1.00  0.00     0.224 C 
HETATM   18  N   UNL     1      41.021 -16.156   0.170  1.00  0.00    -0.327 N 
HETATM   19  H   UNL     1      41.255 -17.118  -0.042  1.00  0.00     0.169 HD
HETATM   20  O   UNL     1      39.952 -14.877   1.799  1.00  0.00    -0.273 OA
BRANCH  18  21
HETATM   21  C   UNL     1      41.196 -15.231  -0.879  1.00  0.00     0.035 A 
HETATM   22  C   UNL     1      41.746 -13.956  -0.706  1.00  0.00     0.042 A 
HETATM   23  C   UNL     1      41.949 -13.098  -1.800  1.00  0.00    -0.021 A 
HETATM   24  C   UNL     1      41.587 -13.535  -3.080  1.00  0.00     0.012 A 
HETATM   25  C   UNL     1      41.034 -14.804  -3.262  1.00  0.00     0.003 A 
HETATM   26  C   UNL     1      40.845 -15.648  -2.168  1.00  0.00     0.029 A 
BRANCH  23  27
HETATM   27  C   UNL     1      42.550 -11.785  -1.623  1.00  0.00     0.010 A 
HETATM   28  C   UNL     1      43.021 -11.129  -0.459  1.00  0.00     0.152 A 
HETATM   29  N   UNL     1      43.518  -9.914  -0.712  1.00  0.00    -0.187 NA
HETATM   30  N   UNL     1      43.361  -9.784  -2.038  1.00  0.00    -0.289 N 
HETATM   31  H   UNL     1      43.666  -8.921  -2.476  1.00  0.00     0.188 HD
HETATM   32  C   UNL     1      42.794 -10.874  -2.630  1.00  0.00     0.123 A 
ENDBRANCH  23  27
ENDBRANCH  18  21
ENDBRANCH   1  17
TORSDOF 6
ENDMDL
MODEL 4
REMARK VINA RESULT:      -7.9      2.495      8.002
REMARK  6 active torsions:
REMARK  status: ('A' for Active; 'I' for Inactive)
REMARK    1  A    between atoms: C_3  and  C_4 
REMARK    2  A    between atoms: C_4  and  N_5 
REMARK    3  A    between atoms: C_4  and  C_9 
REMARK       I    between atoms: N_5  and  C_6 
REMARK       I    between atoms: C_6  and  N_7 
REMARK    4  A    between atoms: C_9  and  C_10 
REMARK       I    between atoms: C_10  and  N_11 
REMARK    5  A    between atoms: N_11  and  C_12 
REMARK    6  A    between atoms: C_14  and  C_15 
ROOT
HETATM    1  C   UNL     1      41.436 -15.902  -0.498  1.00  0.00     0.133 C 
ENDROOT
BRANCH   1   2
HETATM    2  C   UNL     1      41.452 -14.372  -0.553  1.00  0.00     0.128 C 
BRANCH   2   3
HETATM    3  C   UNL     1      40.448 -13.730  -1.515  1.00  0.00    -0.029 A 
HETATM    4  C   UNL     1      40.781 -13.006  -2.683  1.00  0.00    -0.054 A 
HETATM    5  C   UNL     1      42.190 -12.710  -3.118  1.00  0.00     0.049 C 
HETATM    6  C   UNL     1      39.747 -12.492  -3.493  1.00  0.00     0.007 A 
HETATM    7  C   UNL     1      38.405 -12.710  -3.185  1.00  0.00     0.001 A 
HETATM    8  C   UNL     1      38.071 -13.433  -2.051  1.00  0.00     0.001 A 
HETATM    9  C   UNL     1      39.078 -13.933  -1.227  1.00  0.00     0.010 A 
ENDBRANCH   2   3
BRANCH   2  10
HETATM   10  N   UNL     1      41.423 -13.673   0.733  1.00  0.00    -0.339 N 
HETATM   11  C   UNL     1      42.042 -12.503   1.036  1.00  0.00     0.292 C 
HETATM   12  N   UNL     1      41.832 -12.135   2.326  1.00  0.00    -0.254 NA
HETATM   13  O   UNL     1      42.717 -11.816   0.287  1.00  0.00    -0.254 OA
HETATM   14  H   UNL     1      40.917 -12.321   2.707  1.00  0.00     0.128 HD
HETATM   15  H   UNL     1      42.191 -11.212   2.534  1.00  0.00     0.128 HD
HETATM   16  H   UNL     1      41.168 -14.240   1.528  1.00  0.00     0.164 HD
ENDBRANCH   2  10
ENDBRANCH   1   2
BRANCH   1  17
HETATM   17  C   UNL     1      41.596 -16.395   0.924  1.00  0.00     0.224 C 
HETATM   18  N   UNL     1      42.891 -16.769   1.231  1.00  0.00    -0.327 N 
HETATM   19  H   UNL     1      43.615 -16.471   0.588  1.00  0.00     0.169 HD
HETATM   20  O   UNL     1      40.630 -16.431   1.681  1.00  0.00    -0.273 OA
BRANCH  18  21
HETATM   21  C   UNL     1      43.328 -17.477   2.370  1.00  0.00     0.035 A 
HETATM   22  C   UNL     1      43.308 -16.949   3.666  1.00  0.00     0.042 A 
HETATM   23  C   UNL     1      43.702 -17.724   4.771  1.00  0.00    -0.021 A 
HETATM   24  C   UNL     1      44.125 -19.041   4.558  1.00  0.00     0.012 A 
HETATM   25  C   UNL     1      44.152 -19.574   3.268  1.00  0.00     0.003 A 
HETATM   26  C   UNL     1      43.751 -18.797   2.182  1.00  0.00     0.029 A 
BRANCH  23  27
HETATM   27  C   UNL     1      43.651 -17.185   6.121  1.00  0.00     0.010 A 
HETATM   28  C   UNL     1      43.502 -17.829   7.373  1.00  0.00     0.152 A 
HETATM   29  N   UNL     1      43.508 -16.977   8.402  1.00  0.00    -0.187 NA
HETATM   30  N   UNL     1      43.656 -15.779   7.812  1.00  0.00    -0.289 N 
HETATM   31  H   UNL     1      43.686 -14.954   8.401  1.00  0.00     0.188 HD
HETATM   32  C   UNL     1      43.752 -15.850   6.454  1.00  0.00     0.123 A 
ENDBRANCH  23  27
ENDBRANCH  18  21
ENDBRANCH   1  17
TORSDOF 6
ENDMDL
MODEL 5
REMARK VINA RESULT:      -7.8      1.893      2.741
REMARK  6 active torsions:
REMARK  status: ('A' for Active; 'I' for Inactive)
REMARK    1  A    between atoms: C_3  and  C_4 
REMARK    2  A    between atoms: C_4  and  N_5 
REMARK    3  A    between atoms: C_4  and  C_9 
REMARK       I    between atoms: N_5  and  C_6 
REMARK       I    between atoms: C_6  and  N_7 
REMARK    4  A    between atoms: C_9  and  C_10 
REMARK       I    between atoms: C_10  and  N_11 
REMARK    5  A    between atoms: N_11  and  C_12 
REMARK    6  A    between atoms: C_14  and  C_15 
ROOT
HETATM    1  C   UNL     1      43.238 -15.627   4.193  1.00  0.00     0.133 C 
ENDROOT
BRANCH   1   2
HETATM    2  C   UNL     1      42.431 -16.909   3.971  1.00  0.00     0.128 C 
BRANCH   2   3
HETATM    3  C   UNL     1      43.250 -18.174   3.703  1.00  0.00    -0.029 A 
HETATM    4  C   UNL     1      43.683 -18.615   2.431  1.00  0.00    -0.054 A 
HETATM    5  C   UNL     1      43.344 -17.925   1.139  1.00  0.00     0.049 C 
HETATM    6  C   UNL     1      44.458 -19.790   2.338  1.00  0.00     0.007 A 
HETATM    7  C   UNL     1      44.834 -20.507   3.472  1.00  0.00     0.001 A 
HETATM    8  C   UNL     1      44.427 -20.071   4.724  1.00  0.00     0.001 A 
HETATM    9  C   UNL     1      43.645 -18.923   4.836  1.00  0.00     0.010 A 
ENDBRANCH   2   3
BRANCH   2  10
HETATM   10  N   UNL     1      41.381 -17.196   4.950  1.00  0.00    -0.339 N 
HETATM   11  C   UNL     1      40.856 -16.331   5.856  1.00  0.00     0.292 C 
HETATM   12  N   UNL     1      39.911 -16.919   6.633  1.00  0.00    -0.254 NA
HETATM   13  O   UNL     1      41.151 -15.156   6.002  1.00  0.00    -0.254 OA
HETATM   14  H   UNL     1      39.305 -17.588   6.183  1.00  0.00     0.128 HD
HETATM   15  H   UNL     1      39.432 -16.260   7.234  1.00  0.00     0.128 HD
HETATM   16  H   UNL     1      41.243 -18.173   5.163  1.00  0.00     0.164 HD
ENDBRANCH   2  10
ENDBRANCH   1   2
BRANCH   1  17
HETATM   17  C   UNL     1      42.813 -14.543   3.225  1.00  0.00     0.224 C 
HETATM   18  N   UNL     1      41.520 -14.700   2.761  1.00  0.00    -0.327 N 
HETATM   19  H   UNL     1      40.933 -15.354   3.264  1.00  0.00     0.169 HD
HETATM   20  O   UNL     1      43.588 -13.637   2.927  1.00  0.00    -0.273 OA
BRANCH  18  21
HETATM   21  C   UNL     1      40.908 -14.013   1.693  1.00  0.00     0.035 A 
HETATM   22  C   UNL     1      40.808 -14.527   0.395  1.00  0.00     0.042 A 
HETATM   23  C   UNL     1      40.136 -13.820  -0.616  1.00  0.00    -0.021 A 
HETATM   24  C   UNL     1      39.565 -12.579  -0.310  1.00  0.00     0.012 A 
HETATM   25  C   UNL     1      39.662 -12.057   0.981  1.00  0.00     0.003 A 
HETATM   26  C   UNL     1      40.326 -12.773   1.977  1.00  0.00     0.029 A 
BRANCH  23  27
HETATM   27  C   UNL     1      40.005 -14.370  -1.957  1.00  0.00     0.010 A 
HETATM   28  C   UNL     1      40.903 -15.141  -2.735  1.00  0.00     0.152 A 
HETATM   29  N   UNL     1      40.407 -15.464  -3.933  1.00  0.00    -0.187 NA
HETATM   30  N   UNL     1      39.191 -14.895  -3.930  1.00  0.00    -0.289 N 
HETATM   31  H   UNL     1      38.609 -15.000  -4.754  1.00  0.00     0.188 HD
HETATM   32  C   UNL     1      38.901 -14.236  -2.772  1.00  0.00     0.123 A 
ENDBRANCH  23  27
ENDBRANCH  18  21
ENDBRANCH   1  17
TORSDOF 6
ENDMDL
MODEL 6
REMARK VINA RESULT:      -7.8      2.265      2.898
REMARK  6 active torsions:
REMARK  status: ('A' for Active; 'I' for Inactive)
REMARK    1  A    between atoms: C_3  and  C_4 
REMARK    2  A    between atoms: C_4  and  N_5 
REMARK    3  A    between atoms: C_4  and  C_9 
REMARK       I    between atoms: N_5  and  C_6 
REMARK       I    between atoms: C_6  and  N_7 
REMARK    4  A    between atoms: C_9  and  C_10 
REMARK       I    between atoms: C_10  and  N_11 
REMARK    5  A    between atoms: N_11  and  C_12 
REMARK    6  A    between atoms: C_14  and  C_15 
ROOT
HETATM    1  C   UNL     1      40.677 -16.986   2.459  1.00  0.00     0.133 C 
ENDROOT
BRANCH   1   2
HETATM    2  C   UNL     1      41.989 -16.881   3.241  1.00  0.00     0.128 C 
BRANCH   2   3
HETATM    3  C   UNL     1      42.882 -18.124   3.213  1.00  0.00    -0.029 A 
HETATM    4  C   UNL     1      43.635 -18.616   4.304  1.00  0.00    -0.054 A 
HETATM    5  C   UNL     1      43.711 -17.943   5.647  1.00  0.00     0.049 C 
HETATM    6  C   UNL     1      44.395 -19.793   4.141  1.00  0.00     0.007 A 
HETATM    7  C   UNL     1      44.395 -20.499   2.940  1.00  0.00     0.001 A 
HETATM    8  C   UNL     1      43.646 -20.032   1.871  1.00  0.00     0.001 A 
HETATM    9  C   UNL     1      42.903 -18.860   2.005  1.00  0.00     0.010 A 
ENDBRANCH   2   3
BRANCH   2  10
HETATM   10  N   UNL     1      42.797 -15.684   3.000  1.00  0.00    -0.339 N 
HETATM   11  C   UNL     1      43.088 -14.706   3.895  1.00  0.00     0.292 C 
HETATM   12  N   UNL     1      43.844 -13.721   3.347  1.00  0.00    -0.254 NA
HETATM   13  O   UNL     1      42.745 -14.659   5.066  1.00  0.00    -0.254 OA
HETATM   14  H   UNL     1      44.549 -14.007   2.684  1.00  0.00     0.128 HD
HETATM   15  H   UNL     1      44.164 -13.045   4.030  1.00  0.00     0.128 HD
HETATM   16  H   UNL     1      42.902 -15.421   2.031  1.00  0.00     0.164 HD
ENDBRANCH   2  10
ENDBRANCH   1   2
BRANCH   1  17
HETATM   17  C   UNL     1      40.377 -15.696   1.725  1.00  0.00     0.224 C 
HETATM   18  N   UNL     1      40.649 -15.760   0.372  1.00  0.00    -0.327 N 
HETATM   19  H   UNL     1      40.791 -16.683  -0.020  1.00  0.00     0.169 HD
HETATM   20  O   UNL     1      39.932 -14.725   2.333  1.00  0.00    -0.273 OA
BRANCH  18  21
HETATM   21  C   UNL     1      40.702 -14.686  -0.540  1.00  0.00     0.035 A 
HETATM   22  C   UNL     1      39.657 -14.353  -1.409  1.00  0.00     0.042 A 
HETATM   23  C   UNL     1      39.745 -13.234  -2.255  1.00  0.00    -0.021 A 
HETATM   24  C   UNL     1      40.904 -12.451  -2.224  1.00  0.00     0.012 A 
HETATM   25  C   UNL     1      41.954 -12.778  -1.363  1.00  0.00     0.003 A 
HETATM   26  C   UNL     1      41.850 -13.886  -0.523  1.00  0.00     0.029 A 
BRANCH  23  27
HETATM   27  C   UNL     1      38.644 -12.871  -3.135  1.00  0.00     0.010 A 
HETATM   28  C   UNL     1      37.459 -13.568  -3.476  1.00  0.00     0.152 A 
HETATM   29  N   UNL     1      36.683 -12.889  -4.325  1.00  0.00    -0.187 NA
HETATM   30  N   UNL     1      37.371 -11.756  -4.538  1.00  0.00    -0.289 N 
HETATM   31  H   UNL     1      36.977 -11.065  -5.167  1.00  0.00     0.188 HD
HETATM   32  C   UNL     1      38.545 -11.694  -3.847  1.00  0.00     0.123 A 
ENDBRANCH  23  27
ENDBRANCH  18  21
ENDBRANCH   1  17
TORSDOF 6
ENDMDL
MODEL 7
REMARK VINA RESULT:      -7.7      2.173      2.754
REMARK  6 active torsions:
REMARK  status: ('A' for Active; 'I' for Inactive)
REMARK    1  A    between atoms: C_3  and  C_4 
REMARK    2  A    between atoms: C_4  and  N_5 
REMARK    3  A    between atoms: C_4  and  C_9 
REMARK       I    between atoms: N_5  and  C_6 
REMARK       I    between atoms: C_6  and  N_7 
REMARK    4  A    between atoms: C_9  and  C_10 
REMARK       I    between atoms: C_10  and  N_11 
REMARK    5  A    between atoms: N_11  and  C_12 
REMARK    6  A    between atoms: C_14  and  C_15 
ROOT
HETATM    1  C   UNL     1      41.172 -17.538   5.400  1.00  0.00     0.133 C 
ENDROOT
BRANCH   1   2
HETATM    2  C   UNL     1      42.629 -17.723   5.832  1.00  0.00     0.128 C 
BRANCH   2   3
HETATM    3  C   UNL     1      43.434 -18.751   5.033  1.00  0.00    -0.029 A 
HETATM    4  C   UNL     1      43.968 -19.954   5.550  1.00  0.00    -0.054 A 
HETATM    5  C   UNL     1      43.868 -20.369   6.992  1.00  0.00     0.049 C 
HETATM    6  C   UNL     1      44.667 -20.824   4.688  1.00  0.00     0.007 A 
HETATM    7  C   UNL     1      44.817 -20.539   3.332  1.00  0.00     0.001 A 
HETATM    8  C   UNL     1      44.282 -19.370   2.814  1.00  0.00     0.001 A 
HETATM    9  C   UNL     1      43.603 -18.488   3.653  1.00  0.00     0.010 A 
ENDBRANCH   2   3
BRANCH   2  10
HETATM   10  N   UNL     1      43.417 -16.502   6.006  1.00  0.00    -0.339 N 
HETATM   11  C   UNL     1      43.850 -15.974   7.179  1.00  0.00     0.292 C 
HETATM   12  N   UNL     1      44.541 -14.820   6.995  1.00  0.00    -0.254 NA
HETATM   13  O   UNL     1      43.676 -16.433   8.297  1.00  0.00    -0.254 OA
HETATM   14  H   UNL     1      45.139 -14.775   6.184  1.00  0.00     0.128 HD
HETATM   15  H   UNL     1      44.966 -14.476   7.848  1.00  0.00     0.128 HD
HETATM   16  H   UNL     1      43.390 -15.855   5.231  1.00  0.00     0.164 HD
ENDBRANCH   2  10
ENDBRANCH   1   2
BRANCH   1  17
HETATM   17  C   UNL     1      41.047 -16.438   4.367  1.00  0.00     0.224 C 
HETATM   18  N   UNL     1      40.512 -16.871   3.169  1.00  0.00    -0.327 N 
HETATM   19  H   UNL     1      40.060 -17.777   3.173  1.00  0.00     0.169 HD
HETATM   20  O   UNL     1      41.403 -15.292   4.634  1.00  0.00    -0.273 OA
BRANCH  18  21
HETATM   21  C   UNL     1      40.478 -16.169   1.946  1.00  0.00     0.035 A 
HETATM   22  C   UNL     1      39.668 -15.052   1.714  1.00  0.00     0.042 A 
HETATM   23  C   UNL     1      39.720 -14.358   0.493  1.00  0.00    -0.021 A 
HETATM   24  C   UNL     1      40.597 -14.804  -0.503  1.00  0.00     0.012 A 
HETATM   25  C   UNL     1      41.407 -15.920  -0.282  1.00  0.00     0.003 A 
HETATM   26  C   UNL     1      41.350 -16.595   0.937  1.00  0.00     0.029 A 
BRANCH  23  27
HETATM   27  C   UNL     1      38.900 -13.178   0.265  1.00  0.00     0.010 A 
HETATM   28  C   UNL     1      37.555 -13.049  -0.157  1.00  0.00     0.152 A 
HETATM   29  N   UNL     1      37.155 -11.777  -0.243  1.00  0.00    -0.187 NA
HETATM   30  N   UNL     1      38.247 -11.084   0.118  1.00  0.00    -0.289 N 
HETATM   31  H   UNL     1      38.192 -10.071   0.127  1.00  0.00     0.188 HD
HETATM   32  C   UNL     1      39.313 -11.873   0.437  1.00  0.00     0.123 A 
ENDBRANCH  23  27
ENDBRANCH  18  21
ENDBRANCH   1  17
TORSDOF 6
ENDMDL
MODEL 8
REMARK VINA RESULT:      -7.7      2.442      3.578
REMARK  6 active torsions:
REMARK  status: ('A' for Active; 'I' for Inactive)
REMARK    1  A    between atoms: C_3  and  C_4 
REMARK    2  A    between atoms: C_4  and  N_5 
REMARK    3  A    between atoms: C_4  and  C_9 
REMARK       I    between atoms: N_5  and  C_6 
REMARK       I    between atoms: C_6  and  N_7 
REMARK    4  A    between atoms: C_9  and  C_10 
REMARK       I    between atoms: C_10  and  N_11 
REMARK    5  A    between atoms: N_11  and  C_12 
REMARK    6  A    between atoms: C_14  and  C_15 
ROOT
HETATM    1  C   UNL     1      43.156 -17.124   1.542  1.00  0.00     0.133 C 
ENDROOT
BRANCH   1   2
HETATM    2  C   UNL     1      42.833 -17.934   2.800  1.00  0.00     0.128 C 
BRANCH   2   3
HETATM    3  C   UNL     1      43.501 -19.308   2.898  1.00  0.00    -0.029 A 
HETATM    4  C   UNL     1      44.319 -19.748   3.964  1.00  0.00    -0.054 A 
HETATM    5  C   UNL     1      44.700 -18.893   5.142  1.00  0.00     0.049 C 
HETATM    6  C   UNL     1      44.847 -21.055   3.934  1.00  0.00     0.007 A 
HETATM    7  C   UNL     1      44.555 -21.933   2.892  1.00  0.00     0.001 A 
HETATM    8  C   UNL     1      43.741 -21.516   1.851  1.00  0.00     0.001 A 
HETATM    9  C   UNL     1      43.224 -20.221   1.853  1.00  0.00     0.010 A 
ENDBRANCH   2   3
BRANCH   2  10
HETATM   10  N   UNL     1      42.958 -17.230   4.078  1.00  0.00    -0.339 N 
HETATM   11  C   UNL     1      42.069 -16.355   4.614  1.00  0.00     0.292 C 
HETATM   12  N   UNL     1      42.495 -15.861   5.805  1.00  0.00    -0.254 NA
HETATM   13  O   UNL     1      40.999 -16.013   4.137  1.00  0.00    -0.254 OA
HETATM   14  H   UNL     1      42.983 -16.502   6.412  1.00  0.00     0.128 HD
HETATM   15  H   UNL     1      41.794 -15.297   6.269  1.00  0.00     0.128 HD
HETATM   16  H   UNL     1      43.895 -17.167   4.447  1.00  0.00     0.164 HD
ENDBRANCH   2  10
ENDBRANCH   1   2
BRANCH   1  17
HETATM   17  C   UNL     1      41.915 -16.913   0.699  1.00  0.00     0.224 C 
HETATM   18  N   UNL     1      42.046 -15.888  -0.219  1.00  0.00    -0.327 N 
HETATM   19  H   UNL     1      42.985 -15.551  -0.394  1.00  0.00     0.169 HD
HETATM   20  O   UNL     1      40.925 -17.621   0.864  1.00  0.00    -0.273 OA
BRANCH  18  21
HETATM   21  C   UNL     1      41.021 -15.290  -0.981  1.00  0.00     0.035 A 
HETATM   22  C   UNL     1      39.996 -14.513  -0.428  1.00  0.00     0.042 A 
HETATM   23  C   UNL     1      39.034 -13.894  -1.244  1.00  0.00    -0.021 A 
HETATM   24  C   UNL     1      39.109 -14.069  -2.631  1.00  0.00     0.012 A 
HETATM   25  C   UNL     1      40.125 -14.845  -3.191  1.00  0.00     0.003 A 
HETATM   26  C   UNL     1      41.078 -15.447  -2.370  1.00  0.00     0.029 A 
BRANCH  23  27
HETATM   27  C   UNL     1      37.987 -13.062  -0.671  1.00  0.00     0.010 A 
HETATM   28  C   UNL     1      37.292 -11.948  -1.201  1.00  0.00     0.152 A 
HETATM   29  N   UNL     1      36.385 -11.450  -0.356  1.00  0.00    -0.187 NA
HETATM   30  N   UNL     1      36.499 -12.240   0.723  1.00  0.00    -0.289 N 
HETATM   31  H   UNL     1      35.902 -12.054   1.521  1.00  0.00     0.188 HD
HETATM   32  C   UNL     1      37.437 -13.220   0.584  1.00  0.00     0.123 A 
ENDBRANCH  23  27
ENDBRANCH  18  21
ENDBRANCH   1  17
TORSDOF 6
ENDMDL
MODEL 9
REMARK VINA RESULT:      -7.7      2.279      2.732
REMARK  6 active torsions:
REMARK  status: ('A' for Active; 'I' for Inactive)
REMARK    1  A    between atoms: C_3  and  C_4 
REMARK    2  A    between atoms: C_4  and  N_5 
REMARK    3  A    between atoms: C_4  and  C_9 
REMARK       I    between atoms: N_5  and  C_6 
REMARK       I    between atoms: C_6  and  N_7 
REMARK    4  A    between atoms: C_9  and  C_10 
REMARK       I    between atoms: C_10  and  N_11 
REMARK    5  A    between atoms: N_11  and  C_12 
REMARK    6  A    between atoms: C_14  and  C_15 
ROOT
HETATM    1  C   UNL     1      43.153 -16.259   3.188  1.00  0.00     0.133 C 
ENDROOT
BRANCH   1   2
HETATM    2  C   UNL     1      42.787 -17.510   3.991  1.00  0.00     0.128 C 
BRANCH   2   3
HETATM    3  C   UNL     1      43.447 -18.813   3.531  1.00  0.00    -0.029 A 
HETATM    4  C   UNL     1      44.445 -19.521   4.241  1.00  0.00    -0.054 A 
HETATM    5  C   UNL     1      45.048 -19.054   5.538  1.00  0.00     0.049 C 
HETATM    6  C   UNL     1      44.944 -20.727   3.708  1.00  0.00     0.007 A 
HETATM    7  C   UNL     1      44.454 -21.253   2.514  1.00  0.00     0.001 A 
HETATM    8  C   UNL     1      43.465 -20.574   1.821  1.00  0.00     0.001 A 
HETATM    9  C   UNL     1      42.971 -19.370   2.321  1.00  0.00     0.010 A 
ENDBRANCH   2   3
BRANCH   2  10
HETATM   10  N   UNL     1      42.873 -17.398   5.449  1.00  0.00    -0.339 N 
HETATM   11  C   UNL     1      42.030 -16.712   6.262  1.00  0.00     0.292 C 
HETATM   12  N   UNL     1      42.401 -16.792   7.565  1.00  0.00    -0.254 NA
HETATM   13  O   UNL     1      41.040 -16.083   5.927  1.00  0.00    -0.254 OA
HETATM   14  H   UNL     1      42.775 -17.676   7.876  1.00  0.00     0.128 HD
HETATM   15  H   UNL     1      41.721 -16.382   8.193  1.00  0.00     0.128 HD
HETATM   16  H   UNL     1      43.778 -17.601   5.845  1.00  0.00     0.164 HD
ENDBRANCH   2  10
ENDBRANCH   1   2
BRANCH   1  17
HETATM   17  C   UNL     1      42.005 -15.831   2.297  1.00  0.00     0.224 C 
HETATM   18  N   UNL     1      42.420 -15.263   1.107  1.00  0.00    -0.327 N 
HETATM   19  H   UNL     1      43.392 -15.394   0.855  1.00  0.00     0.169 HD
HETATM   20  O   UNL     1      40.843 -16.005   2.655  1.00  0.00    -0.273 OA
BRANCH  18  21
HETATM   21  C   UNL     1      41.627 -14.560   0.176  1.00  0.00     0.035 A 
HETATM   22  C   UNL     1      40.976 -15.168  -0.903  1.00  0.00     0.042 A 
HETATM   23  C   UNL     1      40.152 -14.425  -1.766  1.00  0.00    -0.021 A 
HETATM   24  C   UNL     1      39.992 -13.054  -1.535  1.00  0.00     0.012 A 
HETATM   25  C   UNL     1      40.640 -12.438  -0.462  1.00  0.00     0.003 A 
HETATM   26  C   UNL     1      41.449 -13.189   0.390  1.00  0.00     0.029 A 
BRANCH  23  27
HETATM   27  C   UNL     1      39.451 -15.064  -2.869  1.00  0.00     0.010 A 
HETATM   28  C   UNL     1      38.237 -14.729  -3.516  1.00  0.00     0.152 A 
HETATM   29  N   UNL     1      37.925 -15.571  -4.505  1.00  0.00    -0.187 NA
HETATM   30  N   UNL     1      38.936 -16.454  -4.493  1.00  0.00    -0.289 N 
HETATM   31  H   UNL     1      38.922 -17.211  -5.167  1.00  0.00     0.188 HD
HETATM   32  C   UNL     1      39.876 -16.192  -3.540  1.00  0.00     0.123 A 
ENDBRANCH  23  27
ENDBRANCH  18  21
ENDBRANCH   1  17
TORSDOF 6
ENDMDL
MODEL 10
REMARK VINA RESULT:      -7.6      2.703      7.668
REMARK  6 active torsions:
REMARK  status: ('A' for Active; 'I' for Inactive)
REMARK    1  A    between atoms: C_3  and  C_4 
REMARK    2  A    between atoms: C_4  and  N_5 
REMARK    3  A    between atoms: C_4  and  C_9 
REMARK       I    between atoms: N_5  and  C_6 
REMARK       I    between atoms: C_6  and  N_7 
REMARK    4  A    between atoms: C_9  and  C_10 
REMARK       I    between atoms: C_10  and  N_11 
REMARK    5  A    between atoms: N_11  and  C_12 
REMARK    6  A    between atoms: C_14  and  C_15 
ROOT
HETATM    1  C   UNL     1      41.076 -14.210   4.112  1.00  0.00     0.133 C 
ENDROOT
BRANCH   1   2
HETATM    2  C   UNL     1      40.368 -14.322   2.759  1.00  0.00     0.128 C 
BRANCH   2   3
HETATM    3  C   UNL     1      39.550 -13.100   2.332  1.00  0.00    -0.029 A 
HETATM    4  C   UNL     1      38.360 -13.137   1.570  1.00  0.00    -0.054 A 
HETATM    5  C   UNL     1      37.755 -14.397   1.013  1.00  0.00     0.049 C 
HETATM    6  C   UNL     1      37.695 -11.930   1.273  1.00  0.00     0.007 A 
HETATM    7  C   UNL     1      38.166 -10.705   1.742  1.00  0.00     0.001 A 
HETATM    8  C   UNL     1      39.323 -10.662   2.504  1.00  0.00     0.001 A 
HETATM    9  C   UNL     1      40.006 -11.842   2.793  1.00  0.00     0.010 A 
ENDBRANCH   2   3
BRANCH   2  10
HETATM   10  N   UNL     1      41.180 -14.793   1.635  1.00  0.00    -0.339 N 
HETATM   11  C   UNL     1      41.216 -16.052   1.130  1.00  0.00     0.292 C 
HETATM   12  N   UNL     1      42.092 -16.163   0.099  1.00  0.00    -0.254 NA
HETATM   13  O   UNL     1      40.564 -17.012   1.508  1.00  0.00    -0.254 OA
HETATM   14  H   UNL     1      42.151 -15.377  -0.532  1.00  0.00     0.128 HD
HETATM   15  H   UNL     1      42.046 -17.064  -0.361  1.00  0.00     0.128 HD
HETATM   16  H   UNL     1      41.979 -14.218   1.408  1.00  0.00     0.164 HD
ENDBRANCH   2  10
ENDBRANCH   1   2
BRANCH   1  17
HETATM   17  C   UNL     1      41.459 -15.577   4.639  1.00  0.00     0.224 C 
HETATM   18  N   UNL     1      42.826 -15.768   4.723  1.00  0.00    -0.327 N 
HETATM   19  H   UNL     1      43.406 -14.941   4.652  1.00  0.00     0.169 HD
HETATM   20  O   UNL     1      40.591 -16.389   4.949  1.00  0.00    -0.273 OA
BRANCH  18  21
HETATM   21  C   UNL     1      43.505 -16.983   4.946  1.00  0.00     0.035 A 
HETATM   22  C   UNL     1      43.471 -18.066   4.061  1.00  0.00     0.042 A 
HETATM   23  C   UNL     1      44.215 -19.232   4.310  1.00  0.00    -0.021 A 
HETATM   24  C   UNL     1      44.996 -19.301   5.470  1.00  0.00     0.012 A 
HETATM   25  C   UNL     1      45.034 -18.228   6.361  1.00  0.00     0.003 A 
HETATM   26  C   UNL     1      44.296 -17.074   6.097  1.00  0.00     0.029 A 
BRANCH  23  27
HETATM   27  C   UNL     1      44.203 -20.344   3.373  1.00  0.00     0.010 A 
HETATM   28  C   UNL     1      44.671 -21.674   3.504  1.00  0.00     0.152 A 
HETATM   29  N   UNL     1      44.471 -22.407   2.405  1.00  0.00    -0.187 NA
HETATM   30  N   UNL     1      43.878 -21.548   1.561  1.00  0.00    -0.289 N 
HETATM   31  H   UNL     1      43.626 -21.878   0.636  1.00  0.00     0.188 HD
HETATM   32  C   UNL     1      43.691 -20.306   2.093  1.00  0.00     0.123 A 
ENDBRANCH  23  27
ENDBRANCH  18  21
ENDBRANCH   1  17
TORSDOF 6
ENDMDL
