MODEL 1
REMARK VINA RESULT:      -7.5      0.000      0.000
REMARK  6 active torsions:
REMARK  status: ('A' for Active; 'I' for Inactive)
REMARK    1  A    between atoms: C_2  and  O_3 
REMARK    2  A    between atoms: O_3  and  C_4 
REMARK    3  A    between atoms: C_4  and  C_5 
REMARK    4  A    between atoms: C_6  and  O_7 
REMARK    5  A    between atoms: C_12  and  O_13 
REMARK    6  A    between atoms: C_17  and  C_18 
ROOT
HETATM    1  C   UNL     1      43.691 -17.328   5.644  1.00  0.00     0.133 C 
HETATM    2  C   UNL     1      44.093 -18.014   6.986  1.00  0.00     0.073 C 
HETATM    3  C   UNL     1      43.477 -17.327   8.215  1.00  0.00     0.047 C 
HETATM    4  C   UNL     1      43.769 -19.537   7.031  1.00  0.00     0.097 C 
HETATM    5  C   UNL     1      44.108 -20.165   5.729  1.00  0.00     0.042 A 
HETATM    6  C   UNL     1      44.314 -19.528   4.524  1.00  0.00     0.030 A 
HETATM    7  C   UNL     1      44.710 -20.577   3.675  1.00  0.00     0.190 A 
HETATM    8  N   UNL     1      44.700 -21.770   4.258  1.00  0.00    -0.149 NA
HETATM    9  N   UNL     1      44.340 -21.494   5.522  1.00  0.00    -0.279 N 
HETATM   10  H   UNL     1      44.298 -22.259   6.188  1.00  0.00     0.189 HD
HETATM   11  C   UNL     1      44.236 -18.044   4.370  1.00  0.00     0.075 C 
ENDROOT
BRANCH  11  12
HETATM   12  C   UNL     1      43.494 -17.708   3.083  1.00  0.00    -0.045 A 
HETATM   13  C   UNL     1      42.362 -18.411   2.635  1.00  0.00     0.050 A 
HETATM   14  C   UNL     1      41.692 -18.016   1.481  1.00  0.00     0.117 A 
HETATM   15  F   UNL     1      40.613 -18.701   1.080  1.00  0.00    -0.206 F 
HETATM   16  C   UNL     1      42.118 -16.919   0.747  1.00  0.00     0.042 A 
HETATM   17  C   UNL     1      43.232 -16.202   1.176  1.00  0.00     0.004 A 
HETATM   18  C   UNL     1      43.912 -16.591   2.336  1.00  0.00     0.008 A 
ENDBRANCH  11  12
BRANCH   1  19
HETATM   19  C   UNL     1      42.209 -17.016   5.582  1.00  0.00     0.267 C 
HETATM   20  O   UNL     1      41.352 -17.892   5.627  1.00  0.00    -0.265 OA
BRANCH  19  21
HETATM   21  O   UNL     1      41.955 -15.691   5.439  1.00  0.00    -0.316 OA
BRANCH  21  22
HETATM   22  C   UNL     1      40.607 -15.344   5.066  1.00  0.00     0.123 C 
HETATM   23  C   UNL     1      40.533 -15.105   3.561  1.00  0.00     0.040 C 
HETATM   24  C   UNL     1      40.236 -14.076   5.826  1.00  0.00     0.040 C 
ENDBRANCH  21  22
ENDBRANCH  19  21
ENDBRANCH   1  19
BRANCH   2  25
HETATM   25  O   UNL     1      45.525 -17.879   7.129  1.00  0.00    -0.389 OA
HETATM   26  H   UNL     1      45.785 -16.983   6.852  1.00  0.00     0.210 HD
ENDBRANCH   2  25
BRANCH   7  27
HETATM   27  O   UNL     1      45.088 -20.548   2.395  1.00  0.00    -0.343 OA
HETATM   28  H   UNL     1      45.706 -19.814   2.255  1.00  0.00     0.219 HD
ENDBRANCH   7  27
TORSDOF 6
ENDMDL
MODEL 2
REMARK VINA RESULT:      -7.4      3.677      5.663
REMARK  6 active torsions:
REMARK  status: ('A' for Active; 'I' for Inactive)
REMARK    1  A    between atoms: C_2  and  O_3 
REMARK    2  A    between atoms: O_3  and  C_4 
REMARK    3  A    between atoms: C_4  and  C_5 
REMARK    4  A    between atoms: C_6  and  O_7 
REMARK    5  A    between atoms: C_12  and  O_13 
REMARK    6  A    between atoms: C_17  and  C_18 
ROOT
HETATM    1  C   UNL     1      41.851 -14.387   5.264  1.00  0.00     0.133 C 
HETATM    2  C   UNL     1      40.959 -13.121   5.448  1.00  0.00     0.073 C 
HETATM    3  C   UNL     1      41.672 -11.995   6.214  1.00  0.00     0.047 C 
HETATM    4  C   UNL     1      40.393 -12.556   4.111  1.00  0.00     0.097 C 
HETATM    5  C   UNL     1      39.951 -13.672   3.237  1.00  0.00     0.042 A 
HETATM    6  C   UNL     1      40.294 -15.003   3.346  1.00  0.00     0.030 A 
HETATM    7  C   UNL     1      39.514 -15.614   2.348  1.00  0.00     0.190 A 
HETATM    8  N   UNL     1      38.793 -14.758   1.635  1.00  0.00    -0.149 NA
HETATM    9  N   UNL     1      39.066 -13.572   2.204  1.00  0.00    -0.279 N 
HETATM   10  H   UNL     1      38.592 -12.748   1.849  1.00  0.00     0.189 HD
HETATM   11  C   UNL     1      41.188 -15.522   4.426  1.00  0.00     0.075 C 
ENDROOT
BRANCH  11  12
HETATM   12  C   UNL     1      42.162 -16.531   3.833  1.00  0.00    -0.045 A 
HETATM   13  C   UNL     1      42.869 -16.315   2.637  1.00  0.00     0.050 A 
HETATM   14  C   UNL     1      43.793 -17.250   2.179  1.00  0.00     0.117 A 
HETATM   15  F   UNL     1      44.457 -17.016   1.040  1.00  0.00    -0.206 F 
HETATM   16  C   UNL     1      44.044 -18.414   2.891  1.00  0.00     0.042 A 
HETATM   17  C   UNL     1      43.362 -18.645   4.083  1.00  0.00     0.004 A 
HETATM   18  C   UNL     1      42.432 -17.711   4.551  1.00  0.00     0.008 A 
ENDBRANCH  11  12
BRANCH   1  19
HETATM   19  C   UNL     1      43.256 -14.038   4.815  1.00  0.00     0.267 C 
HETATM   20  O   UNL     1      43.475 -13.319   3.848  1.00  0.00    -0.265 OA
BRANCH  19  21
HETATM   21  O   UNL     1      44.213 -14.631   5.572  1.00  0.00    -0.316 OA
BRANCH  21  22
HETATM   22  C   UNL     1      43.921 -14.752   6.979  1.00  0.00     0.123 C 
HETATM   23  C   UNL     1      44.791 -13.782   7.772  1.00  0.00     0.040 C 
HETATM   24  C   UNL     1      44.219 -16.190   7.385  1.00  0.00     0.040 C 
ENDBRANCH  21  22
ENDBRANCH  19  21
ENDBRANCH   1  19
BRANCH   2  25
HETATM   25  O   UNL     1      39.827 -13.502   6.262  1.00  0.00    -0.389 OA
HETATM   26  H   UNL     1      40.145 -14.044   7.006  1.00  0.00     0.210 HD
ENDBRANCH   2  25
BRANCH   7  27
HETATM   27  O   UNL     1      39.394 -16.903   2.023  1.00  0.00    -0.343 OA
HETATM   28  H   UNL     1      40.153 -17.398   2.366  1.00  0.00     0.219 HD
ENDBRANCH   7  27
TORSDOF 6
ENDMDL
MODEL 3
REMARK VINA RESULT:      -7.3      2.640      4.553
REMARK  6 active torsions:
REMARK  status: ('A' for Active; 'I' for Inactive)
REMARK    1  A    between atoms: C_2  and  O_3 
REMARK    2  A    between atoms: O_3  and  C_4 
REMARK    3  A    between atoms: C_4  and  C_5 
REMARK    4  A    between atoms: C_6  and  O_7 
REMARK    5  A    between atoms: C_12  and  O_13 
REMARK    6  A    between atoms: C_17  and  C_18 
ROOT
HETATM    1  C   UNL     1      43.142 -18.316   5.822  1.00  0.00     0.133 C 
HETATM    2  C   UNL     1      43.542 -17.989   7.294  1.00  0.00     0.073 C 
HETATM    3  C   UNL     1      44.083 -19.212   8.050  1.00  0.00     0.047 C 
HETATM    4  C   UNL     1      44.558 -16.815   7.420  1.00  0.00     0.097 C 
HETATM    5  C   UNL     1      44.193 -15.728   6.476  1.00  0.00     0.042 A 
HETATM    6  C   UNL     1      43.357 -15.817   5.383  1.00  0.00     0.030 A 
HETATM    7  C   UNL     1      43.285 -14.487   4.931  1.00  0.00     0.190 A 
HETATM    8  N   UNL     1      44.042 -13.645   5.623  1.00  0.00    -0.149 NA
HETATM    9  N   UNL     1      44.583 -14.424   6.575  1.00  0.00    -0.279 N 
HETATM   10  H   UNL     1      45.185 -13.989   7.267  1.00  0.00     0.189 HD
HETATM   11  C   UNL     1      42.659 -17.081   5.000  1.00  0.00     0.075 C 
ENDROOT
BRANCH  11  12
HETATM   12  C   UNL     1      42.724 -17.256   3.489  1.00  0.00    -0.045 A 
HETATM   13  C   UNL     1      41.606 -17.573   2.696  1.00  0.00     0.050 A 
HETATM   14  C   UNL     1      41.719 -17.658   1.311  1.00  0.00     0.117 A 
HETATM   15  F   UNL     1      40.637 -17.956   0.580  1.00  0.00    -0.206 F 
HETATM   16  C   UNL     1      42.931 -17.427   0.678  1.00  0.00     0.042 A 
HETATM   17  C   UNL     1      44.049 -17.103   1.441  1.00  0.00     0.004 A 
HETATM   18  C   UNL     1      43.946 -17.015   2.834  1.00  0.00     0.008 A 
ENDBRANCH  11  12
BRANCH   1  19
HETATM   19  C   UNL     1      44.192 -19.147   5.113  1.00  0.00     0.267 C 
HETATM   20  O   UNL     1      45.378 -18.838   5.108  1.00  0.00    -0.265 OA
BRANCH  19  21
HETATM   21  O   UNL     1      43.670 -20.224   4.474  1.00  0.00    -0.316 OA
BRANCH  21  22
HETATM   22  C   UNL     1      44.530 -20.864   3.511  1.00  0.00     0.123 C 
HETATM   23  C   UNL     1      43.912 -20.762   2.120  1.00  0.00     0.040 C 
HETATM   24  C   UNL     1      44.672 -22.323   3.925  1.00  0.00     0.040 C 
ENDBRANCH  21  22
ENDBRANCH  19  21
ENDBRANCH   1  19
BRANCH   2  25
HETATM   25  O   UNL     1      42.340 -17.589   7.991  1.00  0.00    -0.389 OA
HETATM   26  H   UNL     1      42.317 -16.617   8.042  1.00  0.00     0.210 HD
ENDBRANCH   2  25
BRANCH   7  27
HETATM   27  O   UNL     1      42.577 -13.960   3.929  1.00  0.00    -0.343 OA
HETATM   28  H   UNL     1      42.799 -14.411   3.101  1.00  0.00     0.219 HD
ENDBRANCH   7  27
TORSDOF 6
ENDMDL
MODEL 4
REMARK VINA RESULT:      -6.8      3.755      6.074
REMARK  6 active torsions:
REMARK  status: ('A' for Active; 'I' for Inactive)
REMARK    1  A    between atoms: C_2  and  O_3 
REMARK    2  A    between atoms: O_3  and  C_4 
REMARK    3  A    between atoms: C_4  and  C_5 
REMARK    4  A    between atoms: C_6  and  O_7 
REMARK    5  A    between atoms: C_12  and  O_13 
REMARK    6  A    between atoms: C_17  and  C_18 
ROOT
HETATM    1  C   UNL     1      43.257 -16.975   3.195  1.00  0.00     0.133 C 
HETATM    2  C   UNL     1      43.103 -17.756   1.854  1.00  0.00     0.073 C 
HETATM    3  C   UNL     1      42.971 -19.273   2.059  1.00  0.00     0.047 C 
HETATM    4  C   UNL     1      41.924 -17.251   0.969  1.00  0.00     0.097 C 
HETATM    5  C   UNL     1      41.875 -15.767   0.990  1.00  0.00     0.042 A 
HETATM    6  C   UNL     1      42.479 -14.926   1.900  1.00  0.00     0.030 A 
HETATM    7  C   UNL     1      42.200 -13.648   1.383  1.00  0.00     0.190 A 
HETATM    8  N   UNL     1      41.446 -13.666   0.290  1.00  0.00    -0.149 NA
HETATM    9  N   UNL     1      41.268 -14.978   0.059  1.00  0.00    -0.279 N 
HETATM   10  H   UNL     1      40.743 -15.253  -0.766  1.00  0.00     0.189 HD
HETATM   11  C   UNL     1      43.318 -15.425   3.031  1.00  0.00     0.075 C 
ENDROOT
BRANCH  11  12
HETATM   12  C   UNL     1      42.989 -14.636   4.291  1.00  0.00    -0.045 A 
HETATM   13  C   UNL     1      43.942 -14.307   5.271  1.00  0.00     0.050 A 
HETATM   14  C   UNL     1      43.591 -13.530   6.371  1.00  0.00     0.117 A 
HETATM   15  F   UNL     1      44.520 -13.227   7.287  1.00  0.00    -0.206 F 
HETATM   16  C   UNL     1      42.296 -13.057   6.527  1.00  0.00     0.042 A 
HETATM   17  C   UNL     1      41.337 -13.363   5.566  1.00  0.00     0.004 A 
HETATM   18  C   UNL     1      41.682 -14.143   4.456  1.00  0.00     0.008 A 
ENDBRANCH  11  12
BRANCH   1  19
HETATM   19  C   UNL     1      42.268 -17.439   4.246  1.00  0.00     0.267 C 
HETATM   20  O   UNL     1      41.058 -17.429   4.056  1.00  0.00    -0.265 OA
BRANCH  19  21
HETATM   21  O   UNL     1      42.868 -17.821   5.401  1.00  0.00    -0.316 OA
BRANCH  21  22
HETATM   22  C   UNL     1      44.252 -18.213   5.294  1.00  0.00     0.123 C 
HETATM   23  C   UNL     1      44.362 -19.734   5.329  1.00  0.00     0.040 C 
HETATM   24  C   UNL     1      44.992 -17.597   6.475  1.00  0.00     0.040 C 
ENDBRANCH  21  22
ENDBRANCH  19  21
ENDBRANCH   1  19
BRANCH   2  25
HETATM   25  O   UNL     1      44.318 -17.560   1.096  1.00  0.00    -0.389 OA
HETATM   26  H   UNL     1      44.082 -17.351   0.174  1.00  0.00     0.210 HD
ENDBRANCH   2  25
BRANCH   7  27
HETATM   27  O   UNL     1      42.577 -12.445   1.821  1.00  0.00    -0.343 OA
HETATM   28  H   UNL     1      43.293 -12.105   1.263  1.00  0.00     0.219 HD
ENDBRANCH   7  27
TORSDOF 6
ENDMDL
MODEL 5
REMARK VINA RESULT:      -6.8      2.955      5.263
REMARK  6 active torsions:
REMARK  status: ('A' for Active; 'I' for Inactive)
REMARK    1  A    between atoms: C_2  and  O_3 
REMARK    2  A    between atoms: O_3  and  C_4 
REMARK    3  A    between atoms: C_4  and  C_5 
REMARK    4  A    between atoms: C_6  and  O_7 
REMARK    5  A    between atoms: C_12  and  O_13 
REMARK    6  A    between atoms: C_17  and  C_18 
ROOT
HETATM    1  C   UNL     1      40.585 -15.836   3.705  1.00  0.00     0.133 C 
HETATM    2  C   UNL     1      40.150 -15.758   2.209  1.00  0.00     0.073 C 
HETATM    3  C   UNL     1      39.151 -14.623   1.936  1.00  0.00     0.047 C 
HETATM    4  C   UNL     1      41.345 -15.641   1.216  1.00  0.00     0.097 C 
HETATM    5  C   UNL     1      42.444 -16.547   1.638  1.00  0.00     0.042 A 
HETATM    6  C   UNL     1      42.615 -17.130   2.876  1.00  0.00     0.030 A 
HETATM    7  C   UNL     1      43.733 -17.960   2.682  1.00  0.00     0.190 A 
HETATM    8  N   UNL     1      44.260 -17.874   1.467  1.00  0.00    -0.149 NA
HETATM    9  N   UNL     1      43.446 -17.010   0.837  1.00  0.00    -0.279 N 
HETATM   10  H   UNL     1      43.625 -16.807  -0.141  1.00  0.00     0.189 HD
HETATM   11  C   UNL     1      41.656 -16.929   4.005  1.00  0.00     0.075 C 
ENDROOT
BRANCH  11  12
HETATM   12  C   UNL     1      42.435 -16.722   5.297  1.00  0.00    -0.045 A 
HETATM   13  C   UNL     1      43.520 -15.836   5.415  1.00  0.00     0.050 A 
HETATM   14  C   UNL     1      44.152 -15.645   6.641  1.00  0.00     0.117 A 
HETATM   15  F   UNL     1      45.180 -14.791   6.726  1.00  0.00    -0.206 F 
HETATM   16  C   UNL     1      43.726 -16.318   7.776  1.00  0.00     0.042 A 
HETATM   17  C   UNL     1      42.647 -17.194   7.686  1.00  0.00     0.004 A 
HETATM   18  C   UNL     1      42.005 -17.391   6.458  1.00  0.00     0.008 A 
ENDBRANCH  11  12
BRANCH   1  19
HETATM   19  C   UNL     1      40.927 -14.474   4.274  1.00  0.00     0.267 C 
HETATM   20  O   UNL     1      41.867 -13.807   3.859  1.00  0.00    -0.265 OA
BRANCH  19  21
HETATM   21  O   UNL     1      40.109 -14.109   5.294  1.00  0.00    -0.316 OA
BRANCH  21  22
HETATM   22  C   UNL     1      40.027 -12.694   5.561  1.00  0.00     0.123 C 
HETATM   23  C   UNL     1      39.535 -12.467   6.987  1.00  0.00     0.040 C 
HETATM   24  C   UNL     1      39.050 -12.097   4.557  1.00  0.00     0.040 C 
ENDBRANCH  21  22
ENDBRANCH  19  21
ENDBRANCH   1  19
BRANCH   2  25
HETATM   25  O   UNL     1      39.455 -16.985   1.895  1.00  0.00    -0.389 OA
HETATM   26  H   UNL     1      39.655 -17.233   0.974  1.00  0.00     0.210 HD
ENDBRANCH   2  25
BRANCH   7  27
HETATM   27  O   UNL     1      44.327 -18.808   3.525  1.00  0.00    -0.343 OA
HETATM   28  H   UNL     1      44.789 -18.311   4.216  1.00  0.00     0.219 HD
ENDBRANCH   7  27
TORSDOF 6
ENDMDL
MODEL 6
REMARK VINA RESULT:      -6.8      3.613      5.941
REMARK  6 active torsions:
REMARK  status: ('A' for Active; 'I' for Inactive)
REMARK    1  A    between atoms: C_2  and  O_3 
REMARK    2  A    between atoms: O_3  and  C_4 
REMARK    3  A    between atoms: C_4  and  C_5 
REMARK    4  A    between atoms: C_6  and  O_7 
REMARK    5  A    between atoms: C_12  and  O_13 
REMARK    6  A    between atoms: C_17  and  C_18 
ROOT
HETATM    1  C   UNL     1      43.189 -16.690   3.127  1.00  0.00     0.133 C 
HETATM    2  C   UNL     1      43.279 -17.551   1.830  1.00  0.00     0.073 C 
HETATM    3  C   UNL     1      43.202 -19.060   2.109  1.00  0.00     0.047 C 
HETATM    4  C   UNL     1      42.219 -17.172   0.753  1.00  0.00     0.097 C 
HETATM    5  C   UNL     1      42.086 -15.696   0.672  1.00  0.00     0.042 A 
HETATM    6  C   UNL     1      42.500 -14.768   1.605  1.00  0.00     0.030 A 
HETATM    7  C   UNL     1      42.230 -13.542   0.973  1.00  0.00     0.190 A 
HETATM    8  N   UNL     1      41.650 -13.667  -0.214  1.00  0.00    -0.149 NA
HETATM    9  N   UNL     1      41.581 -14.998  -0.386  1.00  0.00    -0.279 N 
HETATM   10  H   UNL     1      41.200 -15.351  -1.258  1.00  0.00     0.189 HD
HETATM   11  C   UNL     1      43.188 -15.151   2.875  1.00  0.00     0.075 C 
ENDROOT
BRANCH  11  12
HETATM   12  C   UNL     1      42.632 -14.317   4.022  1.00  0.00    -0.045 A 
HETATM   13  C   UNL     1      41.272 -13.987   4.151  1.00  0.00     0.050 A 
HETATM   14  C   UNL     1      40.816 -13.273   5.256  1.00  0.00     0.117 A 
HETATM   15  F   UNL     1      39.514 -12.978   5.357  1.00  0.00    -0.206 F 
HETATM   16  C   UNL     1      41.689 -12.874   6.258  1.00  0.00     0.042 A 
HETATM   17  C   UNL     1      43.039 -13.196   6.155  1.00  0.00     0.004 A 
HETATM   18  C   UNL     1      43.506 -13.915   5.049  1.00  0.00     0.008 A 
ENDBRANCH  11  12
BRANCH   1  19
HETATM   19  C   UNL     1      42.082 -17.158   4.050  1.00  0.00     0.267 C 
HETATM   20  O   UNL     1      40.922 -17.279   3.674  1.00  0.00    -0.265 OA
BRANCH  19  21
HETATM   21  O   UNL     1      42.514 -17.386   5.316  1.00  0.00    -0.316 OA
BRANCH  21  22
HETATM   22  C   UNL     1      43.882 -17.821   5.447  1.00  0.00     0.123 C 
HETATM   23  C   UNL     1      43.924 -19.325   5.694  1.00  0.00     0.040 C 
HETATM   24  C   UNL     1      44.488 -17.070   6.627  1.00  0.00     0.040 C 
ENDBRANCH  21  22
ENDBRANCH  19  21
ENDBRANCH   1  19
BRANCH   2  25
HETATM   25  O   UNL     1      44.581 -17.320   1.245  1.00  0.00    -0.389 OA
HETATM   26  H   UNL     1      44.527 -16.546   0.655  1.00  0.00     0.210 HD
ENDBRANCH   2  25
BRANCH   7  27
HETATM   27  O   UNL     1      42.472 -12.295   1.383  1.00  0.00    -0.343 OA
HETATM   28  H   UNL     1      43.097 -11.867   0.778  1.00  0.00     0.219 HD
ENDBRANCH   7  27
TORSDOF 6
ENDMDL
MODEL 7
REMARK VINA RESULT:      -6.8      3.866      5.899
REMARK  6 active torsions:
REMARK  status: ('A' for Active; 'I' for Inactive)
REMARK    1  A    between atoms: C_2  and  O_3 
REMARK    2  A    between atoms: O_3  and  C_4 
REMARK    3  A    between atoms: C_4  and  C_5 
REMARK    4  A    between atoms: C_6  and  O_7 
REMARK    5  A    between atoms: C_12  and  O_13 
REMARK    6  A    between atoms: C_17  and  C_18 
ROOT
HETATM    1  C   UNL     1      41.579 -13.870   3.947  1.00  0.00     0.133 C 
HETATM    2  C   UNL     1      41.079 -12.498   3.399  1.00  0.00     0.073 C 
HETATM    3  C   UNL     1      41.418 -11.323   4.330  1.00  0.00     0.047 C 
HETATM    4  C   UNL     1      41.587 -12.178   1.961  1.00  0.00     0.097 C 
HETATM    5  C   UNL     1      41.522 -13.399   1.118  1.00  0.00     0.042 A 
HETATM    6  C   UNL     1      41.411 -14.704   1.548  1.00  0.00     0.030 A 
HETATM    7  C   UNL     1      41.281 -15.423   0.346  1.00  0.00     0.190 A 
HETATM    8  N   UNL     1      41.360 -14.666  -0.741  1.00  0.00    -0.149 NA
HETATM    9  N   UNL     1      41.496 -13.425  -0.245  1.00  0.00    -0.279 N 
HETATM   10  H   UNL     1      41.540 -12.649  -0.898  1.00  0.00     0.189 HD
HETATM   11  C   UNL     1      41.319 -15.075   2.993  1.00  0.00     0.075 C 
ENDROOT
BRANCH  11  12
HETATM   12  C   UNL     1      42.188 -16.297   3.257  1.00  0.00    -0.045 A 
HETATM   13  C   UNL     1      41.928 -17.227   4.279  1.00  0.00     0.050 A 
HETATM   14  C   UNL     1      42.726 -18.358   4.429  1.00  0.00     0.117 A 
HETATM   15  F   UNL     1      42.452 -19.231   5.408  1.00  0.00    -0.206 F 
HETATM   16  C   UNL     1      43.791 -18.599   3.575  1.00  0.00     0.042 A 
HETATM   17  C   UNL     1      44.063 -17.697   2.551  1.00  0.00     0.004 A 
HETATM   18  C   UNL     1      43.266 -16.558   2.391  1.00  0.00     0.008 A 
ENDBRANCH  11  12
BRANCH   1  19
HETATM   19  C   UNL     1      43.001 -13.797   4.465  1.00  0.00     0.267 C 
HETATM   20  O   UNL     1      43.954 -13.559   3.732  1.00  0.00    -0.265 OA
BRANCH  19  21
HETATM   21  O   UNL     1      43.092 -14.053   5.794  1.00  0.00    -0.316 OA
BRANCH  21  22
HETATM   22  C   UNL     1      44.379 -14.503   6.263  1.00  0.00     0.123 C 
HETATM   23  C   UNL     1      44.279 -15.950   6.735  1.00  0.00     0.040 C 
HETATM   24  C   UNL     1      44.788 -13.593   7.415  1.00  0.00     0.040 C 
ENDBRANCH  21  22
ENDBRANCH  19  21
ENDBRANCH   1  19
BRANCH   2  25
HETATM   25  O   UNL     1      39.636 -12.555   3.337  1.00  0.00    -0.389 OA
HETATM   26  H   UNL     1      39.271 -11.824   3.868  1.00  0.00     0.210 HD
ENDBRANCH   2  25
BRANCH   7  27
HETATM   27  O   UNL     1      41.089 -16.728   0.145  1.00  0.00    -0.343 OA
HETATM   28  H   UNL     1      40.554 -16.860  -0.652  1.00  0.00     0.219 HD
ENDBRANCH   7  27
TORSDOF 6
ENDMDL
MODEL 8
REMARK VINA RESULT:      -6.7      4.105      7.010
REMARK  6 active torsions:
REMARK  status: ('A' for Active; 'I' for Inactive)
REMARK    1  A    between atoms: C_2  and  O_3 
REMARK    2  A    between atoms: O_3  and  C_4 
REMARK    3  A    between atoms: C_4  and  C_5 
REMARK    4  A    between atoms: C_6  and  O_7 
REMARK    5  A    between atoms: C_12  and  O_13 
REMARK    6  A    between atoms: C_17  and  C_18 
ROOT
HETATM    1  C   UNL     1      42.564 -14.129   2.801  1.00  0.00     0.133 C 
HETATM    2  C   UNL     1      41.775 -13.324   1.723  1.00  0.00     0.073 C 
HETATM    3  C   UNL     1      41.821 -13.980   0.334  1.00  0.00     0.047 C 
HETATM    4  C   UNL     1      40.292 -13.047   2.112  1.00  0.00     0.097 C 
HETATM    5  C   UNL     1      40.206 -12.677   3.548  1.00  0.00     0.042 A 
HETATM    6  C   UNL     1      41.159 -12.887   4.522  1.00  0.00     0.030 A 
HETATM    7  C   UNL     1      40.608 -12.247   5.646  1.00  0.00     0.190 A 
HETATM    8  N   UNL     1      39.403 -11.733   5.433  1.00  0.00    -0.149 NA
HETATM    9  N   UNL     1      39.179 -11.997   4.134  1.00  0.00    -0.279 N 
HETATM   10  H   UNL     1      38.317 -11.660   3.717  1.00  0.00     0.189 HD
HETATM   11  C   UNL     1      42.476 -13.533   4.239  1.00  0.00     0.075 C 
ENDROOT
BRANCH  11  12
HETATM   12  C   UNL     1      42.809 -14.512   5.357  1.00  0.00    -0.045 A 
HETATM   13  C   UNL     1      41.919 -15.503   5.810  1.00  0.00     0.050 A 
HETATM   14  C   UNL     1      42.306 -16.408   6.794  1.00  0.00     0.117 A 
HETATM   15  F   UNL     1      41.441 -17.345   7.203  1.00  0.00    -0.206 F 
HETATM   16  C   UNL     1      43.576 -16.360   7.349  1.00  0.00     0.042 A 
HETATM   17  C   UNL     1      44.477 -15.394   6.911  1.00  0.00     0.004 A 
HETATM   18  C   UNL     1      44.098 -14.480   5.921  1.00  0.00     0.008 A 
ENDBRANCH  11  12
BRANCH   1  19
HETATM   19  C   UNL     1      42.269 -15.614   2.736  1.00  0.00     0.267 C 
HETATM   20  O   UNL     1      41.128 -16.058   2.775  1.00  0.00    -0.265 OA
BRANCH  19  21
HETATM   21  O   UNL     1      43.393 -16.372   2.668  1.00  0.00    -0.316 OA
BRANCH  21  22
HETATM   22  C   UNL     1      43.215 -17.785   2.893  1.00  0.00     0.123 C 
HETATM   23  C   UNL     1      44.030 -18.220   4.107  1.00  0.00     0.040 C 
HETATM   24  C   UNL     1      43.694 -18.510   1.642  1.00  0.00     0.040 C 
ENDBRANCH  21  22
ENDBRANCH  19  21
ENDBRANCH   1  19
BRANCH   2  25
HETATM   25  O   UNL     1      42.423 -12.040   1.580  1.00  0.00    -0.389 OA
HETATM   26  H   UNL     1      41.829 -11.348   1.922  1.00  0.00     0.210 HD
ENDBRANCH   2  25
BRANCH   7  27
HETATM   27  O   UNL     1      41.112 -12.083   6.871  1.00  0.00    -0.343 OA
HETATM   28  H   UNL     1      42.077 -12.009   6.820  1.00  0.00     0.219 HD
ENDBRANCH   7  27
TORSDOF 6
ENDMDL
MODEL 9
REMARK VINA RESULT:      -6.5      2.958      4.694
REMARK  6 active torsions:
REMARK  status: ('A' for Active; 'I' for Inactive)
REMARK    1  A    between atoms: C_2  and  O_3 
REMARK    2  A    between atoms: O_3  and  C_4 
REMARK    3  A    between atoms: C_4  and  C_5 
REMARK    4  A    between atoms: C_6  and  O_7 
REMARK    5  A    between atoms: C_12  and  O_13 
REMARK    6  A    between atoms: C_17  and  C_18 
ROOT
HETATM    1  C   UNL     1      42.592 -17.532   5.602  1.00  0.00     0.133 C 
HETATM    2  C   UNL     1      43.411 -17.873   6.884  1.00  0.00     0.073 C 
HETATM    3  C   UNL     1      43.926 -19.321   6.896  1.00  0.00     0.047 C 
HETATM    4  C   UNL     1      44.601 -16.902   7.142  1.00  0.00     0.097 C 
HETATM    5  C   UNL     1      44.184 -15.505   6.860  1.00  0.00     0.042 A 
HETATM    6  C   UNL     1      43.088 -15.092   6.133  1.00  0.00     0.030 A 
HETATM    7  C   UNL     1      43.117 -13.694   6.283  1.00  0.00     0.190 A 
HETATM    8  N   UNL     1      44.156 -13.252   6.981  1.00  0.00    -0.149 NA
HETATM    9  N   UNL     1      44.793 -14.381   7.336  1.00  0.00    -0.279 N 
HETATM   10  H   UNL     1      45.618 -14.302   7.922  1.00  0.00     0.189 HD
HETATM   11  C   UNL     1      42.117 -16.049   5.520  1.00  0.00     0.075 C 
ENDROOT
BRANCH  11  12
HETATM   12  C   UNL     1      41.754 -15.572   4.120  1.00  0.00    -0.045 A 
HETATM   13  C   UNL     1      40.443 -15.588   3.611  1.00  0.00     0.050 A 
HETATM   14  C   UNL     1      40.167 -15.079   2.345  1.00  0.00     0.117 A 
HETATM   15  F   UNL     1      38.909 -15.102   1.888  1.00  0.00    -0.206 F 
HETATM   16  C   UNL     1      41.172 -14.541   1.556  1.00  0.00     0.042 A 
HETATM   17  C   UNL     1      42.477 -14.507   2.042  1.00  0.00     0.004 A 
HETATM   18  C   UNL     1      42.764 -15.014   3.314  1.00  0.00     0.008 A 
ENDBRANCH  11  12
BRANCH   1  19
HETATM   19  C   UNL     1      43.270 -18.027   4.340  1.00  0.00     0.267 C 
HETATM   20  O   UNL     1      44.449 -17.797   4.096  1.00  0.00    -0.265 OA
BRANCH  19  21
HETATM   21  O   UNL     1      42.428 -18.705   3.520  1.00  0.00    -0.316 OA
BRANCH  21  22
HETATM   22  C   UNL     1      42.807 -18.759   2.131  1.00  0.00     0.123 C 
HETATM   23  C   UNL     1      41.671 -18.225   1.265  1.00  0.00     0.040 C 
HETATM   24  C   UNL     1      43.096 -20.217   1.793  1.00  0.00     0.040 C 
ENDBRANCH  21  22
ENDBRANCH  19  21
ENDBRANCH   1  19
BRANCH   2  25
HETATM   25  O   UNL     1      42.516 -17.759   8.014  1.00  0.00    -0.389 OA
HETATM   26  H   UNL     1      41.648 -18.121   7.764  1.00  0.00     0.210 HD
ENDBRANCH   2  25
BRANCH   7  27
HETATM   27  O   UNL     1      42.267 -12.767   5.836  1.00  0.00    -0.343 OA
HETATM   28  H   UNL     1      41.797 -12.368   6.584  1.00  0.00     0.219 HD
ENDBRANCH   7  27
TORSDOF 6
ENDMDL
MODEL 10
REMARK VINA RESULT:      -6.3      2.677      4.771
REMARK  6 active torsions:
REMARK  status: ('A' for Active; 'I' for Inactive)
REMARK    1  A    between atoms: C_2  and  O_3 
REMARK    2  A    between atoms: O_3  and  C_4 
REMARK    3  A    between atoms: C_4  and  C_5 
REMARK    4  A    between atoms: C_6  and  O_7 
REMARK    5  A    between atoms: C_12  and  O_13 
REMARK    6  A    between atoms: C_17  and  C_18 
ROOT
HETATM    1  C   UNL     1      41.548 -16.441   3.826  1.00  0.00     0.133 C 
HETATM    2  C   UNL     1      40.997 -16.415   2.367  1.00  0.00     0.073 C 
HETATM    3  C   UNL     1      40.467 -15.033   1.954  1.00  0.00     0.047 C 
HETATM    4  C   UNL     1      42.021 -16.912   1.304  1.00  0.00     0.097 C 
HETATM    5  C   UNL     1      42.747 -18.102   1.818  1.00  0.00     0.042 A 
HETATM    6  C   UNL     1      42.837 -18.523   3.128  1.00  0.00     0.030 A 
HETATM    7  C   UNL     1      43.533 -19.739   3.022  1.00  0.00     0.190 A 
HETATM    8  N   UNL     1      43.904 -20.038   1.783  1.00  0.00    -0.149 NA
HETATM    9  N   UNL     1      43.401 -19.026   1.057  1.00  0.00    -0.279 N 
HETATM   10  H   UNL     1      43.524 -19.050   0.049  1.00  0.00     0.189 HD
HETATM   11  C   UNL     1      42.164 -17.808   4.255  1.00  0.00     0.075 C 
ENDROOT
BRANCH  11  12
HETATM   12  C   UNL     1      43.113 -17.735   5.444  1.00  0.00    -0.045 A 
HETATM   13  C   UNL     1      42.683 -17.533   6.767  1.00  0.00     0.050 A 
HETATM   14  C   UNL     1      43.595 -17.539   7.819  1.00  0.00     0.117 A 
HETATM   15  F   UNL     1      43.158 -17.349   9.070  1.00  0.00    -0.206 F 
HETATM   16  C   UNL     1      44.947 -17.748   7.591  1.00  0.00     0.042 A 
HETATM   17  C   UNL     1      45.395 -17.959   6.290  1.00  0.00     0.004 A 
HETATM   18  C   UNL     1      44.486 -17.956   5.226  1.00  0.00     0.008 A 
ENDBRANCH  11  12
BRANCH   1  19
HETATM   19  C   UNL     1      42.437 -15.250   4.124  1.00  0.00     0.267 C 
HETATM   20  O   UNL     1      43.445 -15.006   3.472  1.00  0.00    -0.265 OA
BRANCH  19  21
HETATM   21  O   UNL     1      42.013 -14.530   5.193  1.00  0.00    -0.316 OA
BRANCH  21  22
HETATM   22  C   UNL     1      42.870 -13.445   5.603  1.00  0.00     0.123 C 
HETATM   23  C   UNL     1      43.841 -13.931   6.673  1.00  0.00     0.040 C 
HETATM   24  C   UNL     1      41.975 -12.342   6.155  1.00  0.00     0.040 C 
ENDBRANCH  21  22
ENDBRANCH  19  21
ENDBRANCH   1  19
BRANCH   2  25
HETATM   25  O   UNL     1      39.863 -17.310   2.317  1.00  0.00    -0.389 OA
HETATM   26  H   UNL     1      39.113 -16.891   2.776  1.00  0.00     0.210 HD
ENDBRANCH   2  25
BRANCH   7  27
HETATM   27  O   UNL     1      43.867 -20.621   3.967  1.00  0.00    -0.343 OA
HETATM   28  H   UNL     1      44.470 -21.283   3.598  1.00  0.00     0.219 HD
ENDBRANCH   7  27
TORSDOF 6
ENDMDL
