MODEL 1
REMARK VINA RESULT:      -9.2      0.000      0.000
REMARK  3 active torsions:
REMARK  status: ('A' for Active; 'I' for Inactive)
REMARK    1  A    between atoms: C_3  and  C_4 
REMARK       I    between atoms: C_4  and  N_5 
REMARK    2  A    between atoms: N_5  and  C_6 
REMARK    3  A    between atoms: C_13  and  C_14 
REMARK       I    between atoms: C_14  and  N_15 
ROOT
HETATM    1  C   UNL     1      41.124 -16.206   1.079  1.00  0.00     0.036 A 
HETATM    2  C   UNL     1      41.324 -15.742  -0.228  1.00  0.00     0.046 A 
HETATM    3  C   UNL     1      40.569 -14.645  -0.703  1.00  0.00     0.030 A 
HETATM    4  C   UNL     1      39.638 -14.055   0.142  1.00  0.00     0.063 A 
HETATM    5  N   UNL     1      39.076 -13.044  -0.585  1.00  0.00    -0.277 N 
HETATM    6  H   UNL     1      38.354 -12.400  -0.284  1.00  0.00     0.189 HD
HETATM    7  N   UNL     1      39.560 -12.919  -1.831  1.00  0.00    -0.168 NA
HETATM    8  C   UNL     1      40.484 -13.903  -1.920  1.00  0.00     0.156 A 
HETATM    9  C   UNL     1      39.409 -14.492   1.447  1.00  0.00     0.034 A 
HETATM   10  C   UNL     1      40.172 -15.579   1.896  1.00  0.00     0.032 A 
ENDROOT
BRANCH   1  11
HETATM   11  N   UNL     1      41.823 -17.292   1.649  1.00  0.00    -0.322 N 
HETATM   12  C   UNL     1      43.159 -17.358   2.007  1.00  0.00     0.273 C 
HETATM   13  O   UNL     1      43.951 -16.428   1.909  1.00  0.00    -0.266 OA
HETATM   14  H   UNL     1      41.268 -18.106   1.862  1.00  0.00     0.169 HD
BRANCH  12  15
HETATM   15  C   UNL     1      43.561 -18.656   2.549  1.00  0.00     0.104 A 
HETATM   16  N   UNL     1      43.912 -18.878   3.874  1.00  0.00    -0.346 N 
HETATM   17  C   UNL     1      43.884 -17.864   4.913  1.00  0.00     0.156 C 
HETATM   18  C   UNL     1      44.277 -20.198   4.075  1.00  0.00     0.045 A 
HETATM   19  C   UNL     1      44.144 -20.846   2.848  1.00  0.00    -0.007 A 
HETATM   20  C   UNL     1      44.717 -20.880   5.222  1.00  0.00     0.030 A 
HETATM   21  C   UNL     1      43.705 -19.879   1.908  1.00  0.00     0.049 A 
HETATM   22  C   UNL     1      44.453 -22.218   2.756  1.00  0.00     0.014 A 
HETATM   23  C   UNL     1      44.886 -22.905   3.894  1.00  0.00     0.001 A 
HETATM   24  C   UNL     1      45.017 -22.242   5.109  1.00  0.00     0.002 A 
ENDBRANCH  12  15
ENDBRANCH   1  11
BRANCH   8  25
HETATM   25  C   UNL     1      41.259 -14.107  -3.153  1.00  0.00     0.270 C 
HETATM   26  N   UNL     1      42.094 -13.068  -3.465  1.00  0.00    -0.365 N 
HETATM   27  H   UNL     1      42.119 -12.264  -2.849  1.00  0.00     0.159 HD
HETATM   28  H   UNL     1      42.666 -13.120  -4.292  1.00  0.00     0.159 HD
HETATM   29  O   UNL     1      41.194 -15.103  -3.864  1.00  0.00    -0.266 OA
ENDBRANCH   8  25
TORSDOF 3
ENDMDL
MODEL 2
REMARK VINA RESULT:      -8.9      3.496      5.024
REMARK  3 active torsions:
REMARK  status: ('A' for Active; 'I' for Inactive)
REMARK    1  A    between atoms: C_3  and  C_4 
REMARK       I    between atoms: C_4  and  N_5 
REMARK    2  A    between atoms: N_5  and  C_6 
REMARK    3  A    between atoms: C_13  and  C_14 
REMARK       I    between atoms: C_14  and  N_15 
ROOT
HETATM    1  C   UNL     1      40.540 -14.904   3.440  1.00  0.00     0.036 A 
HETATM    2  C   UNL     1      40.432 -14.142   4.612  1.00  0.00     0.046 A 
HETATM    3  C   UNL     1      39.667 -12.954   4.603  1.00  0.00     0.030 A 
HETATM    4  C   UNL     1      39.043 -12.565   3.425  1.00  0.00     0.063 A 
HETATM    5  N   UNL     1      38.394 -11.400   3.724  1.00  0.00    -0.277 N 
HETATM    6  H   UNL     1      37.833 -10.832   3.099  1.00  0.00     0.189 HD
HETATM    7  N   UNL     1      38.537 -10.994   4.995  1.00  0.00    -0.168 NA
HETATM    8  C   UNL     1      39.323 -11.944   5.553  1.00  0.00     0.156 A 
HETATM    9  C   UNL     1      39.132 -13.295   2.239  1.00  0.00     0.034 A 
HETATM   10  C   UNL     1      39.893 -14.471   2.273  1.00  0.00     0.032 A 
ENDROOT
BRANCH   1  11
HETATM   11  N   UNL     1      41.279 -16.103   3.341  1.00  0.00    -0.322 N 
HETATM   12  C   UNL     1      42.618 -16.261   3.028  1.00  0.00     0.273 C 
HETATM   13  O   UNL     1      43.396 -15.338   2.817  1.00  0.00    -0.266 OA
HETATM   14  H   UNL     1      40.776 -16.946   3.571  1.00  0.00     0.169 HD
BRANCH  12  15
HETATM   15  C   UNL     1      43.053 -17.657   2.986  1.00  0.00     0.104 A 
HETATM   16  N   UNL     1      43.709 -18.306   4.025  1.00  0.00    -0.346 N 
HETATM   17  C   UNL     1      44.012 -17.702   5.310  1.00  0.00     0.156 C 
HETATM   18  C   UNL     1      44.021 -19.608   3.676  1.00  0.00     0.045 A 
HETATM   19  C   UNL     1      43.541 -19.808   2.382  1.00  0.00    -0.007 A 
HETATM   20  C   UNL     1      44.686 -20.628   4.377  1.00  0.00     0.030 A 
HETATM   21  C   UNL     1      42.948 -18.590   1.962  1.00  0.00     0.049 A 
HETATM   22  C   UNL     1      43.722 -21.062   1.765  1.00  0.00     0.014 A 
HETATM   23  C   UNL     1      44.379 -22.083   2.459  1.00  0.00     0.001 A 
HETATM   24  C   UNL     1      44.855 -21.866   3.747  1.00  0.00     0.002 A 
ENDBRANCH  12  15
ENDBRANCH   1  11
BRANCH   8  25
HETATM   25  C   UNL     1      39.719 -11.867   6.966  1.00  0.00     0.270 C 
HETATM   26  N   UNL     1      39.164 -12.838   7.755  1.00  0.00    -0.365 N 
HETATM   27  H   UNL     1      38.544 -13.515   7.327  1.00  0.00     0.159 HD
HETATM   28  H   UNL     1      39.381 -12.865   8.739  1.00  0.00     0.159 HD
HETATM   29  O   UNL     1      40.478 -11.026   7.435  1.00  0.00    -0.266 OA
ENDBRANCH   8  25
TORSDOF 3
ENDMDL
MODEL 3
REMARK VINA RESULT:      -8.4      2.349      8.718
REMARK  3 active torsions:
REMARK  status: ('A' for Active; 'I' for Inactive)
REMARK    1  A    between atoms: C_3  and  C_4 
REMARK       I    between atoms: C_4  and  N_5 
REMARK    2  A    between atoms: N_5  and  C_6 
REMARK    3  A    between atoms: C_13  and  C_14 
REMARK       I    between atoms: C_14  and  N_15 
ROOT
HETATM    1  C   UNL     1      43.224 -17.780   2.629  1.00  0.00     0.036 A 
HETATM    2  C   UNL     1      42.999 -17.565   3.995  1.00  0.00     0.046 A 
HETATM    3  C   UNL     1      43.447 -18.521   4.935  1.00  0.00     0.030 A 
HETATM    4  C   UNL     1      44.096 -19.660   4.477  1.00  0.00     0.063 A 
HETATM    5  N   UNL     1      44.400 -20.381   5.598  1.00  0.00    -0.277 N 
HETATM    6  H   UNL     1      44.878 -21.274   5.642  1.00  0.00     0.189 HD
HETATM    7  N   UNL     1      44.008 -19.813   6.748  1.00  0.00    -0.168 NA
HETATM    8  C   UNL     1      43.415 -18.661   6.356  1.00  0.00     0.156 A 
HETATM    9  C   UNL     1      44.334 -19.910   3.125  1.00  0.00     0.034 A 
HETATM   10  C   UNL     1      43.884 -18.946   2.213  1.00  0.00     0.032 A 
ENDROOT
BRANCH   1  11
HETATM   11  N   UNL     1      42.818 -16.891   1.610  1.00  0.00    -0.322 N 
HETATM   12  C   UNL     1      41.531 -16.525   1.254  1.00  0.00     0.273 C 
HETATM   13  O   UNL     1      40.517 -16.912   1.823  1.00  0.00    -0.266 OA
HETATM   14  H   UNL     1      43.563 -16.431   1.108  1.00  0.00     0.169 HD
BRANCH  12  15
HETATM   15  C   UNL     1      41.473 -15.596   0.126  1.00  0.00     0.104 A 
HETATM   16  N   UNL     1      41.704 -14.230   0.223  1.00  0.00    -0.346 N 
HETATM   17  C   UNL     1      42.080 -13.544   1.446  1.00  0.00     0.156 C 
HETATM   18  C   UNL     1      41.542 -13.612  -1.006  1.00  0.00     0.045 A 
HETATM   19  C   UNL     1      41.211 -14.611  -1.921  1.00  0.00    -0.007 A 
HETATM   20  C   UNL     1      41.652 -12.267  -1.395  1.00  0.00     0.030 A 
HETATM   21  C   UNL     1      41.166 -15.836  -1.207  1.00  0.00     0.049 A 
HETATM   22  C   UNL     1      40.986 -14.265  -3.268  1.00  0.00     0.014 A 
HETATM   23  C   UNL     1      41.098 -12.929  -3.664  1.00  0.00     0.001 A 
HETATM   24  C   UNL     1      41.425 -11.945  -2.738  1.00  0.00     0.002 A 
ENDBRANCH  12  15
ENDBRANCH   1  11
BRANCH   8  25
HETATM   25  C   UNL     1      42.842 -17.730   7.338  1.00  0.00     0.270 C 
HETATM   26  N   UNL     1      43.491 -17.721   8.544  1.00  0.00    -0.365 N 
HETATM   27  H   UNL     1      44.289 -18.332   8.669  1.00  0.00     0.159 HD
HETATM   28  H   UNL     1      43.169 -17.112   9.279  1.00  0.00     0.159 HD
HETATM   29  O   UNL     1      41.873 -17.007   7.135  1.00  0.00    -0.266 OA
ENDBRANCH   8  25
TORSDOF 3
ENDMDL
MODEL 4
REMARK VINA RESULT:      -8.3      6.150      8.830
REMARK  3 active torsions:
REMARK  status: ('A' for Active; 'I' for Inactive)
REMARK    1  A    between atoms: C_3  and  C_4 
REMARK       I    between atoms: C_4  and  N_5 
REMARK    2  A    between atoms: N_5  and  C_6 
REMARK    3  A    between atoms: C_13  and  C_14 
REMARK       I    between atoms: C_14  and  N_15 
ROOT
HETATM    1  C   UNL     1      44.809 -13.616   7.351  1.00  0.00     0.036 A 
HETATM    2  C   UNL     1      43.938 -13.039   8.286  1.00  0.00     0.046 A 
HETATM    3  C   UNL     1      44.404 -12.006   9.130  1.00  0.00     0.030 A 
HETATM    4  C   UNL     1      45.724 -11.589   9.014  1.00  0.00     0.063 A 
HETATM    5  N   UNL     1      45.876 -10.600   9.945  1.00  0.00    -0.277 N 
HETATM    6  H   UNL     1      46.715 -10.066  10.142  1.00  0.00     0.189 HD
HETATM    7  N   UNL     1      44.771 -10.331  10.657  1.00  0.00    -0.168 NA
HETATM    8  C   UNL     1      43.851 -11.193  10.165  1.00  0.00     0.156 A 
HETATM    9  C   UNL     1      46.621 -12.142   8.099  1.00  0.00     0.034 A 
HETATM   10  C   UNL     1      46.134 -13.163   7.272  1.00  0.00     0.032 A 
ENDROOT
BRANCH   1  11
HETATM   11  N   UNL     1      44.445 -14.653   6.464  1.00  0.00    -0.322 N 
HETATM   12  C   UNL     1      43.877 -15.878   6.766  1.00  0.00     0.273 C 
HETATM   13  O   UNL     1      43.562 -16.239   7.894  1.00  0.00    -0.266 OA
HETATM   14  H   UNL     1      44.576 -14.455   5.484  1.00  0.00     0.169 HD
BRANCH  12  15
HETATM   15  C   UNL     1      43.654 -16.728   5.597  1.00  0.00     0.104 A 
HETATM   16  N   UNL     1      44.343 -17.907   5.341  1.00  0.00    -0.346 N 
HETATM   17  C   UNL     1      45.345 -18.481   6.220  1.00  0.00     0.156 C 
HETATM   18  C   UNL     1      43.935 -18.468   4.143  1.00  0.00     0.045 A 
HETATM   19  C   UNL     1      42.947 -17.635   3.620  1.00  0.00    -0.007 A 
HETATM   20  C   UNL     1      44.348 -19.629   3.468  1.00  0.00     0.030 A 
HETATM   21  C   UNL     1      42.785 -16.557   4.527  1.00  0.00     0.049 A 
HETATM   22  C   UNL     1      42.344 -17.967   2.390  1.00  0.00     0.014 A 
HETATM   23  C   UNL     1      42.747 -19.123   1.716  1.00  0.00     0.001 A 
HETATM   24  C   UNL     1      43.736 -19.941   2.249  1.00  0.00     0.002 A 
ENDBRANCH  12  15
ENDBRANCH   1  11
BRANCH   8  25
HETATM   25  C   UNL     1      42.478 -11.217  10.689  1.00  0.00     0.270 C 
HETATM   26  N   UNL     1      42.364 -11.778  11.933  1.00  0.00    -0.365 N 
HETATM   27  H   UNL     1      43.202 -12.123  12.387  1.00  0.00     0.159 HD
HETATM   28  H   UNL     1      41.461 -11.836  12.373  1.00  0.00     0.159 HD
HETATM   29  O   UNL     1      41.495 -10.782  10.099  1.00  0.00    -0.266 OA
ENDBRANCH   8  25
TORSDOF 3
ENDMDL
MODEL 5
REMARK VINA RESULT:      -8.2      2.157      8.568
REMARK  3 active torsions:
REMARK  status: ('A' for Active; 'I' for Inactive)
REMARK    1  A    between atoms: C_3  and  C_4 
REMARK       I    between atoms: C_4  and  N_5 
REMARK    2  A    between atoms: N_5  and  C_6 
REMARK    3  A    between atoms: C_13  and  C_14 
REMARK       I    between atoms: C_14  and  N_15 
ROOT
HETATM    1  C   UNL     1      43.292 -17.331   2.792  1.00  0.00     0.036 A 
HETATM    2  C   UNL     1      43.636 -18.683   2.651  1.00  0.00     0.046 A 
HETATM    3  C   UNL     1      44.042 -19.422   3.785  1.00  0.00     0.030 A 
HETATM    4  C   UNL     1      44.097 -18.784   5.017  1.00  0.00     0.063 A 
HETATM    5  N   UNL     1      44.518 -19.737   5.901  1.00  0.00    -0.277 N 
HETATM    6  H   UNL     1      44.672 -19.625   6.897  1.00  0.00     0.189 HD
HETATM    7  N   UNL     1      44.741 -20.943   5.356  1.00  0.00    -0.168 NA
HETATM    8  C   UNL     1      44.452 -20.765   4.046  1.00  0.00     0.156 A 
HETATM    9  C   UNL     1      43.767 -17.440   5.195  1.00  0.00     0.034 A 
HETATM   10  C   UNL     1      43.364 -16.730   4.057  1.00  0.00     0.032 A 
ENDROOT
BRANCH   1  11
HETATM   11  N   UNL     1      42.875 -16.505   1.725  1.00  0.00    -0.322 N 
HETATM   12  C   UNL     1      41.585 -16.146   1.374  1.00  0.00     0.273 C 
HETATM   13  O   UNL     1      40.579 -16.480   1.988  1.00  0.00    -0.266 OA
HETATM   14  H   UNL     1      43.614 -16.089   1.179  1.00  0.00     0.169 HD
BRANCH  12  15
HETATM   15  C   UNL     1      41.514 -15.292   0.189  1.00  0.00     0.104 A 
HETATM   16  N   UNL     1      41.697 -13.915   0.201  1.00  0.00    -0.346 N 
HETATM   17  C   UNL     1      42.031 -13.141   1.383  1.00  0.00     0.156 C 
HETATM   18  C   UNL     1      41.534 -13.382  -1.066  1.00  0.00     0.045 A 
HETATM   19  C   UNL     1      41.251 -14.447  -1.920  1.00  0.00    -0.007 A 
HETATM   20  C   UNL     1      41.605 -12.061  -1.539  1.00  0.00     0.030 A 
HETATM   21  C   UNL     1      41.235 -15.625  -1.131  1.00  0.00     0.049 A 
HETATM   22  C   UNL     1      41.036 -14.194  -3.290  1.00  0.00     0.014 A 
HETATM   23  C   UNL     1      41.109 -12.883  -3.768  1.00  0.00     0.001 A 
HETATM   24  C   UNL     1      41.389 -11.832  -2.902  1.00  0.00     0.002 A 
ENDBRANCH  12  15
ENDBRANCH   1  11
BRANCH   8  25
HETATM   25  C   UNL     1      44.570 -21.871   3.086  1.00  0.00     0.270 C 
HETATM   26  N   UNL     1      44.738 -23.099   3.667  1.00  0.00    -0.365 N 
HETATM   27  H   UNL     1      44.767 -23.157   4.678  1.00  0.00     0.159 HD
HETATM   28  H   UNL     1      44.826 -23.917   3.087  1.00  0.00     0.159 HD
HETATM   29  O   UNL     1      44.525 -21.748   1.867  1.00  0.00    -0.266 OA
ENDBRANCH   8  25
TORSDOF 3
ENDMDL
MODEL 6
REMARK VINA RESULT:      -8.1      2.256      8.755
REMARK  3 active torsions:
REMARK  status: ('A' for Active; 'I' for Inactive)
REMARK    1  A    between atoms: C_3  and  C_4 
REMARK       I    between atoms: C_4  and  N_5 
REMARK    2  A    between atoms: N_5  and  C_6 
REMARK    3  A    between atoms: C_13  and  C_14 
REMARK       I    between atoms: C_14  and  N_15 
ROOT
HETATM    1  C   UNL     1      42.627 -17.733   2.471  1.00  0.00     0.036 A 
HETATM    2  C   UNL     1      42.534 -17.572   3.860  1.00  0.00     0.046 A 
HETATM    3  C   UNL     1      43.247 -18.444   4.713  1.00  0.00     0.030 A 
HETATM    4  C   UNL     1      44.022 -19.449   4.149  1.00  0.00     0.063 A 
HETATM    5  N   UNL     1      44.576 -20.117   5.205  1.00  0.00    -0.277 N 
HETATM    6  H   UNL     1      45.201 -20.914   5.168  1.00  0.00     0.189 HD
HETATM    7  N   UNL     1      44.233 -19.636   6.410  1.00  0.00    -0.168 NA
HETATM    8  C   UNL     1      43.409 -18.600   6.123  1.00  0.00     0.156 A 
HETATM    9  C   UNL     1      44.136 -19.642   2.772  1.00  0.00     0.034 A 
HETATM   10  C   UNL     1      43.423 -18.762   1.947  1.00  0.00     0.032 A 
ENDROOT
BRANCH   1  11
HETATM   11  N   UNL     1      41.956 -16.917   1.532  1.00  0.00    -0.322 N 
HETATM   12  C   UNL     1      41.999 -15.539   1.410  1.00  0.00     0.273 C 
HETATM   13  O   UNL     1      42.685 -14.800   2.107  1.00  0.00    -0.266 OA
HETATM   14  H   UNL     1      41.413 -17.407   0.838  1.00  0.00     0.169 HD
BRANCH  12  15
HETATM   15  C   UNL     1      41.154 -15.017   0.337  1.00  0.00     0.104 A 
HETATM   16  N   UNL     1      39.866 -14.529   0.519  1.00  0.00    -0.346 N 
HETATM   17  C   UNL     1      39.201 -14.427   1.805  1.00  0.00     0.156 C 
HETATM   18  C   UNL     1      39.309 -14.139  -0.687  1.00  0.00     0.045 A 
HETATM   19  C   UNL     1      40.270 -14.369  -1.671  1.00  0.00    -0.007 A 
HETATM   20  C   UNL     1      38.047 -13.608  -1.003  1.00  0.00     0.030 A 
HETATM   21  C   UNL     1      41.407 -14.919  -1.026  1.00  0.00     0.049 A 
HETATM   22  C   UNL     1      39.971 -14.060  -3.013  1.00  0.00     0.014 A 
HETATM   23  C   UNL     1      38.719 -13.528  -3.334  1.00  0.00     0.001 A 
HETATM   24  C   UNL     1      37.771 -13.307  -2.341  1.00  0.00     0.002 A 
ENDBRANCH  12  15
ENDBRANCH   1  11
BRANCH   8  25
HETATM   25  C   UNL     1      42.807 -17.792   7.192  1.00  0.00     0.270 C 
HETATM   26  N   UNL     1      43.479 -17.851   8.384  1.00  0.00    -0.365 N 
HETATM   27  H   UNL     1      44.312 -18.425   8.442  1.00  0.00     0.159 HD
HETATM   28  H   UNL     1      43.140 -17.327   9.174  1.00  0.00     0.159 HD
HETATM   29  O   UNL     1      41.796 -17.110   7.069  1.00  0.00    -0.266 OA
ENDBRANCH   8  25
TORSDOF 3
ENDMDL
MODEL 7
REMARK VINA RESULT:      -7.9      2.563      8.499
REMARK  3 active torsions:
REMARK  status: ('A' for Active; 'I' for Inactive)
REMARK    1  A    between atoms: C_3  and  C_4 
REMARK       I    between atoms: C_4  and  N_5 
REMARK    2  A    between atoms: N_5  and  C_6 
REMARK    3  A    between atoms: C_13  and  C_14 
REMARK       I    between atoms: C_14  and  N_15 
ROOT
HETATM    1  C   UNL     1      41.749 -16.719   3.922  1.00  0.00     0.036 A 
HETATM    2  C   UNL     1      42.569 -17.814   4.226  1.00  0.00     0.046 A 
HETATM    3  C   UNL     1      42.860 -18.115   5.576  1.00  0.00     0.030 A 
HETATM    4  C   UNL     1      42.327 -17.309   6.573  1.00  0.00     0.063 A 
HETATM    5  N   UNL     1      42.778 -17.839   7.749  1.00  0.00    -0.277 N 
HETATM    6  H   UNL     1      42.587 -17.504   8.686  1.00  0.00     0.189 HD
HETATM    7  N   UNL     1      43.558 -18.922   7.609  1.00  0.00    -0.168 NA
HETATM    8  C   UNL     1      43.619 -19.106   6.269  1.00  0.00     0.156 A 
HETATM    9  C   UNL     1      41.510 -16.209   6.308  1.00  0.00     0.034 A 
HETATM   10  C   UNL     1      41.234 -15.933   4.963  1.00  0.00     0.032 A 
ENDROOT
BRANCH   1  11
HETATM   11  N   UNL     1      41.399 -16.332   2.609  1.00  0.00    -0.322 N 
HETATM   12  C   UNL     1      41.885 -15.267   1.871  1.00  0.00     0.273 C 
HETATM   13  O   UNL     1      42.755 -14.495   2.256  1.00  0.00    -0.266 OA
HETATM   14  H   UNL     1      40.743 -16.936   2.136  1.00  0.00     0.169 HD
BRANCH  12  15
HETATM   15  C   UNL     1      41.279 -15.143   0.546  1.00  0.00     0.104 A 
HETATM   16  N   UNL     1      40.243 -14.271   0.236  1.00  0.00    -0.346 N 
HETATM   17  C   UNL     1      39.651 -13.332   1.172  1.00  0.00     0.156 C 
HETATM   18  C   UNL     1      39.860 -14.407  -1.087  1.00  0.00     0.045 A 
HETATM   19  C   UNL     1      40.682 -15.384  -1.648  1.00  0.00    -0.007 A 
HETATM   20  C   UNL     1      38.864 -13.765  -1.841  1.00  0.00     0.030 A 
HETATM   21  C   UNL     1      41.554 -15.837  -0.625  1.00  0.00     0.049 A 
HETATM   22  C   UNL     1      40.514 -15.731  -3.004  1.00  0.00     0.014 A 
HETATM   23  C   UNL     1      39.528 -15.093  -3.761  1.00  0.00     0.001 A 
HETATM   24  C   UNL     1      38.714 -14.124  -3.185  1.00  0.00     0.002 A 
ENDBRANCH  12  15
ENDBRANCH   1  11
BRANCH   8  25
HETATM   25  C   UNL     1      44.391 -20.215   5.691  1.00  0.00     0.270 C 
HETATM   26  N   UNL     1      44.146 -21.429   6.273  1.00  0.00    -0.365 N 
HETATM   27  H   UNL     1      43.476 -21.477   7.032  1.00  0.00     0.159 HD
HETATM   28  H   UNL     1      44.629 -22.248   5.941  1.00  0.00     0.159 HD
HETATM   29  O   UNL     1      45.190 -20.105   4.768  1.00  0.00    -0.266 OA
ENDBRANCH   8  25
TORSDOF 3
ENDMDL
MODEL 8
REMARK VINA RESULT:      -7.8      2.310      9.053
REMARK  3 active torsions:
REMARK  status: ('A' for Active; 'I' for Inactive)
REMARK    1  A    between atoms: C_3  and  C_4 
REMARK       I    between atoms: C_4  and  N_5 
REMARK    2  A    between atoms: N_5  and  C_6 
REMARK    3  A    between atoms: C_13  and  C_14 
REMARK       I    between atoms: C_14  and  N_15 
ROOT
HETATM    1  C   UNL     1      42.259 -17.660   2.732  1.00  0.00     0.036 A 
HETATM    2  C   UNL     1      42.451 -17.842   4.109  1.00  0.00     0.046 A 
HETATM    3  C   UNL     1      43.326 -18.854   4.564  1.00  0.00     0.030 A 
HETATM    4  C   UNL     1      43.973 -19.652   3.629  1.00  0.00     0.063 A 
HETATM    5  N   UNL     1      44.732 -20.523   4.359  1.00  0.00    -0.277 N 
HETATM    6  H   UNL     1      45.339 -21.254   4.004  1.00  0.00     0.189 HD
HETATM    7  N   UNL     1      44.641 -20.364   5.688  1.00  0.00    -0.168 NA
HETATM    8  C   UNL     1      43.773 -19.335   5.832  1.00  0.00     0.156 A 
HETATM    9  C   UNL     1      43.804 -19.503   2.253  1.00  0.00     0.034 A 
HETATM   10  C   UNL     1      42.934 -18.491   1.826  1.00  0.00     0.032 A 
ENDROOT
BRANCH   1  11
HETATM   11  N   UNL     1      41.409 -16.681   2.174  1.00  0.00    -0.322 N 
HETATM   12  C   UNL     1      41.619 -15.316   2.083  1.00  0.00     0.273 C 
HETATM   13  O   UNL     1      42.634 -14.742   2.458  1.00  0.00    -0.266 OA
HETATM   14  H   UNL     1      40.562 -17.027   1.749  1.00  0.00     0.169 HD
BRANCH  12  15
HETATM   15  C   UNL     1      40.510 -14.589   1.465  1.00  0.00     0.104 A 
HETATM   16  N   UNL     1      40.355 -14.409   0.096  1.00  0.00    -0.346 N 
HETATM   17  C   UNL     1      41.247 -14.955  -0.910  1.00  0.00     0.156 C 
HETATM   18  C   UNL     1      39.230 -13.651  -0.180  1.00  0.00     0.045 A 
HETATM   19  C   UNL     1      38.636 -13.347   1.045  1.00  0.00    -0.007 A 
HETATM   20  C   UNL     1      38.683 -13.202  -1.393  1.00  0.00     0.030 A 
HETATM   21  C   UNL     1      39.441 -13.929   2.057  1.00  0.00     0.049 A 
HETATM   22  C   UNL     1      37.457 -12.575   1.066  1.00  0.00     0.014 A 
HETATM   23  C   UNL     1      36.904 -12.129  -0.138  1.00  0.00     0.001 A 
HETATM   24  C   UNL     1      37.511 -12.438  -1.350  1.00  0.00     0.002 A 
ENDBRANCH  12  15
ENDBRANCH   1  11
BRANCH   8  25
HETATM   25  C   UNL     1      43.399 -18.839   7.164  1.00  0.00     0.270 C 
HETATM   26  N   UNL     1      43.824 -19.633   8.195  1.00  0.00    -0.365 N 
HETATM   27  H   UNL     1      44.345 -20.474   7.976  1.00  0.00     0.159 HD
HETATM   28  H   UNL     1      43.615 -19.372   9.145  1.00  0.00     0.159 HD
HETATM   29  O   UNL     1      42.767 -17.810   7.376  1.00  0.00    -0.266 OA
ENDBRANCH   8  25
TORSDOF 3
ENDMDL
MODEL 9
REMARK VINA RESULT:      -7.6      3.345      8.963
REMARK  3 active torsions:
REMARK  status: ('A' for Active; 'I' for Inactive)
REMARK    1  A    between atoms: C_3  and  C_4 
REMARK       I    between atoms: C_4  and  N_5 
REMARK    2  A    between atoms: N_5  and  C_6 
REMARK    3  A    between atoms: C_13  and  C_14 
REMARK       I    between atoms: C_14  and  N_15 
ROOT
HETATM    1  C   UNL     1      42.321 -17.634   2.706  1.00  0.00     0.036 A 
HETATM    2  C   UNL     1      42.824 -17.896   3.988  1.00  0.00     0.046 A 
HETATM    3  C   UNL     1      43.691 -18.995   4.187  1.00  0.00     0.030 A 
HETATM    4  C   UNL     1      44.019 -19.796   3.101  1.00  0.00     0.063 A 
HETATM    5  N   UNL     1      44.853 -20.758   3.598  1.00  0.00    -0.277 N 
HETATM    6  H   UNL     1      45.289 -21.516   3.085  1.00  0.00     0.189 HD
HETATM    7  N   UNL     1      45.101 -20.654   4.912  1.00  0.00    -0.168 NA
HETATM    8  C   UNL     1      44.389 -19.568   5.293  1.00  0.00     0.156 A 
HETATM    9  C   UNL     1      43.534 -19.569   1.812  1.00  0.00     0.034 A 
HETATM   10  C   UNL     1      42.680 -18.472   1.640  1.00  0.00     0.032 A 
ENDROOT
BRANCH   1  11
HETATM   11  N   UNL     1      41.450 -16.565   2.400  1.00  0.00    -0.322 N 
HETATM   12  C   UNL     1      40.730 -15.771   3.275  1.00  0.00     0.273 C 
HETATM   13  O   UNL     1      40.776 -15.862   4.496  1.00  0.00    -0.266 OA
HETATM   14  H   UNL     1      41.380 -16.324   1.424  1.00  0.00     0.169 HD
BRANCH  12  15
HETATM   15  C   UNL     1      39.900 -14.766   2.611  1.00  0.00     0.104 A 
HETATM   16  N   UNL     1      40.092 -13.394   2.717  1.00  0.00    -0.346 N 
HETATM   17  C   UNL     1      41.170 -12.771   3.463  1.00  0.00     0.156 C 
HETATM   18  C   UNL     1      39.127 -12.703   2.004  1.00  0.00     0.045 A 
HETATM   19  C   UNL     1      38.300 -13.656   1.412  1.00  0.00    -0.007 A 
HETATM   20  C   UNL     1      38.904 -11.327   1.830  1.00  0.00     0.030 A 
HETATM   21  C   UNL     1      38.784 -14.931   1.799  1.00  0.00     0.049 A 
HETATM   22  C   UNL     1      37.217 -13.230   0.616  1.00  0.00     0.014 A 
HETATM   23  C   UNL     1      36.992 -11.863   0.435  1.00  0.00     0.001 A 
HETATM   24  C   UNL     1      37.825 -10.925   1.035  1.00  0.00     0.002 A 
ENDBRANCH  12  15
ENDBRANCH   1  11
BRANCH   8  25
HETATM   25  C   UNL     1      44.394 -19.108   6.688  1.00  0.00     0.270 C 
HETATM   26  N   UNL     1      45.211 -18.034   6.919  1.00  0.00    -0.365 N 
HETATM   27  H   UNL     1      45.733 -17.647   6.142  1.00  0.00     0.159 HD
HETATM   28  H   UNL     1      45.278 -17.648   7.847  1.00  0.00     0.159 HD
HETATM   29  O   UNL     1      43.739 -19.612   7.594  1.00  0.00    -0.266 OA
ENDBRANCH   8  25
TORSDOF 3
ENDMDL
MODEL 10
REMARK VINA RESULT:      -7.6      2.731      8.780
REMARK  3 active torsions:
REMARK  status: ('A' for Active; 'I' for Inactive)
REMARK    1  A    between atoms: C_3  and  C_4 
REMARK       I    between atoms: C_4  and  N_5 
REMARK    2  A    between atoms: N_5  and  C_6 
REMARK    3  A    between atoms: C_13  and  C_14 
REMARK       I    between atoms: C_14  and  N_15 
ROOT
HETATM    1  C   UNL     1      42.911 -16.331   4.400  1.00  0.00     0.036 A 
HETATM    2  C   UNL     1      43.474 -17.613   4.328  1.00  0.00     0.046 A 
HETATM    3  C   UNL     1      43.607 -18.384   5.506  1.00  0.00     0.030 A 
HETATM    4  C   UNL     1      43.179 -17.845   6.712  1.00  0.00     0.063 A 
HETATM    5  N   UNL     1      43.436 -18.805   7.650  1.00  0.00    -0.277 N 
HETATM    6  H   UNL     1      43.252 -18.755   8.646  1.00  0.00     0.189 HD
HETATM    7  N   UNL     1      43.991 -19.925   7.163  1.00  0.00    -0.168 NA
HETATM    8  C   UNL     1      44.104 -19.681   5.836  1.00  0.00     0.156 A 
HETATM    9  C   UNL     1      42.619 -16.572   6.823  1.00  0.00     0.034 A 
HETATM   10  C   UNL     1      42.494 -15.829   5.641  1.00  0.00     0.032 A 
ENDROOT
BRANCH   1  11
HETATM   11  N   UNL     1      42.734 -15.481   3.286  1.00  0.00    -0.322 N 
HETATM   12  C   UNL     1      41.549 -15.087   2.690  1.00  0.00     0.273 C 
HETATM   13  O   UNL     1      40.433 -15.406   3.083  1.00  0.00    -0.266 OA
HETATM   14  H   UNL     1      43.576 -15.076   2.907  1.00  0.00     0.169 HD
BRANCH  12  15
HETATM   15  C   UNL     1      41.735 -14.215   1.529  1.00  0.00     0.104 A 
HETATM   16  N   UNL     1      41.683 -14.645   0.209  1.00  0.00    -0.346 N 
HETATM   17  C   UNL     1      41.392 -16.006  -0.201  1.00  0.00     0.156 C 
HETATM   18  C   UNL     1      41.932 -13.598  -0.661  1.00  0.00     0.045 A 
HETATM   19  C   UNL     1      42.135 -12.460   0.119  1.00  0.00    -0.007 A 
HETATM   20  C   UNL     1      42.001 -13.547  -2.064  1.00  0.00     0.030 A 
HETATM   21  C   UNL     1      42.016 -12.856   1.476  1.00  0.00     0.049 A 
HETATM   22  C   UNL     1      42.411 -11.231  -0.512  1.00  0.00     0.014 A 
HETATM   23  C   UNL     1      42.477 -11.173  -1.907  1.00  0.00     0.001 A 
HETATM   24  C   UNL     1      42.275 -12.317  -2.671  1.00  0.00     0.002 A 
ENDBRANCH  12  15
ENDBRANCH   1  11
BRANCH   8  25
HETATM   25  C   UNL     1      44.677 -20.683   4.926  1.00  0.00     0.270 C 
HETATM   26  N   UNL     1      44.707 -21.951   5.440  1.00  0.00    -0.365 N 
HETATM   27  H   UNL     1      44.348 -22.104   6.375  1.00  0.00     0.159 HD
HETATM   28  H   UNL     1      45.081 -22.704   4.887  1.00  0.00     0.159 HD
HETATM   29  O   UNL     1      45.097 -20.446   3.799  1.00  0.00    -0.266 OA
ENDBRANCH   8  25
TORSDOF 3
ENDMDL
