MODEL 1
REMARK VINA RESULT:      -8.4      0.000      0.000
REMARK  6 active torsions:
REMARK  status: ('A' for Active; 'I' for Inactive)
REMARK    1  A    between atoms: N_2  and  C_4 
REMARK    2  A    between atoms: C_4  and  C_5 
REMARK    3  A    between atoms: C_5  and  C_6 
REMARK    4  A    between atoms: C_6  and  N_7 
REMARK    5  A    between atoms: C_17  and  C_18 
REMARK    6  A    between atoms: C_26  and  O_27 
ROOT
HETATM    1  N   UNL     1      41.062 -14.405   0.493  1.00  0.00    -0.327 N 
HETATM    2  C   UNL     1      41.100 -15.270   1.512  1.00  0.00     0.113 C 
HETATM    3  N   UNL     1      40.400 -16.388   1.563  1.00  0.00    -0.385 N 
HETATM    4  H   UNL     1      40.463 -17.026   2.348  1.00  0.00     0.157 HD
HETATM    5  H   UNL     1      39.701 -16.658   0.888  1.00  0.00     0.157 HD
HETATM    6  C   UNL     1      42.034 -14.948   2.641  1.00  0.00     0.052 C 
HETATM    7  C   UNL     1      42.692 -13.773   2.608  1.00  0.00     0.182 C 
HETATM    8  O   UNL     1      43.586 -13.380   3.591  1.00  0.00    -0.291 OA
HETATM    9  C   UNL     1      43.670 -14.090   4.760  1.00  0.00     0.087 A 
HETATM   10  C   UNL     1      43.023 -15.316   4.935  1.00  0.00    -0.011 A 
HETATM   11  C   UNL     1      42.230 -15.913   3.796  1.00  0.00     0.095 C 
HETATM   12  C   UNL     1      44.435 -13.525   5.782  1.00  0.00     0.074 A 
HETATM   13  C   UNL     1      44.539 -14.189   6.996  1.00  0.00     0.068 A 
HETATM   14  C   UNL     1      43.893 -15.403   7.200  1.00  0.00     0.037 A 
HETATM   15  C   UNL     1      43.135 -15.967   6.174  1.00  0.00     0.014 A 
HETATM   16  N   UNL     1      42.520 -12.856   1.611  1.00  0.00    -0.219 NA
HETATM   17  C   UNL     1      41.735 -13.140   0.642  1.00  0.00     0.214 C 
ENDROOT
BRANCH   1  18
HETATM   18  C   UNL     1      40.265 -14.589  -0.743  1.00  0.00     0.133 C 
BRANCH  18  19
HETATM   19  C   UNL     1      41.077 -14.350  -2.030  1.00  0.00     0.048 C 
BRANCH  19  20
HETATM   20  C   UNL     1      40.221 -14.231  -3.292  1.00  0.00     0.235 C 
BRANCH  20  21
HETATM   21  N   UNL     1      38.991 -15.117  -3.205  1.00  0.00    -0.079 N 
HETATM   22  C   UNL     1      38.990 -16.275  -4.181  1.00  0.00     0.269 C 
HETATM   23  H   UNL     1      38.932 -15.531  -2.264  1.00  0.00     0.278 HD
HETATM   24  C   UNL     1      37.711 -14.317  -3.363  1.00  0.00     0.269 C 
ENDBRANCH  20  21
ENDBRANCH  19  20
ENDBRANCH  18  19
ENDBRANCH   1  18
BRANCH  11  25
HETATM   25  C   UNL     1      42.835 -17.238   3.326  1.00  0.00    -0.045 A 
HETATM   26  C   UNL     1      42.547 -18.431   4.013  1.00  0.00     0.010 A 
HETATM   27  C   UNL     1      43.087 -19.646   3.585  1.00  0.00     0.024 A 
HETATM   28  C   UNL     1      43.935 -19.678   2.480  1.00  0.00     0.034 A 
HETATM   29 CL   UNL     1      44.583 -21.175   1.941  1.00  0.00    -0.084 Cl
HETATM   30  C   UNL     1      44.262 -18.503   1.810  1.00  0.00     0.024 A 
HETATM   31  C   UNL     1      43.719 -17.287   2.232  1.00  0.00     0.010 A 
ENDBRANCH  11  25
BRANCH  13  32
HETATM   32  O   UNL     1      45.267 -13.684   8.030  1.00  0.00    -0.361 OA
HETATM   33  H   UNL     1      44.729 -13.665   8.838  1.00  0.00     0.217 HD
ENDBRANCH  13  32
TORSDOF 6
ENDMDL
MODEL 2
REMARK VINA RESULT:      -8.3      1.869      2.204
REMARK  6 active torsions:
REMARK  status: ('A' for Active; 'I' for Inactive)
REMARK    1  A    between atoms: N_2  and  C_4 
REMARK    2  A    between atoms: C_4  and  C_5 
REMARK    3  A    between atoms: C_5  and  C_6 
REMARK    4  A    between atoms: C_6  and  N_7 
REMARK    5  A    between atoms: C_17  and  C_18 
REMARK    6  A    between atoms: C_26  and  O_27 
ROOT
HETATM    1  N   UNL     1      41.690 -14.074  -1.646  1.00  0.00    -0.327 N 
HETATM    2  C   UNL     1      41.306 -14.857  -0.633  1.00  0.00     0.113 C 
HETATM    3  N   UNL     1      40.727 -16.034  -0.782  1.00  0.00    -0.385 N 
HETATM    4  H   UNL     1      40.459 -16.606   0.011  1.00  0.00     0.157 HD
HETATM    5  H   UNL     1      40.433 -16.420  -1.667  1.00  0.00     0.157 HD
HETATM    6  C   UNL     1      41.598 -14.364   0.754  1.00  0.00     0.052 C 
HETATM    7  C   UNL     1      42.128 -13.134   0.894  1.00  0.00     0.182 C 
HETATM    8  O   UNL     1      42.447 -12.585   2.125  1.00  0.00    -0.291 OA
HETATM    9  C   UNL     1      42.026 -13.200   3.276  1.00  0.00     0.087 A 
HETATM   10  C   UNL     1      41.443 -14.469   3.271  1.00  0.00    -0.011 A 
HETATM   11  C   UNL     1      41.297 -15.221   1.969  1.00  0.00     0.095 C 
HETATM   12  C   UNL     1      42.202 -12.489   4.464  1.00  0.00     0.074 A 
HETATM   13  C   UNL     1      41.775 -13.053   5.659  1.00  0.00     0.068 A 
HETATM   14  C   UNL     1      41.179 -14.308   5.680  1.00  0.00     0.037 A 
HETATM   15  C   UNL     1      41.011 -15.017   4.490  1.00  0.00     0.014 A 
HETATM   16  N   UNL     1      42.380 -12.312  -0.166  1.00  0.00    -0.219 NA
HETATM   17  C   UNL     1      42.145 -12.740  -1.348  1.00  0.00     0.214 C 
ENDROOT
BRANCH   1  18
HETATM   18  C   UNL     1      41.561 -14.424  -3.081  1.00  0.00     0.133 C 
BRANCH  18  19
HETATM   19  C   UNL     1      40.174 -14.094  -3.663  1.00  0.00     0.048 C 
BRANCH  19  20
HETATM   20  C   UNL     1      39.262 -15.312  -3.823  1.00  0.00     0.235 C 
BRANCH  20  21
HETATM   21  N   UNL     1      37.913 -15.078  -3.165  1.00  0.00    -0.079 N 
HETATM   22  C   UNL     1      36.803 -14.730  -4.133  1.00  0.00     0.269 C 
HETATM   23  H   UNL     1      37.615 -15.937  -2.679  1.00  0.00     0.278 HD
HETATM   24  C   UNL     1      37.994 -14.022  -2.080  1.00  0.00     0.269 C 
ENDBRANCH  20  21
ENDBRANCH  19  20
ENDBRANCH  18  19
ENDBRANCH   1  18
BRANCH  11  25
HETATM   25  C   UNL     1      42.126 -16.508   1.971  1.00  0.00    -0.045 A 
HETATM   26  C   UNL     1      41.507 -17.749   2.208  1.00  0.00     0.010 A 
HETATM   27  C   UNL     1      42.255 -18.929   2.201  1.00  0.00     0.024 A 
HETATM   28  C   UNL     1      43.628 -18.879   1.976  1.00  0.00     0.034 A 
HETATM   29 CL   UNL     1      44.544 -20.332   1.946  1.00  0.00    -0.084 Cl
HETATM   30  C   UNL     1      44.264 -17.657   1.775  1.00  0.00     0.024 A 
HETATM   31  C   UNL     1      43.519 -16.476   1.776  1.00  0.00     0.010 A 
ENDBRANCH  11  25
BRANCH  13  32
HETATM   32  O   UNL     1      41.918 -12.406   6.849  1.00  0.00    -0.361 OA
HETATM   33  H   UNL     1      42.138 -13.042   7.550  1.00  0.00     0.217 HD
ENDBRANCH  13  32
TORSDOF 6
ENDMDL
MODEL 3
REMARK VINA RESULT:      -8.2      3.705      7.754
REMARK  6 active torsions:
REMARK  status: ('A' for Active; 'I' for Inactive)
REMARK    1  A    between atoms: N_2  and  C_4 
REMARK    2  A    between atoms: C_4  and  C_5 
REMARK    3  A    between atoms: C_5  and  C_6 
REMARK    4  A    between atoms: C_6  and  N_7 
REMARK    5  A    between atoms: C_17  and  C_18 
REMARK    6  A    between atoms: C_26  and  O_27 
ROOT
HETATM    1  N   UNL     1      43.081 -18.368   3.885  1.00  0.00    -0.327 N 
HETATM    2  C   UNL     1      42.002 -17.583   3.973  1.00  0.00     0.113 C 
HETATM    3  N   UNL     1      41.252 -17.471   5.054  1.00  0.00    -0.385 N 
HETATM    4  H   UNL     1      40.446 -16.856   5.088  1.00  0.00     0.157 HD
HETATM    5  H   UNL     1      41.359 -18.031   5.887  1.00  0.00     0.157 HD
HETATM    6  C   UNL     1      41.664 -16.755   2.768  1.00  0.00     0.052 C 
HETATM    7  C   UNL     1      42.396 -16.928   1.651  1.00  0.00     0.182 C 
HETATM    8  O   UNL     1      42.179 -16.210   0.487  1.00  0.00    -0.291 OA
HETATM    9  C   UNL     1      41.052 -15.440   0.361  1.00  0.00     0.087 A 
HETATM   10  C   UNL     1      40.194 -15.194   1.436  1.00  0.00    -0.011 A 
HETATM   11  C   UNL     1      40.522 -15.756   2.799  1.00  0.00     0.095 C 
HETATM   12  C   UNL     1      40.794 -14.912  -0.905  1.00  0.00     0.074 A 
HETATM   13  C   UNL     1      39.655 -14.141  -1.097  1.00  0.00     0.068 A 
HETATM   14  C   UNL     1      38.778 -13.894  -0.048  1.00  0.00     0.037 A 
HETATM   15  C   UNL     1      39.044 -14.419   1.217  1.00  0.00     0.014 A 
HETATM   16  N   UNL     1      43.407 -17.841   1.563  1.00  0.00    -0.219 NA
HETATM   17  C   UNL     1      43.704 -18.534   2.597  1.00  0.00     0.214 C 
ENDROOT
BRANCH   1  18
HETATM   18  C   UNL     1      43.618 -19.195   4.992  1.00  0.00     0.133 C 
BRANCH  18  19
HETATM   19  C   UNL     1      45.051 -18.805   5.399  1.00  0.00     0.048 C 
BRANCH  19  20
HETATM   20  C   UNL     1      45.141 -18.107   6.758  1.00  0.00     0.235 C 
BRANCH  20  21
HETATM   21  N   UNL     1      43.977 -17.154   6.964  1.00  0.00    -0.079 N 
HETATM   22  C   UNL     1      44.310 -15.701   6.697  1.00  0.00     0.269 C 
HETATM   23  H   UNL     1      43.214 -17.400   6.317  1.00  0.00     0.278 HD
HETATM   24  C   UNL     1      43.376 -17.294   8.350  1.00  0.00     0.269 C 
ENDBRANCH  20  21
ENDBRANCH  19  20
ENDBRANCH  18  19
ENDBRANCH   1  18
BRANCH  11  25
HETATM   25  C   UNL     1      40.777 -14.642   3.817  1.00  0.00    -0.045 A 
HETATM   26  C   UNL     1      41.964 -13.890   3.762  1.00  0.00     0.010 A 
HETATM   27  C   UNL     1      42.199 -12.864   4.681  1.00  0.00     0.024 A 
HETATM   28  C   UNL     1      41.261 -12.594   5.675  1.00  0.00     0.034 A 
HETATM   29 CL   UNL     1      41.541 -11.319   6.792  1.00  0.00    -0.084 Cl
HETATM   30  C   UNL     1      40.098 -13.352   5.768  1.00  0.00     0.024 A 
HETATM   31  C   UNL     1      39.856 -14.374   4.847  1.00  0.00     0.010 A 
ENDBRANCH  11  25
BRANCH  13  32
HETATM   32  O   UNL     1      39.350 -13.603  -2.310  1.00  0.00    -0.361 OA
HETATM   33  H   UNL     1      39.270 -12.638  -2.236  1.00  0.00     0.217 HD
ENDBRANCH  13  32
TORSDOF 6
ENDMDL
MODEL 4
REMARK VINA RESULT:      -8.1      1.448      2.085
REMARK  6 active torsions:
REMARK  status: ('A' for Active; 'I' for Inactive)
REMARK    1  A    between atoms: N_2  and  C_4 
REMARK    2  A    between atoms: C_4  and  C_5 
REMARK    3  A    between atoms: C_5  and  C_6 
REMARK    4  A    between atoms: C_6  and  N_7 
REMARK    5  A    between atoms: C_17  and  C_18 
REMARK    6  A    between atoms: C_26  and  O_27 
ROOT
HETATM    1  N   UNL     1      41.021 -14.304   0.504  1.00  0.00    -0.327 N 
HETATM    2  C   UNL     1      41.064 -15.188   1.506  1.00  0.00     0.113 C 
HETATM    3  N   UNL     1      40.367 -16.309   1.537  1.00  0.00    -0.385 N 
HETATM    4  H   UNL     1      40.434 -16.963   2.309  1.00  0.00     0.157 HD
HETATM    5  H   UNL     1      39.667 -16.569   0.858  1.00  0.00     0.157 HD
HETATM    6  C   UNL     1      42.000 -14.886   2.639  1.00  0.00     0.052 C 
HETATM    7  C   UNL     1      42.654 -13.709   2.628  1.00  0.00     0.182 C 
HETATM    8  O   UNL     1      43.549 -13.333   3.615  1.00  0.00    -0.291 OA
HETATM    9  C   UNL     1      43.638 -14.066   4.770  1.00  0.00     0.087 A 
HETATM   10  C   UNL     1      42.996 -15.296   4.922  1.00  0.00    -0.011 A 
HETATM   11  C   UNL     1      42.201 -15.873   3.774  1.00  0.00     0.095 C 
HETATM   12  C   UNL     1      44.404 -13.518   5.801  1.00  0.00     0.074 A 
HETATM   13  C   UNL     1      44.513 -14.206   7.002  1.00  0.00     0.068 A 
HETATM   14  C   UNL     1      43.871 -15.425   7.183  1.00  0.00     0.037 A 
HETATM   15  C   UNL     1      43.112 -15.971   6.148  1.00  0.00     0.014 A 
HETATM   16  N   UNL     1      42.477 -12.773   1.649  1.00  0.00    -0.219 NA
HETATM   17  C   UNL     1      41.690 -13.040   0.676  1.00  0.00     0.214 C 
ENDROOT
BRANCH   1  18
HETATM   18  C   UNL     1      40.221 -14.466  -0.733  1.00  0.00     0.133 C 
BRANCH  18  19
HETATM   19  C   UNL     1      39.006 -13.522  -0.797  1.00  0.00     0.048 C 
BRANCH  19  20
HETATM   20  C   UNL     1      37.863 -13.915   0.142  1.00  0.00     0.235 C 
BRANCH  20  21
HETATM   21  N   UNL     1      37.316 -12.705   0.877  1.00  0.00    -0.079 N 
HETATM   22  C   UNL     1      36.915 -11.559  -0.027  1.00  0.00     0.269 C 
HETATM   23  H   UNL     1      36.469 -12.973   1.397  1.00  0.00     0.278 HD
HETATM   24  C   UNL     1      38.283 -12.206   1.934  1.00  0.00     0.269 C 
ENDBRANCH  20  21
ENDBRANCH  19  20
ENDBRANCH  18  19
ENDBRANCH   1  18
BRANCH  11  25
HETATM   25  C   UNL     1      42.809 -17.186   3.276  1.00  0.00    -0.045 A 
HETATM   26  C   UNL     1      42.552 -18.389   3.959  1.00  0.00     0.010 A 
HETATM   27  C   UNL     1      43.095 -19.594   3.506  1.00  0.00     0.024 A 
HETATM   28  C   UNL     1      43.915 -19.606   2.380  1.00  0.00     0.034 A 
HETATM   29 CL   UNL     1      44.565 -21.091   1.811  1.00  0.00    -0.084 Cl
HETATM   30  C   UNL     1      44.211 -18.421   1.713  1.00  0.00     0.024 A 
HETATM   31  C   UNL     1      43.665 -17.215   2.159  1.00  0.00     0.010 A 
ENDBRANCH  11  25
BRANCH  13  32
HETATM   32  O   UNL     1      45.243 -13.719   8.043  1.00  0.00    -0.361 OA
HETATM   33  H   UNL     1      45.809 -12.989   7.740  1.00  0.00     0.217 HD
ENDBRANCH  13  32
TORSDOF 6
ENDMDL
MODEL 5
REMARK VINA RESULT:      -8.0      3.221      4.682
REMARK  6 active torsions:
REMARK  status: ('A' for Active; 'I' for Inactive)
REMARK    1  A    between atoms: N_2  and  C_4 
REMARK    2  A    between atoms: C_4  and  C_5 
REMARK    3  A    between atoms: C_5  and  C_6 
REMARK    4  A    between atoms: C_6  and  N_7 
REMARK    5  A    between atoms: C_17  and  C_18 
REMARK    6  A    between atoms: C_26  and  O_27 
ROOT
HETATM    1  N   UNL     1      41.655 -15.484   0.872  1.00  0.00    -0.327 N 
HETATM    2  C   UNL     1      42.240 -15.003   1.974  1.00  0.00     0.113 C 
HETATM    3  N   UNL     1      42.673 -13.762   2.103  1.00  0.00    -0.385 N 
HETATM    4  H   UNL     1      43.102 -13.429   2.960  1.00  0.00     0.157 HD
HETATM    5  H   UNL     1      42.692 -13.081   1.359  1.00  0.00     0.157 HD
HETATM    6  C   UNL     1      42.365 -15.939   3.140  1.00  0.00     0.052 C 
HETATM    7  C   UNL     1      41.980 -17.219   2.973  1.00  0.00     0.182 C 
HETATM    8  O   UNL     1      42.041 -18.163   3.984  1.00  0.00    -0.291 OA
HETATM    9  C   UNL     1      42.710 -17.877   5.146  1.00  0.00     0.087 A 
HETATM   10  C   UNL     1      43.179 -16.595   5.438  1.00  0.00    -0.011 A 
HETATM   11  C   UNL     1      42.918 -15.463   4.471  1.00  0.00     0.095 C 
HETATM   12  C   UNL     1      42.908 -18.938   6.031  1.00  0.00     0.074 A 
HETATM   13  C   UNL     1      43.598 -18.712   7.215  1.00  0.00     0.068 A 
HETATM   14  C   UNL     1      44.088 -17.448   7.521  1.00  0.00     0.037 A 
HETATM   15  C   UNL     1      43.881 -16.390   6.637  1.00  0.00     0.014 A 
HETATM   16  N   UNL     1      41.512 -17.702   1.785  1.00  0.00    -0.219 NA
HETATM   17  C   UNL     1      41.392 -16.898   0.797  1.00  0.00     0.214 C 
ENDROOT
BRANCH   1  18
HETATM   18  C   UNL     1      41.371 -14.692  -0.349  1.00  0.00     0.133 C 
BRANCH  18  19
HETATM   19  C   UNL     1      41.097 -15.565  -1.587  1.00  0.00     0.048 C 
BRANCH  19  20
HETATM   20  C   UNL     1      40.363 -14.834  -2.713  1.00  0.00     0.235 C 
BRANCH  20  21
HETATM   21  N   UNL     1      39.005 -15.458  -2.979  1.00  0.00    -0.079 N 
HETATM   22  C   UNL     1      38.911 -16.202  -4.295  1.00  0.00     0.269 C 
HETATM   23  H   UNL     1      38.793 -16.146  -2.242  1.00  0.00     0.278 HD
HETATM   24  C   UNL     1      37.890 -14.434  -2.892  1.00  0.00     0.269 C 
ENDBRANCH  20  21
ENDBRANCH  19  20
ENDBRANCH  18  19
ENDBRANCH   1  18
BRANCH  11  25
HETATM   25  C   UNL     1      42.031 -14.385   5.097  1.00  0.00    -0.045 A 
HETATM   26  C   UNL     1      42.593 -13.171   5.533  1.00  0.00     0.010 A 
HETATM   27  C   UNL     1      41.789 -12.177   6.096  1.00  0.00     0.024 A 
HETATM   28  C   UNL     1      40.421 -12.394   6.247  1.00  0.00     0.034 A 
HETATM   29 CL   UNL     1      39.428 -11.164   6.920  1.00  0.00    -0.084 Cl
HETATM   30  C   UNL     1      39.853 -13.603   5.855  1.00  0.00     0.024 A 
HETATM   31  C   UNL     1      40.653 -14.596   5.286  1.00  0.00     0.010 A 
ENDBRANCH  11  25
BRANCH  13  32
HETATM   32  O   UNL     1      43.825 -19.709   8.114  1.00  0.00    -0.361 OA
HETATM   33  H   UNL     1      43.825 -19.349   9.016  1.00  0.00     0.217 HD
ENDBRANCH  13  32
TORSDOF 6
ENDMDL
MODEL 6
REMARK VINA RESULT:      -7.9      3.439      7.475
REMARK  6 active torsions:
REMARK  status: ('A' for Active; 'I' for Inactive)
REMARK    1  A    between atoms: N_2  and  C_4 
REMARK    2  A    between atoms: C_4  and  C_5 
REMARK    3  A    between atoms: C_5  and  C_6 
REMARK    4  A    between atoms: C_6  and  N_7 
REMARK    5  A    between atoms: C_17  and  C_18 
REMARK    6  A    between atoms: C_26  and  O_27 
ROOT
HETATM    1  N   UNL     1      41.730 -15.780   1.961  1.00  0.00    -0.327 N 
HETATM    2  C   UNL     1      41.821 -15.514   0.654  1.00  0.00     0.113 C 
HETATM    3  N   UNL     1      41.765 -16.429  -0.296  1.00  0.00    -0.385 N 
HETATM    4  H   UNL     1      41.826 -16.188  -1.279  1.00  0.00     0.157 HD
HETATM    5  H   UNL     1      41.741 -17.424  -0.132  1.00  0.00     0.157 HD
HETATM    6  C   UNL     1      41.954 -14.071   0.262  1.00  0.00     0.052 C 
HETATM    7  C   UNL     1      42.077 -13.154   1.241  1.00  0.00     0.182 C 
HETATM    8  O   UNL     1      42.194 -11.797   0.994  1.00  0.00    -0.291 OA
HETATM    9  C   UNL     1      42.412 -11.353  -0.284  1.00  0.00     0.087 A 
HETATM   10  C   UNL     1      42.333 -12.201  -1.390  1.00  0.00    -0.011 A 
HETATM   11  C   UNL     1      41.961 -13.653  -1.196  1.00  0.00     0.095 C 
HETATM   12  C   UNL     1      42.725 -10.000  -0.431  1.00  0.00     0.074 A 
HETATM   13  C   UNL     1      42.975  -9.498  -1.701  1.00  0.00     0.068 A 
HETATM   14  C   UNL     1      42.918 -10.325  -2.817  1.00  0.00     0.037 A 
HETATM   15  C   UNL     1      42.598 -11.674  -2.665  1.00  0.00     0.014 A 
HETATM   16  N   UNL     1      42.115 -13.486   2.565  1.00  0.00    -0.219 NA
HETATM   17  C   UNL     1      41.985 -14.715   2.897  1.00  0.00     0.214 C 
ENDROOT
BRANCH   1  18
HETATM   18  C   UNL     1      41.515 -17.129   2.536  1.00  0.00     0.133 C 
BRANCH  18  19
HETATM   19  C   UNL     1      42.828 -17.877   2.834  1.00  0.00     0.048 C 
BRANCH  19  20
HETATM   20  C   UNL     1      42.986 -19.187   2.059  1.00  0.00     0.235 C 
BRANCH  20  21
HETATM   21  N   UNL     1      44.193 -19.970   2.546  1.00  0.00    -0.079 N 
HETATM   22  C   UNL     1      44.176 -21.435   2.165  1.00  0.00     0.269 C 
HETATM   23  H   UNL     1      45.049 -19.573   2.132  1.00  0.00     0.278 HD
HETATM   24  C   UNL     1      44.383 -19.834   4.044  1.00  0.00     0.269 C 
ENDBRANCH  20  21
ENDBRANCH  19  20
ENDBRANCH  18  19
ENDBRANCH   1  18
BRANCH  11  25
HETATM   25  C   UNL     1      40.635 -13.987  -1.884  1.00  0.00    -0.045 A 
HETATM   26  C   UNL     1      39.418 -13.563  -1.321  1.00  0.00     0.010 A 
HETATM   27  C   UNL     1      38.204 -13.855  -1.948  1.00  0.00     0.024 A 
HETATM   28  C   UNL     1      38.194 -14.591  -3.131  1.00  0.00     0.034 A 
HETATM   29 CL   UNL     1      36.703 -14.932  -3.913  1.00  0.00    -0.084 Cl
HETATM   30  C   UNL     1      39.385 -15.051  -3.684  1.00  0.00     0.024 A 
HETATM   31  C   UNL     1      40.601 -14.755  -3.063  1.00  0.00     0.010 A 
ENDBRANCH  11  25
BRANCH  13  32
HETATM   32  O   UNL     1      43.289  -8.189  -1.905  1.00  0.00    -0.361 OA
HETATM   33  H   UNL     1      44.252  -8.086  -1.987  1.00  0.00     0.217 HD
ENDBRANCH  13  32
TORSDOF 6
ENDMDL
MODEL 7
REMARK VINA RESULT:      -7.7      3.854      7.586
REMARK  6 active torsions:
REMARK  status: ('A' for Active; 'I' for Inactive)
REMARK    1  A    between atoms: N_2  and  C_4 
REMARK    2  A    between atoms: C_4  and  C_5 
REMARK    3  A    between atoms: C_5  and  C_6 
REMARK    4  A    between atoms: C_6  and  N_7 
REMARK    5  A    between atoms: C_17  and  C_18 
REMARK    6  A    between atoms: C_26  and  O_27 
ROOT
HETATM    1  N   UNL     1      42.571 -18.217   3.594  1.00  0.00    -0.327 N 
HETATM    2  C   UNL     1      41.553 -17.375   3.803  1.00  0.00     0.113 C 
HETATM    3  N   UNL     1      40.898 -17.272   4.944  1.00  0.00    -0.385 N 
HETATM    4  H   UNL     1      40.138 -16.613   5.071  1.00  0.00     0.157 HD
HETATM    5  H   UNL     1      41.035 -17.877   5.741  1.00  0.00     0.157 HD
HETATM    6  C   UNL     1      41.175 -16.471   2.667  1.00  0.00     0.052 C 
HETATM    7  C   UNL     1      41.806 -16.632   1.488  1.00  0.00     0.182 C 
HETATM    8  O   UNL     1      41.543 -15.846   0.378  1.00  0.00    -0.291 OA
HETATM    9  C   UNL     1      40.461 -15.007   0.377  1.00  0.00     0.087 A 
HETATM   10  C   UNL     1      39.706 -14.763   1.527  1.00  0.00    -0.011 A 
HETATM   11  C   UNL     1      40.104 -15.409   2.834  1.00  0.00     0.095 C 
HETATM   12  C   UNL     1      40.138 -14.403  -0.840  1.00  0.00     0.074 A 
HETATM   13  C   UNL     1      39.038 -13.558  -0.906  1.00  0.00     0.068 A 
HETATM   14  C   UNL     1      38.263 -13.312   0.221  1.00  0.00     0.037 A 
HETATM   15  C   UNL     1      38.593 -13.912   1.436  1.00  0.00     0.014 A 
HETATM   16  N   UNL     1      42.748 -17.598   1.278  1.00  0.00    -0.219 NA
HETATM   17  C   UNL     1      43.080 -18.357   2.253  1.00  0.00     0.214 C 
ENDROOT
BRANCH   1  18
HETATM   18  C   UNL     1      43.140 -19.127   4.616  1.00  0.00     0.133 C 
BRANCH  18  19
HETATM   19  C   UNL     1      44.671 -19.018   4.739  1.00  0.00     0.048 C 
BRANCH  19  20
HETATM   20  C   UNL     1      45.422 -20.258   4.250  1.00  0.00     0.235 C 
BRANCH  20  21
HETATM   21  N   UNL     1      44.468 -21.410   3.986  1.00  0.00    -0.079 N 
HETATM   22  C   UNL     1      44.714 -22.629   4.849  1.00  0.00     0.269 C 
HETATM   23  H   UNL     1      43.503 -21.107   4.180  1.00  0.00     0.278 HD
HETATM   24  C   UNL     1      44.465 -21.812   2.523  1.00  0.00     0.269 C 
ENDBRANCH  20  21
ENDBRANCH  19  20
ENDBRANCH  18  19
ENDBRANCH   1  18
BRANCH  11  25
HETATM   25  C   UNL     1      40.506 -14.363   3.876  1.00  0.00    -0.045 A 
HETATM   26  C   UNL     1      39.681 -14.118   4.989  1.00  0.00     0.010 A 
HETATM   27  C   UNL     1      40.045 -13.173   5.950  1.00  0.00     0.024 A 
HETATM   28  C   UNL     1      41.226 -12.449   5.798  1.00  0.00     0.034 A 
HETATM   29 CL   UNL     1      41.685 -11.300   6.991  1.00  0.00    -0.084 Cl
HETATM   30  C   UNL     1      42.037 -12.650   4.685  1.00  0.00     0.024 A 
HETATM   31  C   UNL     1      41.678 -13.600   3.725  1.00  0.00     0.010 A 
ENDBRANCH  11  25
BRANCH  13  32
HETATM   32  O   UNL     1      38.674 -12.945  -2.066  1.00  0.00    -0.361 OA
HETATM   33  H   UNL     1      38.487 -12.006  -1.901  1.00  0.00     0.217 HD
ENDBRANCH  13  32
TORSDOF 6
ENDMDL
MODEL 8
REMARK VINA RESULT:      -7.6      3.745      6.835
REMARK  6 active torsions:
REMARK  status: ('A' for Active; 'I' for Inactive)
REMARK    1  A    between atoms: N_2  and  C_4 
REMARK    2  A    between atoms: C_4  and  C_5 
REMARK    3  A    between atoms: C_5  and  C_6 
REMARK    4  A    between atoms: C_6  and  N_7 
REMARK    5  A    between atoms: C_17  and  C_18 
REMARK    6  A    between atoms: C_26  and  O_27 
ROOT
HETATM    1  N   UNL     1      42.163 -17.639   3.271  1.00  0.00    -0.327 N 
HETATM    2  C   UNL     1      42.130 -16.376   2.832  1.00  0.00     0.113 C 
HETATM    3  N   UNL     1      42.669 -15.971   1.698  1.00  0.00    -0.385 N 
HETATM    4  H   UNL     1      42.615 -15.006   1.390  1.00  0.00     0.157 HD
HETATM    5  H   UNL     1      43.237 -16.547   1.094  1.00  0.00     0.157 HD
HETATM    6  C   UNL     1      41.394 -15.382   3.680  1.00  0.00     0.052 C 
HETATM    7  C   UNL     1      40.906 -15.793   4.866  1.00  0.00     0.182 C 
HETATM    8  O   UNL     1      40.201 -14.963   5.722  1.00  0.00    -0.291 OA
HETATM    9  C   UNL     1      40.163 -13.614   5.485  1.00  0.00     0.087 A 
HETATM   10  C   UNL     1      40.650 -13.051   4.304  1.00  0.00    -0.011 A 
HETATM   11  C   UNL     1      41.209 -13.947   3.223  1.00  0.00     0.095 C 
HETATM   12  C   UNL     1      39.614 -12.818   6.492  1.00  0.00     0.074 A 
HETATM   13  C   UNL     1      39.568 -11.441   6.317  1.00  0.00     0.068 A 
HETATM   14  C   UNL     1      40.060 -10.856   5.157  1.00  0.00     0.037 A 
HETATM   15  C   UNL     1      40.601 -11.656   4.151  1.00  0.00     0.014 A 
HETATM   16  N   UNL     1      41.080 -17.062   5.337  1.00  0.00    -0.219 NA
HETATM   17  C   UNL     1      41.695 -17.913   4.605  1.00  0.00     0.214 C 
ENDROOT
BRANCH   1  18
HETATM   18  C   UNL     1      42.771 -18.774   2.536  1.00  0.00     0.133 C 
BRANCH  18  19
HETATM   19  C   UNL     1      44.187 -19.126   3.029  1.00  0.00     0.048 C 
BRANCH  19  20
HETATM   20  C   UNL     1      44.405 -20.619   3.277  1.00  0.00     0.235 C 
BRANCH  20  21
HETATM   21  N   UNL     1      45.063 -20.861   4.624  1.00  0.00    -0.079 N 
HETATM   22  C   UNL     1      45.073 -22.312   5.058  1.00  0.00     0.269 C 
HETATM   23  H   UNL     1      46.049 -20.565   4.582  1.00  0.00     0.278 HD
HETATM   24  C   UNL     1      44.443 -20.007   5.713  1.00  0.00     0.269 C 
ENDBRANCH  20  21
ENDBRANCH  19  20
ENDBRANCH  18  19
ENDBRANCH   1  18
BRANCH  11  25
HETATM   25  C   UNL     1      40.373 -13.867   1.943  1.00  0.00    -0.045 A 
HETATM   26  C   UNL     1      39.067 -14.387   1.917  1.00  0.00     0.010 A 
HETATM   27  C   UNL     1      38.293 -14.309   0.756  1.00  0.00     0.024 A 
HETATM   28  C   UNL     1      38.824 -13.729  -0.394  1.00  0.00     0.034 A 
HETATM   29 CL   UNL     1      37.866 -13.614  -1.816  1.00  0.00    -0.084 Cl
HETATM   30  C   UNL     1      40.128 -13.242  -0.398  1.00  0.00     0.024 A 
HETATM   31  C   UNL     1      40.902 -13.313   0.762  1.00  0.00     0.010 A 
ENDBRANCH  11  25
BRANCH  13  32
HETATM   32  O   UNL     1      39.047 -10.615   7.266  1.00  0.00    -0.361 OA
HETATM   33  H   UNL     1      38.554 -11.132   7.923  1.00  0.00     0.217 HD
ENDBRANCH  13  32
TORSDOF 6
ENDMDL
MODEL 9
REMARK VINA RESULT:      -7.6      4.390      8.019
REMARK  6 active torsions:
REMARK  status: ('A' for Active; 'I' for Inactive)
REMARK    1  A    between atoms: N_2  and  C_4 
REMARK    2  A    between atoms: C_4  and  C_5 
REMARK    3  A    between atoms: C_5  and  C_6 
REMARK    4  A    between atoms: C_6  and  N_7 
REMARK    5  A    between atoms: C_17  and  C_18 
REMARK    6  A    between atoms: C_26  and  O_27 
ROOT
HETATM    1  N   UNL     1      40.325 -11.601   6.620  1.00  0.00    -0.327 N 
HETATM    2  C   UNL     1      41.376 -12.305   6.185  1.00  0.00     0.113 C 
HETATM    3  N   UNL     1      42.572 -12.276   6.744  1.00  0.00    -0.385 N 
HETATM    4  H   UNL     1      43.343 -12.833   6.392  1.00  0.00     0.157 HD
HETATM    5  H   UNL     1      42.839 -11.657   7.494  1.00  0.00     0.157 HD
HETATM    6  C   UNL     1      41.148 -13.208   5.008  1.00  0.00     0.052 C 
HETATM    7  C   UNL     1      39.943 -13.178   4.407  1.00  0.00     0.182 C 
HETATM    8  O   UNL     1      39.621 -13.976   3.322  1.00  0.00    -0.291 OA
HETATM    9  C   UNL     1      40.604 -14.679   2.677  1.00  0.00     0.087 A 
HETATM   10  C   UNL     1      41.902 -14.778   3.182  1.00  0.00    -0.011 A 
HETATM   11  C   UNL     1      42.244 -14.125   4.501  1.00  0.00     0.095 C 
HETATM   12  C   UNL     1      40.247 -15.295   1.476  1.00  0.00     0.074 A 
HETATM   13  C   UNL     1      41.208 -16.004   0.767  1.00  0.00     0.068 A 
HETATM   14  C   UNL     1      42.510 -16.105   1.241  1.00  0.00     0.037 A 
HETATM   15  C   UNL     1      42.860 -15.494   2.445  1.00  0.00     0.014 A 
HETATM   16  N   UNL     1      38.939 -12.342   4.803  1.00  0.00    -0.219 NA
HETATM   17  C   UNL     1      39.131 -11.584   5.816  1.00  0.00     0.214 C 
ENDROOT
BRANCH   1  18
HETATM   18  C   UNL     1      40.334 -10.720   7.812  1.00  0.00     0.133 C 
BRANCH  18  19
HETATM   19  C   UNL     1      39.505 -11.278   8.984  1.00  0.00     0.048 C 
BRANCH  19  20
HETATM   20  C   UNL     1      39.832 -10.639  10.336  1.00  0.00     0.235 C 
BRANCH  20  21
HETATM   21  N   UNL     1      40.742 -11.535  11.159  1.00  0.00    -0.079 N 
HETATM   22  C   UNL     1      40.330 -11.672  12.609  1.00  0.00     0.269 C 
HETATM   23  H   UNL     1      40.735 -12.486  10.764  1.00  0.00     0.278 HD
HETATM   24  C   UNL     1      42.189 -11.088  11.080  1.00  0.00     0.269 C 
ENDBRANCH  20  21
ENDBRANCH  19  20
ENDBRANCH  18  19
ENDBRANCH   1  18
BRANCH  11  25
HETATM   25  C   UNL     1      42.642 -15.163   5.553  1.00  0.00    -0.045 A 
HETATM   26  C   UNL     1      43.973 -15.243   6.001  1.00  0.00     0.010 A 
HETATM   27  C   UNL     1      44.342 -16.181   6.969  1.00  0.00     0.024 A 
HETATM   28  C   UNL     1      43.391 -17.060   7.482  1.00  0.00     0.034 A 
HETATM   29 CL   UNL     1      43.840 -18.199   8.687  1.00  0.00    -0.084 Cl
HETATM   30  C   UNL     1      42.077 -17.021   7.024  1.00  0.00     0.024 A 
HETATM   31  C   UNL     1      41.703 -16.080   6.061  1.00  0.00     0.010 A 
ENDBRANCH  11  25
BRANCH  13  32
HETATM   32  O   UNL     1      40.918 -16.622  -0.411  1.00  0.00    -0.361 OA
HETATM   33  H   UNL     1      40.263 -16.103  -0.907  1.00  0.00     0.217 HD
ENDBRANCH  13  32
TORSDOF 6
ENDMDL
MODEL 10
REMARK VINA RESULT:      -7.6      3.392      7.659
REMARK  6 active torsions:
REMARK  status: ('A' for Active; 'I' for Inactive)
REMARK    1  A    between atoms: N_2  and  C_4 
REMARK    2  A    between atoms: C_4  and  C_5 
REMARK    3  A    between atoms: C_5  and  C_6 
REMARK    4  A    between atoms: C_6  and  N_7 
REMARK    5  A    between atoms: C_17  and  C_18 
REMARK    6  A    between atoms: C_26  and  O_27 
ROOT
HETATM    1  N   UNL     1      41.478 -15.732   1.949  1.00  0.00    -0.327 N 
HETATM    2  C   UNL     1      41.597 -15.490   0.640  1.00  0.00     0.113 C 
HETATM    3  N   UNL     1      41.514 -16.417  -0.297  1.00  0.00    -0.385 N 
HETATM    4  H   UNL     1      41.598 -16.195  -1.283  1.00  0.00     0.157 HD
HETATM    5  H   UNL     1      41.445 -17.408  -0.119  1.00  0.00     0.157 HD
HETATM    6  C   UNL     1      41.798 -14.062   0.229  1.00  0.00     0.052 C 
HETATM    7  C   UNL     1      41.948 -13.136   1.196  1.00  0.00     0.182 C 
HETATM    8  O   UNL     1      42.127 -11.789   0.930  1.00  0.00    -0.291 OA
HETATM    9  C   UNL     1      42.380 -11.374  -0.351  1.00  0.00     0.087 A 
HETATM   10  C   UNL     1      42.279 -12.235  -1.446  1.00  0.00    -0.011 A 
HETATM   11  C   UNL     1      41.842 -13.666  -1.235  1.00  0.00     0.095 C 
HETATM   12  C   UNL     1      42.754 -10.039  -0.515  1.00  0.00     0.074 A 
HETATM   13  C   UNL     1      43.043  -9.567  -1.788  1.00  0.00     0.068 A 
HETATM   14  C   UNL     1      42.964 -10.408  -2.892  1.00  0.00     0.037 A 
HETATM   15  C   UNL     1      42.584 -11.740  -2.725  1.00  0.00     0.014 A 
HETATM   16  N   UNL     1      41.954 -13.448   2.525  1.00  0.00    -0.219 NA
HETATM   17  C   UNL     1      41.767 -14.665   2.873  1.00  0.00     0.214 C 
ENDROOT
BRANCH   1  18
HETATM   18  C   UNL     1      41.196 -17.062   2.541  1.00  0.00     0.133 C 
BRANCH  18  19
HETATM   19  C   UNL     1      42.284 -17.529   3.527  1.00  0.00     0.048 C 
BRANCH  19  20
HETATM   20  C   UNL     1      41.733 -18.086   4.841  1.00  0.00     0.235 C 
BRANCH  20  21
HETATM   21  N   UNL     1      41.950 -17.111   5.985  1.00  0.00    -0.079 N 
HETATM   22  C   UNL     1      40.812 -16.134   6.190  1.00  0.00     0.269 C 
HETATM   23  H   UNL     1      42.046 -17.634   6.867  1.00  0.00     0.278 HD
HETATM   24  C   UNL     1      43.254 -16.352   5.835  1.00  0.00     0.269 C 
ENDBRANCH  20  21
ENDBRANCH  19  20
ENDBRANCH  18  19
ENDBRANCH   1  18
BRANCH  11  25
HETATM   25  C   UNL     1      40.512 -13.954  -1.936  1.00  0.00    -0.045 A 
HETATM   26  C   UNL     1      40.482 -14.744  -3.100  1.00  0.00     0.010 A 
HETATM   27  C   UNL     1      39.271 -15.020  -3.740  1.00  0.00     0.024 A 
HETATM   28  C   UNL     1      38.084 -14.494  -3.237  1.00  0.00     0.034 A 
HETATM   29 CL   UNL     1      36.593 -14.851  -4.012  1.00  0.00    -0.084 Cl
HETATM   30  C   UNL     1      38.098 -13.679  -2.108  1.00  0.00     0.024 A 
HETATM   31  C   UNL     1      39.306 -13.406  -1.462  1.00  0.00     0.010 A 
ENDBRANCH  11  25
BRANCH  13  32
HETATM   32  O   UNL     1      43.415  -8.276  -2.007  1.00  0.00    -0.361 OA
HETATM   33  H   UNL     1      44.264  -8.096  -1.570  1.00  0.00     0.217 HD
ENDBRANCH  13  32
TORSDOF 6
ENDMDL
