MODEL 1
REMARK VINA RESULT:      -7.7      0.000      0.000
REMARK  3 active torsions:
REMARK  status: ('A' for Active; 'I' for Inactive)
REMARK    1  A    between atoms: C_4  and  C_5 
REMARK    2  A    between atoms: C_11  and  C_12 
REMARK    3  A    between atoms: C_21  and  N_22 
ROOT
HETATM    1  C   UNL     1      41.944 -16.144   3.852  1.00  0.00     0.071 A 
HETATM    2  N   UNL     1      40.645 -15.733   3.618  1.00  0.00    -0.274 N 
HETATM    3  H   UNL     1      40.021 -16.059   2.889  1.00  0.00     0.189 HD
HETATM    4  N   UNL     1      40.221 -14.742   4.424  1.00  0.00    -0.148 NA
HETATM    5  C   UNL     1      41.277 -14.545   5.200  1.00  0.00     0.199 A 
HETATM    6  C   UNL     1      42.359 -15.402   4.945  1.00  0.00     0.036 A 
HETATM    7  C   UNL     1      43.612 -15.296   5.761  1.00  0.00     0.079 C 
HETATM    8  C   UNL     1      43.626 -13.915   6.444  1.00  0.00     0.063 C 
HETATM    9  C   UNL     1      44.977 -13.422   6.936  1.00  0.00     0.020 C 
HETATM   10  N   UNL     1      46.097 -13.012   7.344  1.00  0.00    -0.096 N 
HETATM   11  C   UNL     1      42.523 -13.141   6.597  1.00  0.00     0.139 C 
HETATM   12  O   UNL     1      41.281 -13.525   6.078  1.00  0.00    -0.277 OA
ENDROOT
BRANCH   7  13
HETATM   13  C   UNL     1      43.790 -16.403   6.867  1.00  0.00     0.022 C 
HETATM   14  C   UNL     1      42.585 -17.295   7.079  1.00  0.00    -0.025 C 
HETATM   15  C   UNL     1      42.616 -18.632   6.990  1.00  0.00    -0.030 C 
HETATM   16  C   UNL     1      43.847 -19.411   6.646  1.00  0.00     0.027 C 
HETATM   17  C   UNL     1      44.947 -18.554   6.026  1.00  0.00     0.004 C 
HETATM   18  C   UNL     1      45.105 -17.208   6.722  1.00  0.00     0.010 C 
ENDBRANCH   7  13
BRANCH  11  19
HETATM   19  N   UNL     1      42.486 -11.919   7.233  1.00  0.00    -0.282 NA
HETATM   20  H   UNL     1      43.315 -11.340   7.133  1.00  0.00     0.126 HD
HETATM   21  H   UNL     1      41.622 -11.417   7.032  1.00  0.00     0.126 HD
ENDBRANCH  11  19
BRANCH   1  22
HETATM   22  C   UNL     1      42.600 -17.124   2.995  1.00  0.00    -0.007 A 
HETATM   23  C   UNL     1      42.551 -18.487   3.304  1.00  0.00     0.014 A 
HETATM   24  C   UNL     1      43.182 -19.424   2.482  1.00  0.00     0.001 A 
HETATM   25  C   UNL     1      43.870 -19.003   1.345  1.00  0.00     0.000 A 
HETATM   26  C   UNL     1      43.930 -17.649   1.030  1.00  0.00     0.001 A 
HETATM   27  C   UNL     1      43.301 -16.711   1.853  1.00  0.00     0.014 A 
ENDBRANCH   1  22
TORSDOF 3
ENDMDL
MODEL 2
REMARK VINA RESULT:      -7.4      2.416      5.064
REMARK  3 active torsions:
REMARK  status: ('A' for Active; 'I' for Inactive)
REMARK    1  A    between atoms: C_4  and  C_5 
REMARK    2  A    between atoms: C_11  and  C_12 
REMARK    3  A    between atoms: C_21  and  N_22 
ROOT
HETATM    1  C   UNL     1      43.168 -17.806   4.610  1.00  0.00     0.071 A 
HETATM    2  N   UNL     1      43.518 -17.622   5.934  1.00  0.00    -0.274 N 
HETATM    3  H   UNL     1      44.094 -18.229   6.507  1.00  0.00     0.189 HD
HETATM    4  N   UNL     1      42.958 -16.544   6.514  1.00  0.00    -0.148 NA
HETATM    5  C   UNL     1      42.258 -16.026   5.515  1.00  0.00     0.199 A 
HETATM    6  C   UNL     1      42.375 -16.715   4.298  1.00  0.00     0.036 A 
HETATM    7  C   UNL     1      41.647 -16.225   3.083  1.00  0.00     0.079 C 
HETATM    8  C   UNL     1      40.517 -15.287   3.545  1.00  0.00     0.063 C 
HETATM    9  C   UNL     1      39.394 -15.045   2.549  1.00  0.00     0.020 C 
HETATM   10  N   UNL     1      38.462 -14.845   1.724  1.00  0.00    -0.096 N 
HETATM   11  C   UNL     1      40.474 -14.706   4.770  1.00  0.00     0.139 C 
HETATM   12  O   UNL     1      41.446 -14.976   5.741  1.00  0.00    -0.277 OA
ENDROOT
BRANCH   7  13
HETATM   13  C   UNL     1      42.534 -15.461   2.029  1.00  0.00     0.022 C 
HETATM   14  C   UNL     1      41.984 -15.451   0.618  1.00  0.00    -0.025 C 
HETATM   15  C   UNL     1      41.749 -14.336  -0.087  1.00  0.00    -0.030 C 
HETATM   16  C   UNL     1      41.983 -12.955   0.443  1.00  0.00     0.027 C 
HETATM   17  C   UNL     1      42.128 -12.912   1.962  1.00  0.00     0.004 C 
HETATM   18  C   UNL     1      42.975 -14.055   2.504  1.00  0.00     0.010 C 
ENDBRANCH   7  13
BRANCH  11  19
HETATM   19  N   UNL     1      39.503 -13.833   5.208  1.00  0.00    -0.282 NA
HETATM   20  H   UNL     1      39.741 -12.847   5.168  1.00  0.00     0.126 HD
HETATM   21  H   UNL     1      38.596 -14.042   4.793  1.00  0.00     0.126 HD
ENDBRANCH  11  19
BRANCH   1  22
HETATM   22  C   UNL     1      43.590 -18.987   3.867  1.00  0.00    -0.007 A 
HETATM   23  C   UNL     1      43.151 -19.198   2.556  1.00  0.00     0.014 A 
HETATM   24  C   UNL     1      43.555 -20.332   1.847  1.00  0.00     0.001 A 
HETATM   25  C   UNL     1      44.400 -21.265   2.445  1.00  0.00     0.000 A 
HETATM   26  C   UNL     1      44.840 -21.068   3.751  1.00  0.00     0.001 A 
HETATM   27  C   UNL     1      44.434 -19.936   4.462  1.00  0.00     0.014 A 
ENDBRANCH   1  22
TORSDOF 3
ENDMDL
MODEL 3
REMARK VINA RESULT:      -7.3      3.350      4.842
REMARK  3 active torsions:
REMARK  status: ('A' for Active; 'I' for Inactive)
REMARK    1  A    between atoms: C_4  and  C_5 
REMARK    2  A    between atoms: C_11  and  C_12 
REMARK    3  A    between atoms: C_21  and  N_22 
ROOT
HETATM    1  C   UNL     1      40.855 -16.081   2.067  1.00  0.00     0.071 A 
HETATM    2  N   UNL     1      39.521 -16.425   2.172  1.00  0.00    -0.274 N 
HETATM    3  H   UNL     1      39.138 -17.341   2.373  1.00  0.00     0.189 HD
HETATM    4  N   UNL     1      38.665 -15.422   1.903  1.00  0.00    -0.148 NA
HETATM    5  C   UNL     1      39.488 -14.416   1.648  1.00  0.00     0.199 A 
HETATM    6  C   UNL     1      40.851 -14.727   1.777  1.00  0.00     0.036 A 
HETATM    7  C   UNL     1      41.890 -13.675   1.531  1.00  0.00     0.079 C 
HETATM    8  C   UNL     1      41.241 -12.540   0.717  1.00  0.00     0.063 C 
HETATM    9  C   UNL     1      42.194 -11.613  -0.021  1.00  0.00     0.020 C 
HETATM   10  N   UNL     1      42.984 -10.844  -0.634  1.00  0.00    -0.096 N 
HETATM   11  C   UNL     1      39.902 -12.355   0.618  1.00  0.00     0.139 C 
HETATM   12  O   UNL     1      38.995 -13.241   1.212  1.00  0.00    -0.277 OA
ENDROOT
BRANCH   7  13
HETATM   13  C   UNL     1      42.540 -13.056   2.825  1.00  0.00     0.022 C 
HETATM   14  C   UNL     1      41.554 -12.588   3.875  1.00  0.00    -0.025 C 
HETATM   15  C   UNL     1      41.557 -13.010   5.147  1.00  0.00    -0.030 C 
HETATM   16  C   UNL     1      42.528 -14.016   5.684  1.00  0.00     0.027 C 
HETATM   17  C   UNL     1      43.243 -14.804   4.591  1.00  0.00     0.004 C 
HETATM   18  C   UNL     1      43.672 -13.929   3.421  1.00  0.00     0.010 C 
ENDBRANCH   7  13
BRANCH  11  19
HETATM   19  N   UNL     1      39.284 -11.333  -0.069  1.00  0.00    -0.282 NA
HETATM   20  H   UNL     1      38.510 -10.880   0.410  1.00  0.00     0.126 HD
HETATM   21  H   UNL     1      39.961 -10.671  -0.446  1.00  0.00     0.126 HD
ENDBRANCH  11  19
BRANCH   1  22
HETATM   22  C   UNL     1      41.912 -17.074   2.209  1.00  0.00    -0.007 A 
HETATM   23  C   UNL     1      42.035 -17.823   3.385  1.00  0.00     0.014 A 
HETATM   24  C   UNL     1      43.050 -18.773   3.518  1.00  0.00     0.001 A 
HETATM   25  C   UNL     1      43.953 -18.980   2.477  1.00  0.00     0.000 A 
HETATM   26  C   UNL     1      43.845 -18.238   1.304  1.00  0.00     0.001 A 
HETATM   27  C   UNL     1      42.831 -17.286   1.171  1.00  0.00     0.014 A 
ENDBRANCH   1  22
TORSDOF 3
ENDMDL
MODEL 4
REMARK VINA RESULT:      -7.3      2.031      4.941
REMARK  3 active torsions:
REMARK  status: ('A' for Active; 'I' for Inactive)
REMARK    1  A    between atoms: C_4  and  C_5 
REMARK    2  A    between atoms: C_11  and  C_12 
REMARK    3  A    between atoms: C_21  and  N_22 
ROOT
HETATM    1  C   UNL     1      43.360 -15.565   5.014  1.00  0.00     0.071 A 
HETATM    2  N   UNL     1      44.112 -14.505   5.482  1.00  0.00    -0.274 N 
HETATM    3  H   UNL     1      44.804 -14.523   6.223  1.00  0.00     0.189 HD
HETATM    4  N   UNL     1      43.817 -13.320   4.916  1.00  0.00    -0.148 NA
HETATM    5  C   UNL     1      42.871 -13.655   4.051  1.00  0.00     0.199 A 
HETATM    6  C   UNL     1      42.568 -15.025   4.015  1.00  0.00     0.036 A 
HETATM    7  C   UNL     1      41.526 -15.541   3.068  1.00  0.00     0.079 C 
HETATM    8  C   UNL     1      40.646 -14.356   2.629  1.00  0.00     0.063 C 
HETATM    9  C   UNL     1      39.285 -14.707   2.052  1.00  0.00     0.020 C 
HETATM   10  N   UNL     1      38.155 -14.998   1.573  1.00  0.00    -0.096 N 
HETATM   11  C   UNL     1      41.016 -13.057   2.753  1.00  0.00     0.139 C 
HETATM   12  O   UNL     1      42.225 -12.696   3.361  1.00  0.00    -0.277 OA
ENDROOT
BRANCH   7  13
HETATM   13  C   UNL     1      42.082 -16.257   1.781  1.00  0.00     0.022 C 
HETATM   14  C   UNL     1      43.591 -16.263   1.653  1.00  0.00    -0.025 C 
HETATM   15  C   UNL     1      44.327 -17.374   1.512  1.00  0.00    -0.030 C 
HETATM   16  C   UNL     1      43.748 -18.754   1.483  1.00  0.00     0.027 C 
HETATM   17  C   UNL     1      42.320 -18.818   2.020  1.00  0.00     0.004 C 
HETATM   18  C   UNL     1      41.461 -17.656   1.541  1.00  0.00     0.010 C 
ENDBRANCH   7  13
BRANCH  11  19
HETATM   19  N   UNL     1      40.276 -11.971   2.339  1.00  0.00    -0.282 NA
HETATM   20  H   UNL     1      39.396 -12.183   1.879  1.00  0.00     0.126 HD
HETATM   21  H   UNL     1      40.182 -11.277   3.080  1.00  0.00     0.126 HD
ENDBRANCH  11  19
BRANCH   1  22
HETATM   22  C   UNL     1      43.467 -16.894   5.602  1.00  0.00    -0.007 A 
HETATM   23  C   UNL     1      43.019 -17.136   6.905  1.00  0.00     0.014 A 
HETATM   24  C   UNL     1      43.125 -18.411   7.466  1.00  0.00     0.001 A 
HETATM   25  C   UNL     1      43.682 -19.454   6.729  1.00  0.00     0.000 A 
HETATM   26  C   UNL     1      44.137 -19.225   5.433  1.00  0.00     0.001 A 
HETATM   27  C   UNL     1      44.033 -17.950   4.872  1.00  0.00     0.014 A 
ENDBRANCH   1  22
TORSDOF 3
ENDMDL
MODEL 5
REMARK VINA RESULT:      -6.9      5.293      7.441
REMARK  3 active torsions:
REMARK  status: ('A' for Active; 'I' for Inactive)
REMARK    1  A    between atoms: C_4  and  C_5 
REMARK    2  A    between atoms: C_11  and  C_12 
REMARK    3  A    between atoms: C_21  and  N_22 
ROOT
HETATM    1  C   UNL     1      41.272 -15.631  -0.672  1.00  0.00     0.071 A 
HETATM    2  N   UNL     1      40.818 -16.410  -1.718  1.00  0.00    -0.274 N 
HETATM    3  H   UNL     1      40.602 -17.400  -1.697  1.00  0.00     0.189 HD
HETATM    4  N   UNL     1      40.732 -15.765  -2.896  1.00  0.00    -0.148 NA
HETATM    5  C   UNL     1      41.118 -14.541  -2.570  1.00  0.00     0.199 A 
HETATM    6  C   UNL     1      41.420 -14.364  -1.211  1.00  0.00     0.036 A 
HETATM    7  C   UNL     1      41.855 -13.022  -0.705  1.00  0.00     0.079 C 
HETATM    8  C   UNL     1      42.337 -12.188  -1.907  1.00  0.00     0.063 C 
HETATM    9  C   UNL     1      43.228 -10.999  -1.587  1.00  0.00     0.020 C 
HETATM   10  N   UNL     1      43.968 -10.012  -1.321  1.00  0.00    -0.096 N 
HETATM   11  C   UNL     1      42.025 -12.475  -3.195  1.00  0.00     0.139 C 
HETATM   12  O   UNL     1      41.280 -13.612  -3.531  1.00  0.00    -0.277 OA
ENDROOT
BRANCH   7  13
HETATM   13  C   UNL     1      40.753 -12.203   0.065  1.00  0.00     0.022 C 
HETATM   14  C   UNL     1      39.356 -12.780  -0.013  1.00  0.00    -0.025 C 
HETATM   15  C   UNL     1      38.613 -13.093   1.058  1.00  0.00    -0.030 C 
HETATM   16  C   UNL     1      39.083 -12.929   2.470  1.00  0.00     0.027 C 
HETATM   17  C   UNL     1      40.595 -12.757   2.583  1.00  0.00     0.004 C 
HETATM   18  C   UNL     1      41.162 -11.834   1.513  1.00  0.00     0.010 C 
ENDBRANCH   7  13
BRANCH  11  19
HETATM   19  N   UNL     1      42.403 -11.735  -4.294  1.00  0.00    -0.282 NA
HETATM   20  H   UNL     1      42.365 -12.215  -5.188  1.00  0.00     0.126 HD
HETATM   21  H   UNL     1      41.944 -10.825  -4.309  1.00  0.00     0.126 HD
ENDBRANCH  11  19
BRANCH   1  22
HETATM   22  C   UNL     1      41.537 -16.199   0.644  1.00  0.00    -0.007 A 
HETATM   23  C   UNL     1      42.814 -16.668   0.974  1.00  0.00     0.014 A 
HETATM   24  C   UNL     1      43.064 -17.214   2.235  1.00  0.00     0.001 A 
HETATM   25  C   UNL     1      42.039 -17.298   3.176  1.00  0.00     0.000 A 
HETATM   26  C   UNL     1      40.764 -16.841   2.857  1.00  0.00     0.001 A 
HETATM   27  C   UNL     1      40.512 -16.296   1.595  1.00  0.00     0.014 A 
ENDBRANCH   1  22
TORSDOF 3
ENDMDL
MODEL 6
REMARK VINA RESULT:      -6.7      3.166      6.072
REMARK  3 active torsions:
REMARK  status: ('A' for Active; 'I' for Inactive)
REMARK    1  A    between atoms: C_4  and  C_5 
REMARK    2  A    between atoms: C_11  and  C_12 
REMARK    3  A    between atoms: C_21  and  N_22 
ROOT
HETATM    1  C   UNL     1      42.628 -16.428   3.443  1.00  0.00     0.071 A 
HETATM    2  N   UNL     1      42.523 -17.783   3.189  1.00  0.00    -0.274 N 
HETATM    3  H   UNL     1      42.835 -18.544   3.781  1.00  0.00     0.189 HD
HETATM    4  N   UNL     1      42.008 -18.085   1.983  1.00  0.00    -0.148 NA
HETATM    5  C   UNL     1      41.761 -16.884   1.480  1.00  0.00     0.199 A 
HETATM    6  C   UNL     1      42.067 -15.815   2.336  1.00  0.00     0.036 A 
HETATM    7  C   UNL     1      41.820 -14.404   1.896  1.00  0.00     0.079 C 
HETATM    8  C   UNL     1      41.696 -14.393   0.361  1.00  0.00     0.063 C 
HETATM    9  C   UNL     1      41.900 -13.050  -0.321  1.00  0.00     0.020 C 
HETATM   10  N   UNL     1      42.069 -11.936  -0.887  1.00  0.00    -0.096 N 
HETATM   11  C   UNL     1      41.444 -15.500  -0.381  1.00  0.00     0.139 C 
HETATM   12  O   UNL     1      41.339 -16.766   0.206  1.00  0.00    -0.277 OA
ENDROOT
BRANCH   7  13
HETATM   13  C   UNL     1      40.539 -13.722   2.507  1.00  0.00     0.022 C 
HETATM   14  C   UNL     1      39.893 -14.481   3.647  1.00  0.00    -0.025 C 
HETATM   15  C   UNL     1      39.667 -13.961   4.861  1.00  0.00    -0.030 C 
HETATM   16  C   UNL     1      40.045 -12.565   5.249  1.00  0.00     0.027 C 
HETATM   17  C   UNL     1      41.051 -11.928   4.294  1.00  0.00     0.004 C 
HETATM   18  C   UNL     1      40.739 -12.221   2.832  1.00  0.00     0.010 C 
ENDBRANCH   7  13
BRANCH  11  19
HETATM   19  N   UNL     1      41.289 -15.527  -1.750  1.00  0.00    -0.282 NA
HETATM   20  H   UNL     1      41.243 -14.623  -2.210  1.00  0.00     0.126 HD
HETATM   21  H   UNL     1      41.950 -16.166  -2.190  1.00  0.00     0.126 HD
ENDBRANCH  11  19
BRANCH   1  22
HETATM   22  C   UNL     1      43.272 -15.927   4.651  1.00  0.00    -0.007 A 
HETATM   23  C   UNL     1      43.686 -16.807   5.657  1.00  0.00     0.014 A 
HETATM   24  C   UNL     1      44.301 -16.323   6.813  1.00  0.00     0.001 A 
HETATM   25  C   UNL     1      44.505 -14.954   6.975  1.00  0.00     0.000 A 
HETATM   26  C   UNL     1      44.093 -14.067   5.984  1.00  0.00     0.001 A 
HETATM   27  C   UNL     1      43.476 -14.551   4.827  1.00  0.00     0.014 A 
ENDBRANCH   1  22
TORSDOF 3
ENDMDL
MODEL 7
REMARK VINA RESULT:      -6.6      7.626     10.232
REMARK  3 active torsions:
REMARK  status: ('A' for Active; 'I' for Inactive)
REMARK    1  A    between atoms: C_4  and  C_5 
REMARK    2  A    between atoms: C_11  and  C_12 
REMARK    3  A    between atoms: C_21  and  N_22 
ROOT
HETATM    1  C   UNL     1      41.514 -12.815  -2.852  1.00  0.00     0.071 A 
HETATM    2  N   UNL     1      42.197 -13.940  -3.270  1.00  0.00    -0.274 N 
HETATM    3  H   UNL     1      43.202 -14.059  -3.339  1.00  0.00     0.189 HD
HETATM    4  N   UNL     1      41.408 -14.947  -3.691  1.00  0.00    -0.148 NA
HETATM    5  C   UNL     1      40.197 -14.444  -3.505  1.00  0.00     0.199 A 
HETATM    6  C   UNL     1      40.176 -13.157  -2.946  1.00  0.00     0.036 A 
HETATM    7  C   UNL     1      38.869 -12.477  -2.669  1.00  0.00     0.079 C 
HETATM    8  C   UNL     1      37.778 -13.174  -3.504  1.00  0.00     0.063 C 
HETATM    9  C   UNL     1      36.498 -12.386  -3.731  1.00  0.00     0.020 C 
HETATM   10  N   UNL     1      35.436 -11.732  -3.919  1.00  0.00    -0.096 N 
HETATM   11  C   UNL     1      37.919 -14.410  -4.044  1.00  0.00     0.139 C 
HETATM   12  O   UNL     1      39.116 -15.126  -3.929  1.00  0.00    -0.277 OA
ENDROOT
BRANCH   7  13
HETATM   13  C   UNL     1      38.418 -12.472  -1.160  1.00  0.00     0.022 C 
HETATM   14  C   UNL     1      39.005 -13.582  -0.314  1.00  0.00    -0.025 C 
HETATM   15  C   UNL     1      39.702 -13.378   0.812  1.00  0.00    -0.030 C 
HETATM   16  C   UNL     1      40.006 -12.020   1.364  1.00  0.00     0.027 C 
HETATM   17  C   UNL     1      39.805 -10.899   0.348  1.00  0.00     0.004 C 
HETATM   18  C   UNL     1      38.545 -11.083  -0.487  1.00  0.00     0.010 C 
ENDBRANCH   7  13
BRANCH  11  19
HETATM   19  N   UNL     1      36.956 -15.082  -4.765  1.00  0.00    -0.282 NA
HETATM   20  H   UNL     1      36.198 -15.487  -4.223  1.00  0.00     0.126 HD
HETATM   21  H   UNL     1      36.630 -14.534  -5.559  1.00  0.00     0.126 HD
ENDBRANCH  11  19
BRANCH   1  22
HETATM   22  C   UNL     1      42.215 -11.593  -2.478  1.00  0.00    -0.007 A 
HETATM   23  C   UNL     1      42.967 -11.534  -1.300  1.00  0.00     0.014 A 
HETATM   24  C   UNL     1      43.636 -10.361  -0.943  1.00  0.00     0.001 A 
HETATM   25  C   UNL     1      43.556  -9.236  -1.761  1.00  0.00     0.000 A 
HETATM   26  C   UNL     1      42.807  -9.279  -2.933  1.00  0.00     0.001 A 
HETATM   27  C   UNL     1      42.136 -10.452  -3.290  1.00  0.00     0.014 A 
ENDBRANCH   1  22
TORSDOF 3
ENDMDL
MODEL 8
REMARK VINA RESULT:      -6.6      3.095      6.360
REMARK  3 active torsions:
REMARK  status: ('A' for Active; 'I' for Inactive)
REMARK    1  A    between atoms: C_4  and  C_5 
REMARK    2  A    between atoms: C_11  and  C_12 
REMARK    3  A    between atoms: C_21  and  N_22 
ROOT
HETATM    1  C   UNL     1      40.520 -14.634   5.136  1.00  0.00     0.071 A 
HETATM    2  N   UNL     1      40.119 -15.174   6.343  1.00  0.00    -0.274 N 
HETATM    3  H   UNL     1      39.668 -14.691   7.112  1.00  0.00     0.189 HD
HETATM    4  N   UNL     1      40.439 -16.471   6.507  1.00  0.00    -0.148 NA
HETATM    5  C   UNL     1      41.036 -16.755   5.358  1.00  0.00     0.199 A 
HETATM    6  C   UNL     1      41.081 -15.693   4.443  1.00  0.00     0.036 A 
HETATM    7  C   UNL     1      41.715 -15.884   3.098  1.00  0.00     0.079 C 
HETATM    8  C   UNL     1      42.624 -17.125   3.167  1.00  0.00     0.063 C 
HETATM    9  C   UNL     1      43.691 -17.238   2.091  1.00  0.00     0.020 C 
HETATM   10  N   UNL     1      44.577 -17.332   1.197  1.00  0.00    -0.096 N 
HETATM   11  C   UNL     1      42.528 -18.076   4.130  1.00  0.00     0.139 C 
HETATM   12  O   UNL     1      41.616 -17.958   5.185  1.00  0.00    -0.277 OA
ENDROOT
BRANCH   7  13
HETATM   13  C   UNL     1      40.709 -16.066   1.899  1.00  0.00     0.022 C 
HETATM   14  C   UNL     1      39.278 -15.674   2.200  1.00  0.00    -0.025 C 
HETATM   15  C   UNL     1      38.581 -14.775   1.491  1.00  0.00    -0.030 C 
HETATM   16  C   UNL     1      39.142 -14.028   0.321  1.00  0.00     0.027 C 
HETATM   17  C   UNL     1      40.666 -14.078   0.251  1.00  0.00     0.004 C 
HETATM   18  C   UNL     1      41.223 -15.458   0.570  1.00  0.00     0.010 C 
ENDBRANCH   7  13
BRANCH  11  19
HETATM   19  N   UNL     1      43.296 -19.217   4.207  1.00  0.00    -0.282 NA
HETATM   20  H   UNL     1      42.789 -20.085   4.353  1.00  0.00     0.126 HD
HETATM   21  H   UNL     1      43.965 -19.271   3.440  1.00  0.00     0.126 HD
ENDBRANCH  11  19
BRANCH   1  22
HETATM   22  C   UNL     1      40.358 -13.215   4.845  1.00  0.00    -0.007 A 
HETATM   23  C   UNL     1      39.579 -12.401   5.673  1.00  0.00     0.014 A 
HETATM   24  C   UNL     1      39.424 -11.042   5.390  1.00  0.00     0.001 A 
HETATM   25  C   UNL     1      40.046 -10.486   4.274  1.00  0.00     0.000 A 
HETATM   26  C   UNL     1      40.820 -11.287   3.438  1.00  0.00     0.001 A 
HETATM   27  C   UNL     1      40.973 -12.647   3.720  1.00  0.00     0.014 A 
ENDBRANCH   1  22
TORSDOF 3
ENDMDL
MODEL 9
REMARK VINA RESULT:      -6.5      3.538      6.328
REMARK  3 active torsions:
REMARK  status: ('A' for Active; 'I' for Inactive)
REMARK    1  A    between atoms: C_4  and  C_5 
REMARK    2  A    between atoms: C_11  and  C_12 
REMARK    3  A    between atoms: C_21  and  N_22 
ROOT
HETATM    1  C   UNL     1      43.850 -17.598   6.828  1.00  0.00     0.071 A 
HETATM    2  N   UNL     1      43.786 -18.106   8.112  1.00  0.00    -0.274 N 
HETATM    3  H   UNL     1      43.771 -17.581   8.979  1.00  0.00     0.189 HD
HETATM    4  N   UNL     1      43.817 -19.450   8.181  1.00  0.00    -0.148 NA
HETATM    5  C   UNL     1      43.877 -19.792   6.903  1.00  0.00     0.199 A 
HETATM    6  C   UNL     1      43.850 -18.712   6.006  1.00  0.00     0.036 A 
HETATM    7  C   UNL     1      43.896 -18.960   4.528  1.00  0.00     0.079 C 
HETATM    8  C   UNL     1      44.439 -20.383   4.296  1.00  0.00     0.063 C 
HETATM    9  C   UNL     1      44.990 -20.674   2.910  1.00  0.00     0.020 C 
HETATM   10  N   UNL     1      45.448 -20.917   1.760  1.00  0.00    -0.096 N 
HETATM   11  C   UNL     1      44.464 -21.344   5.252  1.00  0.00     0.139 C 
HETATM   12  O   UNL     1      44.045 -21.083   6.562  1.00  0.00    -0.277 OA
ENDROOT
BRANCH   7  13
HETATM   13  C   UNL     1      42.518 -18.821   3.779  1.00  0.00     0.022 C 
HETATM   14  C   UNL     1      41.456 -18.049   4.532  1.00  0.00    -0.025 C 
HETATM   15  C   UNL     1      40.823 -16.973   4.045  1.00  0.00    -0.030 C 
HETATM   16  C   UNL     1      41.106 -16.385   2.697  1.00  0.00     0.027 C 
HETATM   17  C   UNL     1      42.426 -16.861   2.099  1.00  0.00     0.004 C 
HETATM   18  C   UNL     1      42.664 -18.350   2.310  1.00  0.00     0.010 C 
ENDBRANCH   7  13
BRANCH  11  19
HETATM   19  N   UNL     1      44.905 -22.637   5.075  1.00  0.00    -0.282 NA
HETATM   20  H   UNL     1      44.612 -23.308   5.780  1.00  0.00     0.126 HD
HETATM   21  H   UNL     1      44.743 -22.962   4.123  1.00  0.00     0.126 HD
ENDBRANCH  11  19
BRANCH   1  22
HETATM   22  C   UNL     1      43.945 -16.166   6.578  1.00  0.00    -0.007 A 
HETATM   23  C   UNL     1      44.373 -15.293   7.585  1.00  0.00     0.014 A 
HETATM   24  C   UNL     1      44.462 -13.921   7.343  1.00  0.00     0.001 A 
HETATM   25  C   UNL     1      44.122 -13.408   6.093  1.00  0.00     0.000 A 
HETATM   26  C   UNL     1      43.690 -14.265   5.084  1.00  0.00     0.001 A 
HETATM   27  C   UNL     1      43.598 -15.639   5.326  1.00  0.00     0.014 A 
ENDBRANCH   1  22
TORSDOF 3
ENDMDL
MODEL 10
REMARK VINA RESULT:      -6.4      4.758      7.167
REMARK  3 active torsions:
REMARK  status: ('A' for Active; 'I' for Inactive)
REMARK    1  A    between atoms: C_4  and  C_5 
REMARK    2  A    between atoms: C_11  and  C_12 
REMARK    3  A    between atoms: C_21  and  N_22 
ROOT
HETATM    1  C   UNL     1      41.449 -15.167   1.110  1.00  0.00     0.071 A 
HETATM    2  N   UNL     1      41.065 -16.262   0.360  1.00  0.00    -0.274 N 
HETATM    3  H   UNL     1      40.894 -17.204   0.692  1.00  0.00     0.189 HD
HETATM    4  N   UNL     1      40.987 -16.031  -0.964  1.00  0.00    -0.148 NA
HETATM    5  C   UNL     1      41.307 -14.747  -1.039  1.00  0.00     0.199 A 
HETATM    6  C   UNL     1      41.556 -14.132   0.197  1.00  0.00     0.036 A 
HETATM    7  C   UNL     1      41.914 -12.677   0.256  1.00  0.00     0.079 C 
HETATM    8  C   UNL     1      42.394 -12.244  -1.142  1.00  0.00     0.063 C 
HETATM    9  C   UNL     1      43.220 -10.969  -1.204  1.00  0.00     0.020 C 
HETATM   10  N   UNL     1      43.905  -9.911  -1.255  1.00  0.00    -0.096 N 
HETATM   11  C   UNL     1      42.138 -12.942  -2.276  1.00  0.00     0.139 C 
HETATM   12  O   UNL     1      41.457 -14.164  -2.244  1.00  0.00    -0.277 OA
ENDROOT
BRANCH   7  13
HETATM   13  C   UNL     1      40.751 -11.716   0.707  1.00  0.00     0.022 C 
HETATM   14  C   UNL     1      39.354 -12.271   0.522  1.00  0.00    -0.025 C 
HETATM   15  C   UNL     1      38.454 -12.380   1.509  1.00  0.00    -0.030 C 
HETATM   16  C   UNL     1      38.727 -11.984   2.927  1.00  0.00     0.027 C 
HETATM   17  C   UNL     1      40.214 -11.824   3.231  1.00  0.00     0.004 C 
HETATM   18  C   UNL     1      40.967 -11.111   2.116  1.00  0.00     0.010 C 
ENDBRANCH   7  13
BRANCH  11  19
HETATM   19  N   UNL     1      42.517 -12.570  -3.547  1.00  0.00    -0.282 NA
HETATM   20  H   UNL     1      42.452 -11.578  -3.758  1.00  0.00     0.126 HD
HETATM   21  H   UNL     1      43.416 -12.974  -3.804  1.00  0.00     0.126 HD
ENDBRANCH  11  19
BRANCH   1  22
HETATM   22  C   UNL     1      41.698 -15.274   2.542  1.00  0.00    -0.007 A 
HETATM   23  C   UNL     1      42.999 -15.181   3.049  1.00  0.00     0.014 A 
HETATM   24  C   UNL     1      43.233 -15.284   4.422  1.00  0.00     0.001 A 
HETATM   25  C   UNL     1      42.169 -15.485   5.299  1.00  0.00     0.000 A 
HETATM   26  C   UNL     1      40.871 -15.585   4.807  1.00  0.00     0.001 A 
HETATM   27  C   UNL     1      40.635 -15.483   3.433  1.00  0.00     0.014 A 
ENDBRANCH   1  22
TORSDOF 3
ENDMDL
