MODEL 1
REMARK VINA RESULT:      -8.8      0.000      0.000
REMARK  3 active torsions:
REMARK  status: ('A' for Active; 'I' for Inactive)
REMARK    1  A    between atoms: N_1  and  C_2 
REMARK    2  A    between atoms: C_6  and  C_8 
REMARK    3  A    between atoms: C_13  and  C_17 
ROOT
HETATM    1  C   UNL     1      43.463 -18.771   2.930  1.00  0.00    -0.006 A 
HETATM    2  C   UNL     1      43.874 -17.919   3.966  1.00  0.00     0.016 A 
HETATM    3  C   UNL     1      43.448 -16.584   4.037  1.00  0.00     0.034 A 
HETATM    4  C   UNL     1      42.585 -16.072   3.053  1.00  0.00     0.074 A 
HETATM    5  N   UNL     1      42.077 -14.788   3.009  1.00  0.00    -0.244 NA
HETATM    6  C   UNL     1      41.262 -14.652   1.985  1.00  0.00     0.083 A 
HETATM    7  S   UNL     1      41.160 -16.028   0.952  1.00  0.00    -0.072 SA
HETATM    8  C   UNL     1      42.189 -16.909   2.013  1.00  0.00     0.036 A 
HETATM    9  C   UNL     1      42.618 -18.245   1.930  1.00  0.00     0.035 A 
ENDROOT
BRANCH   6  10
HETATM   10  C   UNL     1      40.504 -13.382   1.651  1.00  0.00     0.074 C 
HETATM   11  C   UNL     1      41.389 -12.134   1.696  1.00  0.00     0.187 C 
HETATM   12  O   UNL     1      42.440 -12.134   0.725  1.00  0.00    -0.350 OA
HETATM   13  C   UNL     1      42.059 -12.504  -0.537  1.00  0.00     0.075 A 
HETATM   14  C   UNL     1      42.983 -12.251  -1.551  1.00  0.00     0.037 A 
HETATM   15  C   UNL     1      40.846 -13.135  -0.827  1.00  0.00    -0.024 A 
HETATM   16  C   UNL     1      42.691 -12.604  -2.868  1.00  0.00     0.003 A 
HETATM   17  C   UNL     1      41.474 -13.212  -3.171  1.00  0.00     0.001 A 
HETATM   18  C   UNL     1      40.553 -13.476  -2.155  1.00  0.00     0.010 A 
HETATM   19  C   UNL     1      39.854 -13.437   0.264  1.00  0.00     0.055 C 
ENDBRANCH   6  10
BRANCH   1  20
HETATM   20  C   UNL     1      43.894 -20.185   2.867  1.00  0.00     0.071 A 
HETATM   21  C   UNL     1      43.824 -20.940   1.712  1.00  0.00     0.052 A 
HETATM   22  C   UNL     1      44.266 -22.237   1.807  1.00  0.00     0.122 A 
HETATM   23  N   UNL     1      44.747 -22.774   2.940  1.00  0.00    -0.231 NA
HETATM   24  C   UNL     1      44.801 -21.967   4.001  1.00  0.00     0.199 A 
HETATM   25  N   UNL     1      44.382 -20.699   4.019  1.00  0.00    -0.218 NA
BRANCH  24  26
HETATM   26  N   UNL     1      45.280 -22.496   5.180  1.00  0.00    -0.271 NA
HETATM   27  H   UNL     1      45.637 -21.752   5.762  1.00  0.00     0.127 HD
HETATM   28  H   UNL     1      45.903 -23.265   4.975  1.00  0.00     0.127 HD
ENDBRANCH  24  26
ENDBRANCH   1  20
TORSDOF 3
ENDMDL
MODEL 2
REMARK VINA RESULT:      -8.4      1.084      1.723
REMARK  3 active torsions:
REMARK  status: ('A' for Active; 'I' for Inactive)
REMARK    1  A    between atoms: N_1  and  C_2 
REMARK    2  A    between atoms: C_6  and  C_8 
REMARK    3  A    between atoms: C_13  and  C_17 
ROOT
HETATM    1  C   UNL     1      43.419 -18.544   3.026  1.00  0.00    -0.006 A 
HETATM    2  C   UNL     1      43.823 -18.328   1.699  1.00  0.00     0.016 A 
HETATM    3  C   UNL     1      43.365 -17.228   0.958  1.00  0.00     0.034 A 
HETATM    4  C   UNL     1      42.482 -16.307   1.547  1.00  0.00     0.074 A 
HETATM    5  N   UNL     1      41.968 -15.176   0.943  1.00  0.00    -0.244 NA
HETATM    6  C   UNL     1      41.212 -14.506   1.787  1.00  0.00     0.083 A 
HETATM    7  S   UNL     1      40.983 -15.269   3.315  1.00  0.00    -0.072 SA
HETATM    8  C   UNL     1      42.064 -16.527   2.858  1.00  0.00     0.036 A 
HETATM    9  C   UNL     1      42.512 -17.631   3.604  1.00  0.00     0.035 A 
ENDROOT
BRANCH   6  10
HETATM   10  C   UNL     1      40.513 -13.200   1.467  1.00  0.00     0.074 C 
HETATM   11  C   UNL     1      41.461 -11.999   1.490  1.00  0.00     0.187 C 
HETATM   12  O   UNL     1      42.490 -12.053   0.497  1.00  0.00    -0.350 OA
HETATM   13  C   UNL     1      42.064 -12.404  -0.756  1.00  0.00     0.075 A 
HETATM   14  C   UNL     1      42.977 -12.200  -1.789  1.00  0.00     0.037 A 
HETATM   15  C   UNL     1      40.814 -12.973  -1.019  1.00  0.00    -0.024 A 
HETATM   16  C   UNL     1      42.640 -12.538  -3.099  1.00  0.00     0.003 A 
HETATM   17  C   UNL     1      41.387 -13.085  -3.375  1.00  0.00     0.001 A 
HETATM   18  C   UNL     1      40.476 -13.300  -2.339  1.00  0.00     0.010 A 
HETATM   19  C   UNL     1      39.831 -13.223   0.094  1.00  0.00     0.055 C 
ENDBRANCH   6  10
BRANCH   1  20
HETATM   20  C   UNL     1      43.919 -19.692   3.815  1.00  0.00     0.071 A 
HETATM   21  C   UNL     1      44.106 -19.637   5.182  1.00  0.00     0.052 A 
HETATM   22  C   UNL     1      44.570 -20.785   5.777  1.00  0.00     0.122 A 
HETATM   23  N   UNL     1      44.836 -21.914   5.101  1.00  0.00    -0.231 NA
HETATM   24  C   UNL     1      44.604 -21.885   3.788  1.00  0.00     0.199 A 
HETATM   25  N   UNL     1      44.170 -20.820   3.111  1.00  0.00    -0.218 NA
BRANCH  24  26
HETATM   26  N   UNL     1      44.879 -23.028   3.068  1.00  0.00    -0.271 NA
HETATM   27  H   UNL     1      45.307 -23.712   3.675  1.00  0.00     0.127 HD
HETATM   28  H   UNL     1      45.377 -22.783   2.223  1.00  0.00     0.127 HD
ENDBRANCH  24  26
ENDBRANCH   1  20
TORSDOF 3
ENDMDL
MODEL 3
REMARK VINA RESULT:      -8.4      1.542      2.362
REMARK  3 active torsions:
REMARK  status: ('A' for Active; 'I' for Inactive)
REMARK    1  A    between atoms: N_1  and  C_2 
REMARK    2  A    between atoms: C_6  and  C_8 
REMARK    3  A    between atoms: C_13  and  C_17 
ROOT
HETATM    1  C   UNL     1      42.500 -18.020   2.686  1.00  0.00    -0.006 A 
HETATM    2  C   UNL     1      41.765 -17.341   3.670  1.00  0.00     0.016 A 
HETATM    3  C   UNL     1      40.940 -16.251   3.354  1.00  0.00     0.034 A 
HETATM    4  C   UNL     1      40.835 -15.816   2.022  1.00  0.00     0.074 A 
HETATM    5  N   UNL     1      40.051 -14.773   1.569  1.00  0.00    -0.244 NA
HETATM    6  C   UNL     1      40.144 -14.662   0.260  1.00  0.00     0.083 A 
HETATM    7  S   UNL     1      41.275 -15.732  -0.478  1.00  0.00    -0.072 SA
HETATM    8  C   UNL     1      41.576 -16.475   1.044  1.00  0.00     0.036 A 
HETATM    9  C   UNL     1      42.411 -17.564   1.354  1.00  0.00     0.035 A 
ENDROOT
BRANCH   6  10
HETATM   10  C   UNL     1      39.394 -13.641  -0.573  1.00  0.00     0.074 C 
HETATM   11  C   UNL     1      38.941 -12.428   0.243  1.00  0.00     0.187 C 
HETATM   12  O   UNL     1      40.018 -11.657   0.784  1.00  0.00    -0.350 OA
HETATM   13  C   UNL     1      41.035 -11.392  -0.094  1.00  0.00     0.075 A 
HETATM   14  C   UNL     1      41.954 -10.425   0.312  1.00  0.00     0.037 A 
HETATM   15  C   UNL     1      41.199 -12.056  -1.314  1.00  0.00    -0.024 A 
HETATM   16  C   UNL     1      43.032 -10.095  -0.508  1.00  0.00     0.003 A 
HETATM   17  C   UNL     1      43.191 -10.735  -1.737  1.00  0.00     0.001 A 
HETATM   18  C   UNL     1      42.278 -11.711  -2.140  1.00  0.00     0.010 A 
HETATM   19  C   UNL     1      40.229 -13.121  -1.749  1.00  0.00     0.055 C 
ENDBRANCH   6  10
BRANCH   1  20
HETATM   20  C   UNL     1      43.353 -19.184   3.015  1.00  0.00     0.071 A 
HETATM   21  C   UNL     1      44.072 -19.277   4.190  1.00  0.00     0.052 A 
HETATM   22  C   UNL     1      44.814 -20.421   4.357  1.00  0.00     0.122 A 
HETATM   23  N   UNL     1      44.860 -21.413   3.453  1.00  0.00    -0.231 NA
HETATM   24  C   UNL     1      44.114 -21.250   2.359  1.00  0.00     0.199 A 
HETATM   25  N   UNL     1      43.373 -20.172   2.092  1.00  0.00    -0.218 NA
BRANCH  24  26
HETATM   26  N   UNL     1      44.152 -22.248   1.409  1.00  0.00    -0.271 NA
HETATM   27  H   UNL     1      44.353 -23.131   1.857  1.00  0.00     0.127 HD
HETATM   28  H   UNL     1      44.754 -21.967   0.648  1.00  0.00     0.127 HD
ENDBRANCH  24  26
ENDBRANCH   1  20
TORSDOF 3
ENDMDL
MODEL 4
REMARK VINA RESULT:      -8.3      2.272      3.105
REMARK  3 active torsions:
REMARK  status: ('A' for Active; 'I' for Inactive)
REMARK    1  A    between atoms: N_1  and  C_2 
REMARK    2  A    between atoms: C_6  and  C_8 
REMARK    3  A    between atoms: C_13  and  C_17 
ROOT
HETATM    1  C   UNL     1      42.951 -17.766   3.350  1.00  0.00    -0.006 A 
HETATM    2  C   UNL     1      43.727 -17.873   2.185  1.00  0.00     0.016 A 
HETATM    3  C   UNL     1      43.361 -17.231   0.992  1.00  0.00     0.034 A 
HETATM    4  C   UNL     1      42.191 -16.454   0.948  1.00  0.00     0.074 A 
HETATM    5  N   UNL     1      41.722 -15.756  -0.149  1.00  0.00    -0.244 NA
HETATM    6  C   UNL     1      40.628 -15.093   0.160  1.00  0.00     0.083 A 
HETATM    7  S   UNL     1      40.040 -15.372   1.756  1.00  0.00    -0.072 SA
HETATM    8  C   UNL     1      41.408 -16.359   2.095  1.00  0.00     0.036 A 
HETATM    9  C   UNL     1      41.763 -17.007   3.292  1.00  0.00     0.035 A 
ENDROOT
BRANCH   6  10
HETATM   10  C   UNL     1      39.864 -14.199  -0.796  1.00  0.00     0.074 C 
HETATM   11  C   UNL     1      39.144 -13.050  -0.086  1.00  0.00     0.187 C 
HETATM   12  O   UNL     1      40.023 -12.129   0.567  1.00  0.00    -0.350 OA
HETATM   13  C   UNL     1      41.103 -11.736  -0.178  1.00  0.00     0.075 A 
HETATM   14  C   UNL     1      41.818 -10.645   0.314  1.00  0.00     0.037 A 
HETATM   15  C   UNL     1      41.518 -12.386  -1.344  1.00  0.00    -0.024 A 
HETATM   16  C   UNL     1      42.941 -10.178  -0.368  1.00  0.00     0.003 A 
HETATM   17  C   UNL     1      43.350 -10.806  -1.544  1.00  0.00     0.001 A 
HETATM   18  C   UNL     1      42.641 -11.905  -2.032  1.00  0.00     0.010 A 
HETATM   19  C   UNL     1      40.770 -13.583  -1.869  1.00  0.00     0.055 C 
ENDBRANCH   6  10
BRANCH   1  20
HETATM   20  C   UNL     1      43.348 -18.425   4.614  1.00  0.00     0.071 A 
HETATM   21  C   UNL     1      44.033 -19.624   4.651  1.00  0.00     0.052 A 
HETATM   22  C   UNL     1      44.338 -20.109   5.900  1.00  0.00     0.122 A 
HETATM   23  N   UNL     1      44.006 -19.481   7.040  1.00  0.00    -0.231 NA
HETATM   24  C   UNL     1      43.367 -18.317   6.909  1.00  0.00     0.199 A 
HETATM   25  N   UNL     1      43.011 -17.767   5.746  1.00  0.00    -0.218 NA
BRANCH  24  26
HETATM   26  N   UNL     1      43.006 -17.657   8.064  1.00  0.00    -0.271 NA
HETATM   27  H   UNL     1      42.612 -16.757   7.827  1.00  0.00     0.127 HD
HETATM   28  H   UNL     1      43.779 -17.667   8.714  1.00  0.00     0.127 HD
ENDBRANCH  24  26
ENDBRANCH   1  20
TORSDOF 3
ENDMDL
MODEL 5
REMARK VINA RESULT:      -8.2      2.336      4.163
REMARK  3 active torsions:
REMARK  status: ('A' for Active; 'I' for Inactive)
REMARK    1  A    between atoms: N_1  and  C_2 
REMARK    2  A    between atoms: C_6  and  C_8 
REMARK    3  A    between atoms: C_13  and  C_17 
ROOT
HETATM    1  C   UNL     1      43.606 -18.697   3.172  1.00  0.00    -0.006 A 
HETATM    2  C   UNL     1      43.867 -18.031   4.380  1.00  0.00     0.016 A 
HETATM    3  C   UNL     1      43.516 -16.686   4.573  1.00  0.00     0.034 A 
HETATM    4  C   UNL     1      42.883 -15.974   3.539  1.00  0.00     0.074 A 
HETATM    5  N   UNL     1      42.469 -14.657   3.598  1.00  0.00    -0.244 NA
HETATM    6  C   UNL     1      41.868 -14.314   2.478  1.00  0.00     0.083 A 
HETATM    7  S   UNL     1      41.879 -15.524   1.251  1.00  0.00    -0.072 SA
HETATM    8  C   UNL     1      42.638 -16.625   2.333  1.00  0.00     0.036 A 
HETATM    9  C   UNL     1      42.994 -17.970   2.129  1.00  0.00     0.035 A 
ENDROOT
BRANCH   6  10
HETATM   10  C   UNL     1      41.263 -12.950   2.209  1.00  0.00     0.074 C 
HETATM   11  C   UNL     1      39.734 -12.968   2.220  1.00  0.00     0.187 C 
HETATM   12  O   UNL     1      39.167 -13.315   3.488  1.00  0.00    -0.350 OA
HETATM   13  C   UNL     1      39.726 -12.679   4.563  1.00  0.00     0.075 A 
HETATM   14  C   UNL     1      39.026 -12.783   5.765  1.00  0.00     0.037 A 
HETATM   15  C   UNL     1      40.943 -11.992   4.511  1.00  0.00    -0.024 A 
HETATM   16  C   UNL     1      39.522 -12.179   6.919  1.00  0.00     0.003 A 
HETATM   17  C   UNL     1      40.723 -11.472   6.872  1.00  0.00     0.001 A 
HETATM   18  C   UNL     1      41.431 -11.377   5.672  1.00  0.00     0.010 A 
HETATM   19  C   UNL     1      41.721 -11.897   3.225  1.00  0.00     0.055 C 
ENDBRANCH   6  10
BRANCH   1  20
HETATM   20  C   UNL     1      43.956 -20.121   2.976  1.00  0.00     0.071 A 
HETATM   21  C   UNL     1      43.820 -20.766   1.763  1.00  0.00     0.052 A 
HETATM   22  C   UNL     1      44.191 -22.089   1.734  1.00  0.00     0.122 A 
HETATM   23  N   UNL     1      44.664 -22.749   2.804  1.00  0.00    -0.231 NA
HETATM   24  C   UNL     1      44.784 -22.041   3.929  1.00  0.00     0.199 A 
HETATM   25  N   UNL     1      44.438 -20.760   4.067  1.00  0.00    -0.218 NA
BRANCH  24  26
HETATM   26  N   UNL     1      45.256 -22.698   5.046  1.00  0.00    -0.271 NA
HETATM   27  H   UNL     1      44.490 -22.875   5.680  1.00  0.00     0.127 HD
HETATM   28  H   UNL     1      46.057 -22.203   5.413  1.00  0.00     0.127 HD
ENDBRANCH  24  26
ENDBRANCH   1  20
TORSDOF 3
ENDMDL
MODEL 6
REMARK VINA RESULT:      -8.1      2.748      3.506
REMARK  3 active torsions:
REMARK  status: ('A' for Active; 'I' for Inactive)
REMARK    1  A    between atoms: N_1  and  C_2 
REMARK    2  A    between atoms: C_6  and  C_8 
REMARK    3  A    between atoms: C_13  and  C_17 
ROOT
HETATM    1  C   UNL     1      41.687 -16.507   5.042  1.00  0.00    -0.006 A 
HETATM    2  C   UNL     1      40.965 -15.444   5.607  1.00  0.00     0.016 A 
HETATM    3  C   UNL     1      40.199 -14.571   4.819  1.00  0.00     0.034 A 
HETATM    4  C   UNL     1      40.140 -14.755   3.427  1.00  0.00     0.074 A 
HETATM    5  N   UNL     1      39.414 -13.985   2.538  1.00  0.00    -0.244 NA
HETATM    6  C   UNL     1      39.538 -14.457   1.315  1.00  0.00     0.083 A 
HETATM    7  S   UNL     1      40.631 -15.780   1.156  1.00  0.00    -0.072 SA
HETATM    8  C   UNL     1      40.868 -15.798   2.860  1.00  0.00     0.036 A 
HETATM    9  C   UNL     1      41.644 -16.672   3.641  1.00  0.00     0.035 A 
ENDROOT
BRANCH   6  10
HETATM   10  C   UNL     1      38.853 -13.874   0.095  1.00  0.00     0.074 C 
HETATM   11  C   UNL     1      38.654 -12.360   0.193  1.00  0.00     0.187 C 
HETATM   12  O   UNL     1      39.875 -11.617   0.249  1.00  0.00    -0.350 OA
HETATM   13  C   UNL     1      40.824 -11.998  -0.662  1.00  0.00     0.075 A 
HETATM   14  C   UNL     1      41.902 -11.128  -0.818  1.00  0.00     0.037 A 
HETATM   15  C   UNL     1      40.771 -13.195  -1.381  1.00  0.00    -0.024 A 
HETATM   16  C   UNL     1      42.926 -11.435  -1.714  1.00  0.00     0.003 A 
HETATM   17  C   UNL     1      42.871 -12.616  -2.453  1.00  0.00     0.001 A 
HETATM   18  C   UNL     1      41.797 -13.493  -2.289  1.00  0.00     0.010 A 
HETATM   19  C   UNL     1      39.626 -14.155  -1.199  1.00  0.00     0.055 C 
ENDBRANCH   6  10
BRANCH   1  20
HETATM   20  C   UNL     1      42.477 -17.441   5.874  1.00  0.00     0.071 A 
HETATM   21  C   UNL     1      42.988 -18.629   5.388  1.00  0.00     0.052 A 
HETATM   22  C   UNL     1      43.707 -19.389   6.279  1.00  0.00     0.122 A 
HETATM   23  N   UNL     1      43.921 -19.029   7.555  1.00  0.00    -0.231 NA
HETATM   24  C   UNL     1      43.411 -17.855   7.932  1.00  0.00     0.199 A 
HETATM   25  N   UNL     1      42.686 -17.051   7.152  1.00  0.00    -0.218 NA
BRANCH  24  26
HETATM   26  N   UNL     1      43.607 -17.468   9.241  1.00  0.00    -0.271 NA
HETATM   27  H   UNL     1      44.185 -16.639   9.262  1.00  0.00     0.127 HD
HETATM   28  H   UNL     1      43.915 -18.262   9.785  1.00  0.00     0.127 HD
ENDBRANCH  24  26
ENDBRANCH   1  20
TORSDOF 3
ENDMDL
MODEL 7
REMARK VINA RESULT:      -8.1      1.698      2.547
REMARK  3 active torsions:
REMARK  status: ('A' for Active; 'I' for Inactive)
REMARK    1  A    between atoms: N_1  and  C_2 
REMARK    2  A    between atoms: C_6  and  C_8 
REMARK    3  A    between atoms: C_13  and  C_17 
ROOT
HETATM    1  C   UNL     1      43.751 -18.967   4.514  1.00  0.00    -0.006 A 
HETATM    2  C   UNL     1      44.392 -18.208   5.506  1.00  0.00     0.016 A 
HETATM    3  C   UNL     1      43.982 -16.903   5.817  1.00  0.00     0.034 A 
HETATM    4  C   UNL     1      42.901 -16.327   5.128  1.00  0.00     0.074 A 
HETATM    5  N   UNL     1      42.384 -15.063   5.343  1.00  0.00    -0.244 NA
HETATM    6  C   UNL     1      41.344 -14.854   4.564  1.00  0.00     0.083 A 
HETATM    7  S   UNL     1      41.009 -16.122   3.447  1.00  0.00    -0.072 SA
HETATM    8  C   UNL     1      42.273 -17.068   4.131  1.00  0.00     0.036 A 
HETATM    9  C   UNL     1      42.683 -18.374   3.807  1.00  0.00     0.035 A 
ENDROOT
BRANCH   6  10
HETATM   10  C   UNL     1      40.515 -13.585   4.558  1.00  0.00     0.074 C 
HETATM   11  C   UNL     1      41.370 -12.319   4.470  1.00  0.00     0.187 C 
HETATM   12  O   UNL     1      42.118 -12.208   3.255  1.00  0.00    -0.350 OA
HETATM   13  C   UNL     1      41.412 -12.486   2.116  1.00  0.00     0.075 A 
HETATM   14  C   UNL     1      42.024 -12.124   0.916  1.00  0.00     0.037 A 
HETATM   15  C   UNL     1      40.170 -13.127   2.110  1.00  0.00    -0.024 A 
HETATM   16  C   UNL     1      41.389 -12.377  -0.299  1.00  0.00     0.003 A 
HETATM   17  C   UNL     1      40.139 -12.996  -0.313  1.00  0.00     0.001 A 
HETATM   18  C   UNL     1      39.531 -13.368   0.886  1.00  0.00     0.010 A 
HETATM   19  C   UNL     1      39.513 -13.547   3.398  1.00  0.00     0.055 C 
ENDBRANCH   6  10
BRANCH   1  20
HETATM   20  C   UNL     1      44.168 -20.351   4.201  1.00  0.00     0.071 A 
HETATM   21  C   UNL     1      44.660 -21.220   5.155  1.00  0.00     0.052 A 
HETATM   22  C   UNL     1      45.000 -22.476   4.714  1.00  0.00     0.122 A 
HETATM   23  N   UNL     1      44.874 -22.872   3.437  1.00  0.00    -0.231 NA
HETATM   24  C   UNL     1      44.368 -21.975   2.588  1.00  0.00     0.199 A 
HETATM   25  N   UNL     1      44.022 -20.727   2.909  1.00  0.00    -0.218 NA
BRANCH  24  26
HETATM   26  N   UNL     1      44.239 -22.352   1.268  1.00  0.00    -0.271 NA
HETATM   27  H   UNL     1      44.650 -23.266   1.138  1.00  0.00     0.127 HD
HETATM   28  H   UNL     1      44.569 -21.607   0.671  1.00  0.00     0.127 HD
ENDBRANCH  24  26
ENDBRANCH   1  20
TORSDOF 3
ENDMDL
MODEL 8
REMARK VINA RESULT:      -8.0      1.429      2.256
REMARK  3 active torsions:
REMARK  status: ('A' for Active; 'I' for Inactive)
REMARK    1  A    between atoms: N_1  and  C_2 
REMARK    2  A    between atoms: C_6  and  C_8 
REMARK    3  A    between atoms: C_13  and  C_17 
ROOT
HETATM    1  C   UNL     1      43.625 -18.647   3.326  1.00  0.00    -0.006 A 
HETATM    2  C   UNL     1      43.542 -18.106   4.618  1.00  0.00     0.016 A 
HETATM    3  C   UNL     1      43.210 -16.760   4.836  1.00  0.00     0.034 A 
HETATM    4  C   UNL     1      42.948 -15.919   3.741  1.00  0.00     0.074 A 
HETATM    5  N   UNL     1      42.595 -14.585   3.809  1.00  0.00    -0.244 NA
HETATM    6  C   UNL     1      42.373 -14.105   2.604  1.00  0.00     0.083 A 
HETATM    7  S   UNL     1      42.696 -15.205   1.317  1.00  0.00    -0.072 SA
HETATM    8  C   UNL     1      43.046 -16.446   2.455  1.00  0.00     0.036 A 
HETATM    9  C   UNL     1      43.386 -17.792   2.229  1.00  0.00     0.035 A 
ENDROOT
BRANCH   6  10
HETATM   10  C   UNL     1      41.938 -12.683   2.310  1.00  0.00     0.074 C 
HETATM   11  C   UNL     1      42.196 -12.272   0.859  1.00  0.00     0.187 C 
HETATM   12  O   UNL     1      41.452 -13.030  -0.100  1.00  0.00    -0.350 OA
HETATM   13  C   UNL     1      40.128 -13.204   0.204  1.00  0.00     0.075 A 
HETATM   14  C   UNL     1      39.325 -13.691  -0.826  1.00  0.00     0.037 A 
HETATM   15  C   UNL     1      39.584 -12.957   1.468  1.00  0.00    -0.024 A 
HETATM   16  C   UNL     1      37.965 -13.913  -0.610  1.00  0.00     0.003 A 
HETATM   17  C   UNL     1      37.409 -13.649   0.641  1.00  0.00     0.001 A 
HETATM   18  C   UNL     1      38.215 -13.171   1.677  1.00  0.00     0.010 A 
HETATM   19  C   UNL     1      40.448 -12.458   2.596  1.00  0.00     0.055 C 
ENDBRANCH   6  10
BRANCH   1  20
HETATM   20  C   UNL     1      43.953 -20.071   3.097  1.00  0.00     0.071 A 
HETATM   21  C   UNL     1      43.757 -20.700   1.883  1.00  0.00     0.052 A 
HETATM   22  C   UNL     1      44.115 -22.024   1.821  1.00  0.00     0.122 A 
HETATM   23  N   UNL     1      44.630 -22.702   2.861  1.00  0.00    -0.231 NA
HETATM   24  C   UNL     1      44.807 -22.009   3.987  1.00  0.00     0.199 A 
HETATM   25  N   UNL     1      44.479 -20.727   4.157  1.00  0.00    -0.218 NA
BRANCH  24  26
HETATM   26  N   UNL     1      45.324 -22.684   5.073  1.00  0.00    -0.271 NA
HETATM   27  H   UNL     1      46.233 -23.056   4.835  1.00  0.00     0.127 HD
HETATM   28  H   UNL     1      44.635 -23.333   5.425  1.00  0.00     0.127 HD
ENDBRANCH  24  26
ENDBRANCH   1  20
TORSDOF 3
ENDMDL
MODEL 9
REMARK VINA RESULT:      -8.0      2.519      3.641
REMARK  3 active torsions:
REMARK  status: ('A' for Active; 'I' for Inactive)
REMARK    1  A    between atoms: N_1  and  C_2 
REMARK    2  A    between atoms: C_6  and  C_8 
REMARK    3  A    between atoms: C_13  and  C_17 
ROOT
HETATM    1  C   UNL     1      42.740 -17.509   3.334  1.00  0.00    -0.006 A 
HETATM    2  C   UNL     1      42.358 -18.234   2.194  1.00  0.00     0.016 A 
HETATM    3  C   UNL     1      41.939 -17.593   1.018  1.00  0.00     0.034 A 
HETATM    4  C   UNL     1      41.897 -16.190   0.963  1.00  0.00     0.074 A 
HETATM    5  N   UNL     1      41.522 -15.432  -0.130  1.00  0.00    -0.244 NA
HETATM    6  C   UNL     1      41.642 -14.148   0.138  1.00  0.00     0.083 A 
HETATM    7  S   UNL     1      42.097 -13.787   1.760  1.00  0.00    -0.072 SA
HETATM    8  C   UNL     1      42.257 -15.466   2.097  1.00  0.00     0.036 A 
HETATM    9  C   UNL     1      42.671 -16.101   3.282  1.00  0.00     0.035 A 
ENDROOT
BRANCH   6  10
HETATM   10  C   UNL     1      41.345 -13.033  -0.845  1.00  0.00     0.074 C 
HETATM   11  C   UNL     1      42.067 -13.213  -2.182  1.00  0.00     0.187 C 
HETATM   12  O   UNL     1      41.664 -14.380  -2.906  1.00  0.00    -0.350 OA
HETATM   13  C   UNL     1      40.312 -14.582  -2.969  1.00  0.00     0.075 A 
HETATM   14  C   UNL     1      39.880 -15.540  -3.885  1.00  0.00     0.037 A 
HETATM   15  C   UNL     1      39.390 -13.917  -2.154  1.00  0.00    -0.024 A 
HETATM   16  C   UNL     1      38.522 -15.825  -4.014  1.00  0.00     0.003 A 
HETATM   17  C   UNL     1      37.593 -15.151  -3.222  1.00  0.00     0.001 A 
HETATM   18  C   UNL     1      38.024 -14.199  -2.297  1.00  0.00     0.010 A 
HETATM   19  C   UNL     1      39.847 -12.901  -1.142  1.00  0.00     0.055 C 
ENDBRANCH   6  10
BRANCH   1  20
HETATM   20  C   UNL     1      43.203 -18.183   4.566  1.00  0.00     0.071 A 
HETATM   21  C   UNL     1      43.981 -19.325   4.549  1.00  0.00     0.052 A 
HETATM   22  C   UNL     1      44.338 -19.833   5.775  1.00  0.00     0.122 A 
HETATM   23  N   UNL     1      43.974 -19.278   6.942  1.00  0.00    -0.231 NA
HETATM   24  C   UNL     1      43.244 -18.164   6.864  1.00  0.00     0.199 A 
HETATM   25  N   UNL     1      42.830 -17.599   5.728  1.00  0.00    -0.218 NA
BRANCH  24  26
HETATM   26  N   UNL     1      42.847 -17.580   8.048  1.00  0.00    -0.271 NA
HETATM   27  H   UNL     1      42.886 -18.265   8.790  1.00  0.00     0.127 HD
HETATM   28  H   UNL     1      41.969 -17.098   7.908  1.00  0.00     0.127 HD
ENDBRANCH  24  26
ENDBRANCH   1  20
TORSDOF 3
ENDMDL
MODEL 10
REMARK VINA RESULT:      -7.9      2.836      3.558
REMARK  3 active torsions:
REMARK  status: ('A' for Active; 'I' for Inactive)
REMARK    1  A    between atoms: N_1  and  C_2 
REMARK    2  A    between atoms: C_6  and  C_8 
REMARK    3  A    between atoms: C_13  and  C_17 
ROOT
HETATM    1  C   UNL     1      42.069 -17.034   4.349  1.00  0.00    -0.006 A 
HETATM    2  C   UNL     1      41.792 -17.671   3.129  1.00  0.00     0.016 A 
HETATM    3  C   UNL     1      40.945 -17.094   2.171  1.00  0.00     0.034 A 
HETATM    4  C   UNL     1      40.354 -15.844   2.422  1.00  0.00     0.074 A 
HETATM    5  N   UNL     1      39.518 -15.155   1.564  1.00  0.00    -0.244 NA
HETATM    6  C   UNL     1      39.179 -13.995   2.085  1.00  0.00     0.083 A 
HETATM    7  S   UNL     1      39.753 -13.726   3.688  1.00  0.00    -0.072 SA
HETATM    8  C   UNL     1      40.611 -15.216   3.638  1.00  0.00     0.036 A 
HETATM    9  C   UNL     1      41.452 -15.792   4.607  1.00  0.00     0.035 A 
ENDROOT
BRANCH   6  10
HETATM   10  C   UNL     1      38.295 -12.970   1.403  1.00  0.00     0.074 C 
HETATM   11  C   UNL     1      39.051 -11.696   1.021  1.00  0.00     0.187 C 
HETATM   12  O   UNL     1      40.088 -11.903   0.057  1.00  0.00    -0.350 OA
HETATM   13  C   UNL     1      39.735 -12.685  -1.010  1.00  0.00     0.075 A 
HETATM   14  C   UNL     1      40.620 -12.680  -2.088  1.00  0.00     0.037 A 
HETATM   15  C   UNL     1      38.588 -13.484  -1.041  1.00  0.00    -0.024 A 
HETATM   16  C   UNL     1      40.354 -13.454  -3.217  1.00  0.00     0.003 A 
HETATM   17  C   UNL     1      39.201 -14.236  -3.266  1.00  0.00     0.001 A 
HETATM   18  C   UNL     1      38.320 -14.251  -2.183  1.00  0.00     0.010 A 
HETATM   19  C   UNL     1      37.641 -13.519   0.129  1.00  0.00     0.055 C 
ENDBRANCH   6  10
BRANCH   1  20
HETATM   20  C   UNL     1      42.979 -17.632   5.351  1.00  0.00     0.071 A 
HETATM   21  C   UNL     1      43.935 -18.575   5.027  1.00  0.00     0.052 A 
HETATM   22  C   UNL     1      44.710 -19.033   6.064  1.00  0.00     0.122 A 
HETATM   23  N   UNL     1      44.576 -18.611   7.332  1.00  0.00    -0.231 NA
HETATM   24  C   UNL     1      43.645 -17.680   7.549  1.00  0.00     0.199 A 
HETATM   25  N   UNL     1      42.830 -17.182   6.618  1.00  0.00    -0.218 NA
BRANCH  24  26
HETATM   26  N   UNL     1      43.479 -17.237   8.844  1.00  0.00    -0.271 NA
HETATM   27  H   UNL     1      43.327 -18.029   9.453  1.00  0.00     0.127 HD
HETATM   28  H   UNL     1      42.789 -16.499   8.862  1.00  0.00     0.127 HD
ENDBRANCH  24  26
ENDBRANCH   1  20
TORSDOF 3
ENDMDL
