MODEL 1
REMARK VINA RESULT:      -7.8      0.000      0.000
REMARK  10 active torsions:
REMARK  status: ('A' for Active; 'I' for Inactive)
REMARK    1  A    between atoms: C_2  and  O_3 
REMARK    2  A    between atoms: O_3  and  C_4 
REMARK    3  A    between atoms: C_4  and  C_5 
REMARK    4  A    between atoms: C_6  and  C_7 
REMARK    5  A    between atoms: C_7  and  O_8 
REMARK    6  A    between atoms: O_8  and  C_9 
REMARK    7  A    between atoms: C_9  and  C_10 
REMARK       I    between atoms: C_10  and  N_11 
REMARK    8  A    between atoms: N_11  and  C_12 
REMARK    9  A    between atoms: C_13  and  C_14 
REMARK       I    between atoms: C_14  and  N_15 
REMARK   10  A    between atoms: N_15  and  C_16 
ROOT
HETATM    1  C   UNL     1      41.235 -17.235   1.771  1.00  0.00     0.282 C 
ENDROOT
BRANCH   1   2
HETATM    2  O   UNL     1      42.399 -17.581   1.012  1.00  0.00    -0.307 OA
BRANCH   2   3
HETATM    3  C   UNL     1      43.611 -17.424   1.613  1.00  0.00     0.318 C 
HETATM    4  O   UNL     1      44.368 -16.480   1.427  1.00  0.00    -0.257 OA
BRANCH   3   5
HETATM    5  C   UNL     1      43.879 -18.570   2.452  1.00  0.00     0.160 A 
HETATM    6  C   UNL     1      44.075 -18.675   3.824  1.00  0.00     0.018 A 
HETATM    7  C   UNL     1      44.320 -20.060   4.087  1.00  0.00     0.009 A 
HETATM    8  C   UNL     1      44.270 -20.697   2.855  1.00  0.00     0.087 A 
HETATM    9  C   UNL     1      44.575 -20.842   5.230  1.00  0.00     0.015 A 
HETATM   10  O   UNL     1      44.010 -19.803   1.868  1.00  0.00    -0.303 OA
HETATM   11  C   UNL     1      44.461 -22.065   2.668  1.00  0.00     0.038 A 
HETATM   12  C   UNL     1      44.715 -22.822   3.815  1.00  0.00     0.003 A 
HETATM   13  C   UNL     1      44.771 -22.222   5.076  1.00  0.00     0.001 A 
BRANCH   6  14
HETATM   14  C   UNL     1      44.005 -17.562   4.809  1.00  0.00     0.210 C 
BRANCH  14  15
HETATM   15  O   UNL     1      42.710 -16.961   4.777  1.00  0.00    -0.387 OA
BRANCH  15  16
HETATM   16  C   UNL     1      41.908 -17.377   5.877  1.00  0.00     0.163 C 
HETATM   17  C   UNL     1      42.827 -17.815   7.001  1.00  0.00     0.033 C 
ENDBRANCH  15  16
ENDBRANCH  14  15
ENDBRANCH   6  14
ENDBRANCH   3   5
ENDBRANCH   2   3
ENDBRANCH   1   2
BRANCH   1  18
HETATM   18  C   UNL     1      41.028 -15.721   1.789  1.00  0.00     0.246 C 
HETATM   19  N   UNL     1      40.762 -15.225   3.057  1.00  0.00    -0.324 N 
HETATM   20  H   UNL     1      40.418 -15.907   3.725  1.00  0.00     0.169 HD
HETATM   21  O   UNL     1      41.066 -15.051   0.760  1.00  0.00    -0.271 OA
BRANCH  19  22
HETATM   22  C   UNL     1      40.619 -13.860   3.374  1.00  0.00     0.050 A 
HETATM   23  C   UNL     1      41.674 -13.007   3.744  1.00  0.00     0.058 A 
HETATM   24  C   UNL     1      41.423 -11.642   3.975  1.00  0.00     0.019 A 
HETATM   25  C   UNL     1      40.130 -11.132   3.852  1.00  0.00     0.001 A 
HETATM   26  C   UNL     1      39.077 -11.985   3.537  1.00  0.00     0.002 A 
HETATM   27  C   UNL     1      39.317 -13.343   3.313  1.00  0.00     0.030 A 
BRANCH  23  28
HETATM   28  C   UNL     1      43.009 -13.521   4.147  1.00  0.00     0.254 C 
HETATM   29  N   UNL     1      43.170 -13.738   5.503  1.00  0.00    -0.352 N 
HETATM   30  H   UNL     1      42.502 -13.306   6.130  1.00  0.00     0.163 HD
HETATM   31  O   UNL     1      43.852 -13.779   3.294  1.00  0.00    -0.268 OA
BRANCH  29  32
HETATM   32  C   UNL     1      44.384 -14.254   6.048  1.00  0.00     0.084 A 
HETATM   33  C   UNL     1      45.156 -13.473   7.072  1.00  0.00     0.027 A 
HETATM   34  C   UNL     1      44.442 -14.729   7.475  1.00  0.00     0.027 A 
ENDBRANCH  29  32
ENDBRANCH  23  28
ENDBRANCH  19  22
ENDBRANCH   1  18
TORSDOF 10
ENDMDL
MODEL 2
REMARK VINA RESULT:      -7.7      3.149      5.776
REMARK  10 active torsions:
REMARK  status: ('A' for Active; 'I' for Inactive)
REMARK    1  A    between atoms: C_2  and  O_3 
REMARK    2  A    between atoms: O_3  and  C_4 
REMARK    3  A    between atoms: C_4  and  C_5 
REMARK    4  A    between atoms: C_6  and  C_7 
REMARK    5  A    between atoms: C_7  and  O_8 
REMARK    6  A    between atoms: O_8  and  C_9 
REMARK    7  A    between atoms: C_9  and  C_10 
REMARK       I    between atoms: C_10  and  N_11 
REMARK    8  A    between atoms: N_11  and  C_12 
REMARK    9  A    between atoms: C_13  and  C_14 
REMARK       I    between atoms: C_14  and  N_15 
REMARK   10  A    between atoms: N_15  and  C_16 
ROOT
HETATM    1  C   UNL     1      45.165 -14.333   6.920  1.00  0.00     0.282 C 
ENDROOT
BRANCH   1   2
HETATM    2  O   UNL     1      43.845 -14.889   6.929  1.00  0.00    -0.307 OA
BRANCH   2   3
HETATM    3  C   UNL     1      43.717 -16.199   7.279  1.00  0.00     0.318 C 
HETATM    4  O   UNL     1      43.602 -16.610   8.426  1.00  0.00    -0.257 OA
BRANCH   3   5
HETATM    5  C   UNL     1      43.798 -17.018   6.091  1.00  0.00     0.160 A 
HETATM    6  C   UNL     1      43.278 -16.836   4.814  1.00  0.00     0.018 A 
HETATM    7  C   UNL     1      43.663 -17.987   4.059  1.00  0.00     0.009 A 
HETATM    8  C   UNL     1      44.378 -18.796   4.931  1.00  0.00     0.087 A 
HETATM    9  C   UNL     1      43.489 -18.432   2.733  1.00  0.00     0.015 A 
HETATM   10  O   UNL     1      44.456 -18.219   6.157  1.00  0.00    -0.303 OA
HETATM   11  C   UNL     1      44.933 -20.027   4.588  1.00  0.00     0.038 A 
HETATM   12  C   UNL     1      44.747 -20.449   3.269  1.00  0.00     0.003 A 
HETATM   13  C   UNL     1      44.037 -19.666   2.355  1.00  0.00     0.001 A 
BRANCH   6  14
HETATM   14  C   UNL     1      42.508 -15.654   4.342  1.00  0.00     0.210 C 
BRANCH  14  15
HETATM   15  O   UNL     1      41.176 -16.040   4.006  1.00  0.00    -0.387 OA
BRANCH  15  16
HETATM   16  C   UNL     1      40.845 -15.685   2.667  1.00  0.00     0.163 C 
HETATM   17  C   UNL     1      40.253 -16.900   1.982  1.00  0.00     0.033 C 
ENDBRANCH  15  16
ENDBRANCH  14  15
ENDBRANCH   6  14
ENDBRANCH   3   5
ENDBRANCH   2   3
ENDBRANCH   1   2
BRANCH   1  18
HETATM   18  C   UNL     1      45.245 -13.105   7.824  1.00  0.00     0.246 C 
HETATM   19  N   UNL     1      44.032 -12.789   8.419  1.00  0.00    -0.324 N 
HETATM   20  H   UNL     1      43.212 -13.167   7.956  1.00  0.00     0.169 HD
HETATM   21  O   UNL     1      46.287 -12.467   7.959  1.00  0.00    -0.271 OA
BRANCH  19  22
HETATM   22  C   UNL     1      43.841 -11.762   9.365  1.00  0.00     0.050 A 
HETATM   23  C   UNL     1      42.812 -10.806   9.315  1.00  0.00     0.058 A 
HETATM   24  C   UNL     1      42.678  -9.866  10.353  1.00  0.00     0.019 A 
HETATM   25  C   UNL     1      43.570  -9.867  11.425  1.00  0.00     0.001 A 
HETATM   26  C   UNL     1      44.621 -10.780  11.450  1.00  0.00     0.002 A 
HETATM   27  C   UNL     1      44.764 -11.712  10.419  1.00  0.00     0.030 A 
BRANCH  23  28
HETATM   28  C   UNL     1      41.997 -10.577   8.093  1.00  0.00     0.254 C 
HETATM   29  N   UNL     1      41.040 -11.542   7.836  1.00  0.00    -0.352 N 
HETATM   30  H   UNL     1      41.127 -12.429   8.317  1.00  0.00     0.163 HD
HETATM   31  O   UNL     1      42.157  -9.559   7.428  1.00  0.00    -0.268 OA
BRANCH  29  32
HETATM   32  C   UNL     1      40.159 -11.456   6.716  1.00  0.00     0.084 A 
HETATM   33  C   UNL     1      40.433 -12.240   5.465  1.00  0.00     0.027 A 
HETATM   34  C   UNL     1      39.277 -12.616   6.345  1.00  0.00     0.027 A 
ENDBRANCH  29  32
ENDBRANCH  23  28
ENDBRANCH  19  22
ENDBRANCH   1  18
TORSDOF 10
ENDMDL
MODEL 3
REMARK VINA RESULT:      -7.6      2.238      4.447
REMARK  10 active torsions:
REMARK  status: ('A' for Active; 'I' for Inactive)
REMARK    1  A    between atoms: C_2  and  O_3 
REMARK    2  A    between atoms: O_3  and  C_4 
REMARK    3  A    between atoms: C_4  and  C_5 
REMARK    4  A    between atoms: C_6  and  C_7 
REMARK    5  A    between atoms: C_7  and  O_8 
REMARK    6  A    between atoms: O_8  and  C_9 
REMARK    7  A    between atoms: C_9  and  C_10 
REMARK       I    between atoms: C_10  and  N_11 
REMARK    8  A    between atoms: N_11  and  C_12 
REMARK    9  A    between atoms: C_13  and  C_14 
REMARK       I    between atoms: C_14  and  N_15 
REMARK   10  A    between atoms: N_15  and  C_16 
ROOT
HETATM    1  C   UNL     1      43.112 -13.720   3.771  1.00  0.00     0.282 C 
ENDROOT
BRANCH   1   2
HETATM    2  O   UNL     1      43.387 -15.111   3.571  1.00  0.00    -0.307 OA
BRANCH   2   3
HETATM    3  C   UNL     1      42.592 -16.008   4.218  1.00  0.00     0.318 C 
HETATM    4  O   UNL     1      41.648 -15.713   4.940  1.00  0.00    -0.257 OA
BRANCH   3   5
HETATM    5  C   UNL     1      43.076 -17.345   3.962  1.00  0.00     0.160 A 
HETATM    6  C   UNL     1      43.908 -18.177   4.703  1.00  0.00     0.018 A 
HETATM    7  C   UNL     1      44.054 -19.377   3.940  1.00  0.00     0.009 A 
HETATM    8  C   UNL     1      43.313 -19.187   2.783  1.00  0.00     0.087 A 
HETATM    9  C   UNL     1      44.729 -20.603   4.104  1.00  0.00     0.015 A 
HETATM   10  O   UNL     1      42.727 -17.963   2.790  1.00  0.00    -0.303 OA
HETATM   11  C   UNL     1      43.193 -20.128   1.761  1.00  0.00     0.038 A 
HETATM   12  C   UNL     1      43.872 -21.336   1.943  1.00  0.00     0.003 A 
HETATM   13  C   UNL     1      44.628 -21.571   3.094  1.00  0.00     0.001 A 
BRANCH   6  14
HETATM   14  C   UNL     1      44.490 -17.870   6.038  1.00  0.00     0.210 C 
BRANCH  14  15
HETATM   15  O   UNL     1      43.643 -18.375   7.069  1.00  0.00    -0.387 OA
BRANCH  15  16
HETATM   16  C   UNL     1      43.071 -17.325   7.843  1.00  0.00     0.163 C 
HETATM   17  C   UNL     1      43.879 -16.064   7.610  1.00  0.00     0.033 C 
ENDBRANCH  15  16
ENDBRANCH  14  15
ENDBRANCH   6  14
ENDBRANCH   3   5
ENDBRANCH   2   3
ENDBRANCH   1   2
BRANCH   1  18
HETATM   18  C   UNL     1      42.134 -13.201   2.717  1.00  0.00     0.246 C 
HETATM   19  N   UNL     1      40.815 -13.528   2.994  1.00  0.00    -0.324 N 
HETATM   20  H   UNL     1      40.686 -14.309   3.629  1.00  0.00     0.169 HD
HETATM   21  O   UNL     1      42.519 -12.591   1.723  1.00  0.00    -0.271 OA
BRANCH  19  22
HETATM   22  C   UNL     1      39.704 -13.102   2.239  1.00  0.00     0.050 A 
HETATM   23  C   UNL     1      39.223 -13.745   1.085  1.00  0.00     0.058 A 
HETATM   24  C   UNL     1      38.062 -13.268   0.449  1.00  0.00     0.019 A 
HETATM   25  C   UNL     1      37.393 -12.151   0.949  1.00  0.00     0.001 A 
HETATM   26  C   UNL     1      37.897 -11.482   2.061  1.00  0.00     0.002 A 
HETATM   27  C   UNL     1      39.053 -11.946   2.694  1.00  0.00     0.030 A 
BRANCH  23  28
HETATM   28  C   UNL     1      40.019 -14.764   0.352  1.00  0.00     0.254 C 
HETATM   29  N   UNL     1      40.142 -14.546  -1.008  1.00  0.00    -0.352 N 
HETATM   30  H   UNL     1      39.498 -13.894  -1.439  1.00  0.00     0.163 HD
HETATM   31  O   UNL     1      40.561 -15.679   0.964  1.00  0.00    -0.268 OA
BRANCH  29  32
HETATM   32  C   UNL     1      40.896 -15.418  -1.850  1.00  0.00     0.084 A 
HETATM   33  C   UNL     1      40.289 -15.990  -3.099  1.00  0.00     0.027 A 
HETATM   34  C   UNL     1      41.372 -14.956  -3.200  1.00  0.00     0.027 A 
ENDBRANCH  29  32
ENDBRANCH  23  28
ENDBRANCH  19  22
ENDBRANCH   1  18
TORSDOF 10
ENDMDL
MODEL 4
REMARK VINA RESULT:      -7.6      1.609      2.190
REMARK  10 active torsions:
REMARK  status: ('A' for Active; 'I' for Inactive)
REMARK    1  A    between atoms: C_2  and  O_3 
REMARK    2  A    between atoms: O_3  and  C_4 
REMARK    3  A    between atoms: C_4  and  C_5 
REMARK    4  A    between atoms: C_6  and  C_7 
REMARK    5  A    between atoms: C_7  and  O_8 
REMARK    6  A    between atoms: O_8  and  C_9 
REMARK    7  A    between atoms: C_9  and  C_10 
REMARK       I    between atoms: C_10  and  N_11 
REMARK    8  A    between atoms: N_11  and  C_12 
REMARK    9  A    between atoms: C_13  and  C_14 
REMARK       I    between atoms: C_14  and  N_15 
REMARK   10  A    between atoms: N_15  and  C_16 
ROOT
HETATM    1  C   UNL     1      41.180 -17.113   1.464  1.00  0.00     0.282 C 
ENDROOT
BRANCH   1   2
HETATM    2  O   UNL     1      42.012 -16.981   2.623  1.00  0.00    -0.307 OA
BRANCH   2   3
HETATM    3  C   UNL     1      43.349 -17.180   2.462  1.00  0.00     0.318 C 
HETATM    4  O   UNL     1      44.101 -16.430   1.852  1.00  0.00    -0.257 OA
BRANCH   3   5
HETATM    5  C   UNL     1      43.720 -18.437   3.071  1.00  0.00     0.160 A 
HETATM    6  C   UNL     1      44.034 -18.761   4.387  1.00  0.00     0.018 A 
HETATM    7  C   UNL     1      44.341 -20.157   4.391  1.00  0.00     0.009 A 
HETATM    8  C   UNL     1      44.206 -20.583   3.077  1.00  0.00     0.087 A 
HETATM    9  C   UNL     1      44.714 -21.107   5.362  1.00  0.00     0.015 A 
HETATM   10  O   UNL     1      43.838 -19.549   2.279  1.00  0.00    -0.303 OA
HETATM   11  C   UNL     1      44.421 -21.891   2.647  1.00  0.00     0.038 A 
HETATM   12  C   UNL     1      44.793 -22.816   3.626  1.00  0.00     0.003 A 
HETATM   13  C   UNL     1      44.937 -22.433   4.962  1.00  0.00     0.001 A 
BRANCH   6  14
HETATM   14  C   UNL     1      44.013 -17.830   5.548  1.00  0.00     0.210 C 
BRANCH  14  15
HETATM   15  O   UNL     1      42.709 -17.796   6.125  1.00  0.00    -0.387 OA
BRANCH  15  16
HETATM   16  C   UNL     1      42.755 -17.492   7.515  1.00  0.00     0.163 C 
HETATM   17  C   UNL     1      43.958 -18.190   8.118  1.00  0.00     0.033 C 
ENDBRANCH  15  16
ENDBRANCH  14  15
ENDBRANCH   6  14
ENDBRANCH   3   5
ENDBRANCH   2   3
ENDBRANCH   1   2
BRANCH   1  18
HETATM   18  C   UNL     1      40.605 -15.760   1.050  1.00  0.00     0.246 C 
HETATM   19  N   UNL     1      39.498 -15.388   1.800  1.00  0.00    -0.324 N 
HETATM   20  H   UNL     1      39.019 -16.149   2.270  1.00  0.00     0.169 HD
HETATM   21  O   UNL     1      41.079 -15.112   0.120  1.00  0.00    -0.271 OA
BRANCH  19  22
HETATM   22  C   UNL     1      38.828 -14.154   1.690  1.00  0.00     0.050 A 
HETATM   23  C   UNL     1      39.165 -12.991   2.404  1.00  0.00     0.058 A 
HETATM   24  C   UNL     1      38.466 -11.794   2.164  1.00  0.00     0.019 A 
HETATM   25  C   UNL     1      37.431 -11.757   1.231  1.00  0.00     0.001 A 
HETATM   26  C   UNL     1      37.061 -12.920   0.560  1.00  0.00     0.002 A 
HETATM   27  C   UNL     1      37.746 -14.114   0.799  1.00  0.00     0.030 A 
BRANCH  23  28
HETATM   28  C   UNL     1      40.066 -13.017   3.586  1.00  0.00     0.254 C 
HETATM   29  N   UNL     1      41.416 -13.085   3.294  1.00  0.00    -0.352 N 
HETATM   30  H   UNL     1      41.680 -13.368   2.358  1.00  0.00     0.163 HD
HETATM   31  O   UNL     1      39.601 -12.918   4.717  1.00  0.00    -0.268 OA
BRANCH  29  32
HETATM   32  C   UNL     1      42.413 -13.092   4.316  1.00  0.00     0.084 A 
HETATM   33  C   UNL     1      42.728 -14.353   5.069  1.00  0.00     0.027 A 
HETATM   34  C   UNL     1      43.726 -13.793   4.100  1.00  0.00     0.027 A 
ENDBRANCH  29  32
ENDBRANCH  23  28
ENDBRANCH  19  22
ENDBRANCH   1  18
TORSDOF 10
ENDMDL
MODEL 5
REMARK VINA RESULT:      -7.5      2.836      4.285
REMARK  10 active torsions:
REMARK  status: ('A' for Active; 'I' for Inactive)
REMARK    1  A    between atoms: C_2  and  O_3 
REMARK    2  A    between atoms: O_3  and  C_4 
REMARK    3  A    between atoms: C_4  and  C_5 
REMARK    4  A    between atoms: C_6  and  C_7 
REMARK    5  A    between atoms: C_7  and  O_8 
REMARK    6  A    between atoms: O_8  and  C_9 
REMARK    7  A    between atoms: C_9  and  C_10 
REMARK       I    between atoms: C_10  and  N_11 
REMARK    8  A    between atoms: N_11  and  C_12 
REMARK    9  A    between atoms: C_13  and  C_14 
REMARK       I    between atoms: C_14  and  N_15 
REMARK   10  A    between atoms: N_15  and  C_16 
ROOT
HETATM    1  C   UNL     1      44.561 -14.725   6.979  1.00  0.00     0.282 C 
ENDROOT
BRANCH   1   2
HETATM    2  O   UNL     1      44.791 -16.054   6.496  1.00  0.00    -0.307 OA
BRANCH   2   3
HETATM    3  C   UNL     1      43.780 -16.956   6.633  1.00  0.00     0.318 C 
HETATM    4  O   UNL     1      43.038 -17.033   7.604  1.00  0.00    -0.257 OA
BRANCH   3   5
HETATM    5  C   UNL     1      43.765 -17.833   5.486  1.00  0.00     0.160 A 
HETATM    6  C   UNL     1      43.135 -17.718   4.251  1.00  0.00     0.018 A 
HETATM    7  C   UNL     1      43.463 -18.904   3.523  1.00  0.00     0.009 A 
HETATM    8  C   UNL     1      44.258 -19.664   4.370  1.00  0.00     0.087 A 
HETATM    9  C   UNL     1      43.179 -19.415   2.242  1.00  0.00     0.015 A 
HETATM   10  O   UNL     1      44.437 -19.026   5.554  1.00  0.00    -0.303 OA
HETATM   11  C   UNL     1      44.793 -20.909   4.041  1.00  0.00     0.038 A 
HETATM   12  C   UNL     1      44.496 -21.398   2.766  1.00  0.00     0.003 A 
HETATM   13  C   UNL     1      43.703 -20.665   1.879  1.00  0.00     0.001 A 
BRANCH   6  14
HETATM   14  C   UNL     1      42.316 -16.565   3.789  1.00  0.00     0.210 C 
BRANCH  14  15
HETATM   15  O   UNL     1      40.975 -16.985   3.541  1.00  0.00    -0.387 OA
BRANCH  15  16
HETATM   16  C   UNL     1      40.540 -16.618   2.236  1.00  0.00     0.163 C 
HETATM   17  C   UNL     1      41.477 -15.554   1.701  1.00  0.00     0.033 C 
ENDBRANCH  15  16
ENDBRANCH  14  15
ENDBRANCH   6  14
ENDBRANCH   3   5
ENDBRANCH   2   3
ENDBRANCH   1   2
BRANCH   1  18
HETATM   18  C   UNL     1      43.688 -13.935   6.005  1.00  0.00     0.246 C 
HETATM   19  N   UNL     1      42.425 -13.661   6.508  1.00  0.00    -0.324 N 
HETATM   20  H   UNL     1      42.121 -14.264   7.266  1.00  0.00     0.169 HD
HETATM   21  O   UNL     1      44.088 -13.623   4.886  1.00  0.00    -0.271 OA
BRANCH  19  22
HETATM   22  C   UNL     1      41.452 -12.875   5.859  1.00  0.00     0.050 A 
HETATM   23  C   UNL     1      41.107 -11.562   6.225  1.00  0.00     0.058 A 
HETATM   24  C   UNL     1      40.166 -10.847   5.462  1.00  0.00     0.019 A 
HETATM   25  C   UNL     1      39.563 -11.437   4.352  1.00  0.00     0.001 A 
HETATM   26  C   UNL     1      39.866 -12.754   4.018  1.00  0.00     0.002 A 
HETATM   27  C   UNL     1      40.794 -13.474   4.776  1.00  0.00     0.030 A 
BRANCH  23  28
HETATM   28  C   UNL     1      41.503 -10.970   7.530  1.00  0.00     0.254 C 
HETATM   29  N   UNL     1      40.534 -11.021   8.516  1.00  0.00    -0.352 N 
HETATM   30  H   UNL     1      39.580 -11.204   8.229  1.00  0.00     0.163 HD
HETATM   31  O   UNL     1      42.639 -10.537   7.690  1.00  0.00    -0.268 OA
BRANCH  29  32
HETATM   32  C   UNL     1      40.766 -10.518   9.832  1.00  0.00     0.084 A 
HETATM   33  C   UNL     1      39.629  -9.999  10.664  1.00  0.00     0.027 A 
HETATM   34  C   UNL     1      40.301 -11.287  11.038  1.00  0.00     0.027 A 
ENDBRANCH  29  32
ENDBRANCH  23  28
ENDBRANCH  19  22
ENDBRANCH   1  18
TORSDOF 10
ENDMDL
MODEL 6
REMARK VINA RESULT:      -7.4      3.789      6.714
REMARK  10 active torsions:
REMARK  status: ('A' for Active; 'I' for Inactive)
REMARK    1  A    between atoms: C_2  and  O_3 
REMARK    2  A    between atoms: O_3  and  C_4 
REMARK    3  A    between atoms: C_4  and  C_5 
REMARK    4  A    between atoms: C_6  and  C_7 
REMARK    5  A    between atoms: C_7  and  O_8 
REMARK    6  A    between atoms: O_8  and  C_9 
REMARK    7  A    between atoms: C_9  and  C_10 
REMARK       I    between atoms: C_10  and  N_11 
REMARK    8  A    between atoms: N_11  and  C_12 
REMARK    9  A    between atoms: C_13  and  C_14 
REMARK       I    between atoms: C_14  and  N_15 
REMARK   10  A    between atoms: N_15  and  C_16 
ROOT
HETATM    1  C   UNL     1      40.811 -10.747   6.548  1.00  0.00     0.282 C 
ENDROOT
BRANCH   1   2
HETATM    2  O   UNL     1      40.836 -12.178   6.598  1.00  0.00    -0.307 OA
BRANCH   2   3
HETATM    3  C   UNL     1      39.864 -12.847   5.918  1.00  0.00     0.318 C 
HETATM    4  O   UNL     1      38.694 -12.495   5.842  1.00  0.00    -0.257 OA
BRANCH   3   5
HETATM    5  C   UNL     1      40.422 -14.056   5.358  1.00  0.00     0.160 A 
HETATM    6  C   UNL     1      40.675 -14.425   4.041  1.00  0.00     0.018 A 
HETATM    7  C   UNL     1      41.213 -15.749   4.094  1.00  0.00     0.009 A 
HETATM    8  C   UNL     1      41.237 -16.098   5.436  1.00  0.00     0.087 A 
HETATM    9  C   UNL     1      41.685 -16.686   3.154  1.00  0.00     0.015 A 
HETATM   10  O   UNL     1      40.757 -15.085   6.200  1.00  0.00    -0.303 OA
HETATM   11  C   UNL     1      41.694 -17.322   5.923  1.00  0.00     0.038 A 
HETATM   12  C   UNL     1      42.156 -18.238   4.973  1.00  0.00     0.003 A 
HETATM   13  C   UNL     1      42.153 -17.927   3.611  1.00  0.00     0.001 A 
BRANCH   6  14
HETATM   14  C   UNL     1      40.453 -13.580   2.836  1.00  0.00     0.210 C 
BRANCH  14  15
HETATM   15  O   UNL     1      39.072 -13.592   2.477  1.00  0.00    -0.387 OA
BRANCH  15  16
HETATM   16  C   UNL     1      38.798 -14.555   1.464  1.00  0.00     0.163 C 
HETATM   17  C   UNL     1      39.927 -14.521   0.454  1.00  0.00     0.033 C 
ENDBRANCH  15  16
ENDBRANCH  14  15
ENDBRANCH   6  14
ENDBRANCH   3   5
ENDBRANCH   2   3
ENDBRANCH   1   2
BRANCH   1  18
HETATM   18  C   UNL     1      41.559 -10.148   7.738  1.00  0.00     0.246 C 
HETATM   19  N   UNL     1      41.693 -11.034   8.797  1.00  0.00    -0.324 N 
HETATM   20  H   UNL     1      41.032 -11.805   8.803  1.00  0.00     0.169 HD
HETATM   21  O   UNL     1      41.956  -8.985   7.735  1.00  0.00    -0.271 OA
BRANCH  19  22
HETATM   22  C   UNL     1      42.414 -10.774   9.979  1.00  0.00     0.050 A 
HETATM   23  C   UNL     1      43.809 -10.889  10.111  1.00  0.00     0.058 A 
HETATM   24  C   UNL     1      44.430 -10.539  11.323  1.00  0.00     0.019 A 
HETATM   25  C   UNL     1      43.668 -10.090  12.402  1.00  0.00     0.001 A 
HETATM   26  C   UNL     1      42.282 -10.025  12.290  1.00  0.00     0.002 A 
HETATM   27  C   UNL     1      41.658 -10.378  11.091  1.00  0.00     0.030 A 
BRANCH  23  28
HETATM   28  C   UNL     1      44.646 -11.600   9.109  1.00  0.00     0.254 C 
HETATM   29  N   UNL     1      44.100 -12.768   8.611  1.00  0.00    -0.352 N 
HETATM   30  H   UNL     1      43.333 -13.185   9.124  1.00  0.00     0.163 HD
HETATM   31  O   UNL     1      45.709 -11.112   8.736  1.00  0.00    -0.268 OA
BRANCH  29  32
HETATM   32  C   UNL     1      44.767 -13.555   7.622  1.00  0.00     0.084 A 
HETATM   33  C   UNL     1      44.300 -14.947   7.310  1.00  0.00     0.027 A 
HETATM   34  C   UNL     1      44.104 -13.851   6.305  1.00  0.00     0.027 A 
ENDBRANCH  29  32
ENDBRANCH  23  28
ENDBRANCH  19  22
ENDBRANCH   1  18
TORSDOF 10
ENDMDL
MODEL 7
REMARK VINA RESULT:      -7.4      3.244      6.021
REMARK  10 active torsions:
REMARK  status: ('A' for Active; 'I' for Inactive)
REMARK    1  A    between atoms: C_2  and  O_3 
REMARK    2  A    between atoms: O_3  and  C_4 
REMARK    3  A    between atoms: C_4  and  C_5 
REMARK    4  A    between atoms: C_6  and  C_7 
REMARK    5  A    between atoms: C_7  and  O_8 
REMARK    6  A    between atoms: O_8  and  C_9 
REMARK    7  A    between atoms: C_9  and  C_10 
REMARK       I    between atoms: C_10  and  N_11 
REMARK    8  A    between atoms: N_11  and  C_12 
REMARK    9  A    between atoms: C_13  and  C_14 
REMARK       I    between atoms: C_14  and  N_15 
REMARK   10  A    between atoms: N_15  and  C_16 
ROOT
HETATM    1  C   UNL     1      45.259 -14.082   6.986  1.00  0.00     0.282 C 
ENDROOT
BRANCH   1   2
HETATM    2  O   UNL     1      43.924 -14.556   6.777  1.00  0.00    -0.307 OA
BRANCH   2   3
HETATM    3  C   UNL     1      43.682 -15.876   7.010  1.00  0.00     0.318 C 
HETATM    4  O   UNL     1      43.614 -16.390   8.119  1.00  0.00    -0.257 OA
BRANCH   3   5
HETATM    5  C   UNL     1      43.578 -16.571   5.748  1.00  0.00     0.160 A 
HETATM    6  C   UNL     1      43.437 -17.923   5.454  1.00  0.00     0.018 A 
HETATM    7  C   UNL     1      43.409 -18.020   4.028  1.00  0.00     0.009 A 
HETATM    8  C   UNL     1      43.547 -16.724   3.553  1.00  0.00     0.087 A 
HETATM    9  C   UNL     1      43.277 -19.062   3.088  1.00  0.00     0.015 A 
HETATM   10  O   UNL     1      43.655 -15.849   4.585  1.00  0.00    -0.303 OA
HETATM   11  C   UNL     1      43.571 -16.378   2.203  1.00  0.00     0.038 A 
HETATM   12  C   UNL     1      43.441 -17.427   1.288  1.00  0.00     0.003 A 
HETATM   13  C   UNL     1      43.296 -18.747   1.722  1.00  0.00     0.001 A 
BRANCH   6  14
HETATM   14  C   UNL     1      43.310 -19.026   6.444  1.00  0.00     0.210 C 
BRANCH  14  15
HETATM   15  O   UNL     1      44.466 -19.861   6.398  1.00  0.00    -0.387 OA
BRANCH  15  16
HETATM   16  C   UNL     1      44.118 -21.240   6.314  1.00  0.00     0.163 C 
HETATM   17  C   UNL     1      44.792 -21.830   5.092  1.00  0.00     0.033 C 
ENDBRANCH  15  16
ENDBRANCH  14  15
ENDBRANCH   6  14
ENDBRANCH   3   5
ENDBRANCH   2   3
ENDBRANCH   1   2
BRANCH   1  18
HETATM   18  C   UNL     1      45.269 -12.882   7.933  1.00  0.00     0.246 C 
HETATM   19  N   UNL     1      44.017 -12.595   8.457  1.00  0.00    -0.324 N 
HETATM   20  H   UNL     1      43.232 -12.965   7.930  1.00  0.00     0.169 HD
HETATM   21  O   UNL     1      46.293 -12.241   8.155  1.00  0.00    -0.271 OA
BRANCH  19  22
HETATM   22  C   UNL     1      43.756 -11.601   9.421  1.00  0.00     0.050 A 
HETATM   23  C   UNL     1      42.682 -10.695   9.368  1.00  0.00     0.058 A 
HETATM   24  C   UNL     1      42.479  -9.787  10.423  1.00  0.00     0.019 A 
HETATM   25  C   UNL     1      43.346  -9.769  11.515  1.00  0.00     0.001 A 
HETATM   26  C   UNL     1      44.440 -10.630  11.544  1.00  0.00     0.002 A 
HETATM   27  C   UNL     1      44.651 -11.531  10.497  1.00  0.00     0.030 A 
BRANCH  23  28
HETATM   28  C   UNL     1      41.884 -10.478   8.133  1.00  0.00     0.254 C 
HETATM   29  N   UNL     1      40.966 -11.472   7.845  1.00  0.00    -0.352 N 
HETATM   30  H   UNL     1      41.074 -12.362   8.316  1.00  0.00     0.163 HD
HETATM   31  O   UNL     1      42.022  -9.446   7.484  1.00  0.00    -0.268 OA
BRANCH  29  32
HETATM   32  C   UNL     1      40.105 -11.401   6.708  1.00  0.00     0.084 A 
HETATM   33  C   UNL     1      40.412 -12.186   5.466  1.00  0.00     0.027 A 
HETATM   34  C   UNL     1      39.244 -12.574   6.325  1.00  0.00     0.027 A 
ENDBRANCH  29  32
ENDBRANCH  23  28
ENDBRANCH  19  22
ENDBRANCH   1  18
TORSDOF 10
ENDMDL
MODEL 8
REMARK VINA RESULT:      -7.4      2.833      3.960
REMARK  10 active torsions:
REMARK  status: ('A' for Active; 'I' for Inactive)
REMARK    1  A    between atoms: C_2  and  O_3 
REMARK    2  A    between atoms: O_3  and  C_4 
REMARK    3  A    between atoms: C_4  and  C_5 
REMARK    4  A    between atoms: C_6  and  C_7 
REMARK    5  A    between atoms: C_7  and  O_8 
REMARK    6  A    between atoms: O_8  and  C_9 
REMARK    7  A    between atoms: C_9  and  C_10 
REMARK       I    between atoms: C_10  and  N_11 
REMARK    8  A    between atoms: N_11  and  C_12 
REMARK    9  A    between atoms: C_13  and  C_14 
REMARK       I    between atoms: C_14  and  N_15 
REMARK   10  A    between atoms: N_15  and  C_16 
ROOT
HETATM    1  C   UNL     1      41.039 -17.041   1.826  1.00  0.00     0.282 C 
ENDROOT
BRANCH   1   2
HETATM    2  O   UNL     1      42.391 -17.019   1.353  1.00  0.00    -0.307 OA
BRANCH   2   3
HETATM    3  C   UNL     1      43.376 -16.844   2.277  1.00  0.00     0.318 C 
HETATM    4  O   UNL     1      43.920 -15.776   2.528  1.00  0.00    -0.257 OA
BRANCH   3   5
HETATM    5  C   UNL     1      43.710 -18.121   2.864  1.00  0.00     0.160 A 
HETATM    6  C   UNL     1      43.979 -18.484   4.179  1.00  0.00     0.018 A 
HETATM    7  C   UNL     1      44.267 -19.885   4.155  1.00  0.00     0.009 A 
HETATM    8  C   UNL     1      44.167 -20.274   2.827  1.00  0.00     0.087 A 
HETATM    9  C   UNL     1      44.597 -20.866   5.111  1.00  0.00     0.015 A 
HETATM   10  O   UNL     1      43.837 -19.214   2.046  1.00  0.00    -0.303 OA
HETATM   11  C   UNL     1      44.377 -21.573   2.369  1.00  0.00     0.038 A 
HETATM   12  C   UNL     1      44.705 -22.529   3.334  1.00  0.00     0.003 A 
HETATM   13  C   UNL     1      44.813 -22.183   4.683  1.00  0.00     0.001 A 
BRANCH   6  14
HETATM   14  C   UNL     1      43.937 -17.584   5.363  1.00  0.00     0.210 C 
BRANCH  14  15
HETATM   15  O   UNL     1      42.647 -17.638   5.972  1.00  0.00    -0.387 OA
BRANCH  15  16
HETATM   16  C   UNL     1      42.721 -17.444   7.381  1.00  0.00     0.163 C 
HETATM   17  C   UNL     1      43.905 -18.227   7.910  1.00  0.00     0.033 C 
ENDBRANCH  15  16
ENDBRANCH  14  15
ENDBRANCH   6  14
ENDBRANCH   3   5
ENDBRANCH   2   3
ENDBRANCH   1   2
BRANCH   1  18
HETATM   18  C   UNL     1      40.427 -15.641   1.789  1.00  0.00     0.246 C 
HETATM   19  N   UNL     1      39.827 -15.343   0.575  1.00  0.00    -0.324 N 
HETATM   20  H   UNL     1      40.137 -15.906  -0.211  1.00  0.00     0.169 HD
HETATM   21  O   UNL     1      40.508 -14.874   2.746  1.00  0.00    -0.271 OA
BRANCH  19  22
HETATM   22  C   UNL     1      39.111 -14.161   0.298  1.00  0.00     0.050 A 
HETATM   23  C   UNL     1      39.575 -13.115  -0.518  1.00  0.00     0.058 A 
HETATM   24  C   UNL     1      38.745 -12.009  -0.779  1.00  0.00     0.019 A 
HETATM   25  C   UNL     1      37.469 -11.938  -0.221  1.00  0.00     0.001 A 
HETATM   26  C   UNL     1      37.027 -12.949   0.628  1.00  0.00     0.002 A 
HETATM   27  C   UNL     1      37.849 -14.047   0.897  1.00  0.00     0.030 A 
BRANCH  23  28
HETATM   28  C   UNL     1      40.999 -12.996  -0.926  1.00  0.00     0.254 C 
HETATM   29  N   UNL     1      41.452 -11.701  -1.106  1.00  0.00    -0.352 N 
HETATM   30  H   UNL     1      40.758 -10.970  -1.206  1.00  0.00     0.163 HD
HETATM   31  O   UNL     1      41.699 -13.999  -1.021  1.00  0.00    -0.268 OA
BRANCH  29  32
HETATM   32  C   UNL     1      42.802 -11.416  -1.473  1.00  0.00     0.084 A 
HETATM   33  C   UNL     1      43.122 -10.254  -2.370  1.00  0.00     0.027 A 
HETATM   34  C   UNL     1      43.506 -10.207  -0.921  1.00  0.00     0.027 A 
ENDBRANCH  29  32
ENDBRANCH  23  28
ENDBRANCH  19  22
ENDBRANCH   1  18
TORSDOF 10
ENDMDL
MODEL 9
REMARK VINA RESULT:      -7.3      2.206      7.002
REMARK  10 active torsions:
REMARK  status: ('A' for Active; 'I' for Inactive)
REMARK    1  A    between atoms: C_2  and  O_3 
REMARK    2  A    between atoms: O_3  and  C_4 
REMARK    3  A    between atoms: C_4  and  C_5 
REMARK    4  A    between atoms: C_6  and  C_7 
REMARK    5  A    between atoms: C_7  and  O_8 
REMARK    6  A    between atoms: O_8  and  C_9 
REMARK    7  A    between atoms: C_9  and  C_10 
REMARK       I    between atoms: C_10  and  N_11 
REMARK    8  A    between atoms: N_11  and  C_12 
REMARK    9  A    between atoms: C_13  and  C_14 
REMARK       I    between atoms: C_14  and  N_15 
REMARK   10  A    between atoms: N_15  and  C_16 
ROOT
HETATM    1  C   UNL     1      41.340 -16.568   0.298  1.00  0.00     0.282 C 
ENDROOT
BRANCH   1   2
HETATM    2  O   UNL     1      41.446 -15.166   0.026  1.00  0.00    -0.307 OA
BRANCH   2   3
HETATM    3  C   UNL     1      40.331 -14.405   0.208  1.00  0.00     0.318 C 
HETATM    4  O   UNL     1      39.471 -14.210  -0.641  1.00  0.00    -0.257 OA
BRANCH   3   5
HETATM    5  C   UNL     1      40.360 -13.827   1.531  1.00  0.00     0.160 A 
HETATM    6  C   UNL     1      40.783 -12.580   1.978  1.00  0.00     0.018 A 
HETATM    7  C   UNL     1      40.595 -12.579   3.396  1.00  0.00     0.009 A 
HETATM    8  C   UNL     1      40.084 -13.829   3.714  1.00  0.00     0.087 A 
HETATM    9  C   UNL     1      40.796 -11.658   4.442  1.00  0.00     0.015 A 
HETATM   10  O   UNL     1      39.946 -14.585   2.596  1.00  0.00    -0.303 OA
HETATM   11  C   UNL     1      39.759 -14.242   5.006  1.00  0.00     0.038 A 
HETATM   12  C   UNL     1      39.970 -13.313   6.028  1.00  0.00     0.003 A 
HETATM   13  C   UNL     1      40.479 -12.041   5.753  1.00  0.00     0.001 A 
BRANCH   6  14
HETATM   14  C   UNL     1      41.294 -11.471   1.128  1.00  0.00     0.210 C 
BRANCH  14  15
HETATM   15  O   UNL     1      42.555 -11.828   0.563  1.00  0.00    -0.387 OA
BRANCH  15  16
HETATM   16  C   UNL     1      42.556 -11.692  -0.854  1.00  0.00     0.163 C 
HETATM   17  C   UNL     1      43.380 -10.473  -1.218  1.00  0.00     0.033 C 
ENDBRANCH  15  16
ENDBRANCH  14  15
ENDBRANCH   6  14
ENDBRANCH   3   5
ENDBRANCH   2   3
ENDBRANCH   1   2
BRANCH   1  18
HETATM   18  C   UNL     1      42.421 -17.014   1.282  1.00  0.00     0.246 C 
HETATM   19  N   UNL     1      42.179 -18.270   1.820  1.00  0.00    -0.324 N 
HETATM   20  H   UNL     1      41.214 -18.582   1.773  1.00  0.00     0.169 HD
HETATM   21  O   UNL     1      43.373 -16.293   1.569  1.00  0.00    -0.271 OA
BRANCH  19  22
HETATM   22  C   UNL     1      43.054 -18.959   2.683  1.00  0.00     0.050 A 
HETATM   23  C   UNL     1      43.178 -18.716   4.062  1.00  0.00     0.058 A 
HETATM   24  C   UNL     1      44.038 -19.514   4.839  1.00  0.00     0.019 A 
HETATM   25  C   UNL     1      44.779 -20.536   4.247  1.00  0.00     0.001 A 
HETATM   26  C   UNL     1      44.696 -20.744   2.873  1.00  0.00     0.002 A 
HETATM   27  C   UNL     1      43.850 -19.952   2.094  1.00  0.00     0.030 A 
BRANCH  23  28
HETATM   28  C   UNL     1      42.631 -17.494   4.707  1.00  0.00     0.254 C 
HETATM   29  N   UNL     1      43.518 -16.439   4.814  1.00  0.00    -0.352 N 
HETATM   30  H   UNL     1      44.504 -16.641   4.698  1.00  0.00     0.163 HD
HETATM   31  O   UNL     1      41.452 -17.452   5.045  1.00  0.00    -0.268 OA
BRANCH  29  32
HETATM   32  C   UNL     1      43.140 -15.186   5.385  1.00  0.00     0.084 A 
HETATM   33  C   UNL     1      44.116 -14.395   6.208  1.00  0.00     0.027 A 
HETATM   34  C   UNL     1      43.708 -13.899   4.852  1.00  0.00     0.027 A 
ENDBRANCH  29  32
ENDBRANCH  23  28
ENDBRANCH  19  22
ENDBRANCH   1  18
TORSDOF 10
ENDMDL
MODEL 10
REMARK VINA RESULT:      -7.3      1.246      3.107
REMARK  10 active torsions:
REMARK  status: ('A' for Active; 'I' for Inactive)
REMARK    1  A    between atoms: C_2  and  O_3 
REMARK    2  A    between atoms: O_3  and  C_4 
REMARK    3  A    between atoms: C_4  and  C_5 
REMARK    4  A    between atoms: C_6  and  C_7 
REMARK    5  A    between atoms: C_7  and  O_8 
REMARK    6  A    between atoms: O_8  and  C_9 
REMARK    7  A    between atoms: C_9  and  C_10 
REMARK       I    between atoms: C_10  and  N_11 
REMARK    8  A    between atoms: N_11  and  C_12 
REMARK    9  A    between atoms: C_13  and  C_14 
REMARK       I    between atoms: C_14  and  N_15 
REMARK   10  A    between atoms: N_15  and  C_16 
ROOT
HETATM    1  C   UNL     1      41.555 -15.498   0.221  1.00  0.00     0.282 C 
ENDROOT
BRANCH   1   2
HETATM    2  O   UNL     1      42.158 -16.417   1.139  1.00  0.00    -0.307 OA
BRANCH   2   3
HETATM    3  C   UNL     1      41.335 -17.068   2.007  1.00  0.00     0.318 C 
HETATM    4  O   UNL     1      40.157 -17.326   1.795  1.00  0.00    -0.257 OA
BRANCH   3   5
HETATM    5  C   UNL     1      42.057 -17.350   3.226  1.00  0.00     0.160 A 
HETATM    6  C   UNL     1      43.319 -17.894   3.440  1.00  0.00     0.018 A 
HETATM    7  C   UNL     1      43.491 -17.955   4.859  1.00  0.00     0.009 A 
HETATM    8  C   UNL     1      42.319 -17.457   5.408  1.00  0.00     0.087 A 
HETATM    9  C   UNL     1      44.511 -18.373   5.736  1.00  0.00     0.015 A 
HETATM   10  O   UNL     1      41.451 -17.097   4.429  1.00  0.00    -0.303 OA
HETATM   11  C   UNL     1      42.075 -17.345   6.776  1.00  0.00     0.038 A 
HETATM   12  C   UNL     1      43.100 -17.767   7.628  1.00  0.00     0.003 A 
HETATM   13  C   UNL     1      44.298 -18.272   7.119  1.00  0.00     0.001 A 
BRANCH   6  14
HETATM   14  C   UNL     1      44.291 -18.294   2.388  1.00  0.00     0.210 C 
BRANCH  14  15
HETATM   15  O   UNL     1      43.877 -19.516   1.777  1.00  0.00    -0.387 OA
BRANCH  15  16
HETATM   16  C   UNL     1      44.235 -20.647   2.565  1.00  0.00     0.163 C 
HETATM   17  C   UNL     1      43.915 -21.901   1.775  1.00  0.00     0.033 C 
ENDBRANCH  15  16
ENDBRANCH  14  15
ENDBRANCH   6  14
ENDBRANCH   3   5
ENDBRANCH   2   3
ENDBRANCH   1   2
BRANCH   1  18
HETATM   18  C   UNL     1      41.420 -14.111   0.849  1.00  0.00     0.246 C 
HETATM   19  N   UNL     1      40.857 -14.143   2.116  1.00  0.00    -0.324 N 
HETATM   20  H   UNL     1      40.320 -14.977   2.331  1.00  0.00     0.169 HD
HETATM   21  O   UNL     1      41.755 -13.093   0.248  1.00  0.00    -0.271 OA
BRANCH  19  22
HETATM   22  C   UNL     1      40.699 -13.022   2.956  1.00  0.00     0.050 A 
HETATM   23  C   UNL     1      41.690 -12.518   3.817  1.00  0.00     0.058 A 
HETATM   24  C   UNL     1      41.444 -11.351   4.562  1.00  0.00     0.019 A 
HETATM   25  C   UNL     1      40.216 -10.697   4.462  1.00  0.00     0.001 A 
HETATM   26  C   UNL     1      39.216 -11.223   3.649  1.00  0.00     0.002 A 
HETATM   27  C   UNL     1      39.451 -12.386   2.912  1.00  0.00     0.030 A 
BRANCH  23  28
HETATM   28  C   UNL     1      42.906 -13.296   4.171  1.00  0.00     0.254 C 
HETATM   29  N   UNL     1      43.026 -13.621   5.510  1.00  0.00    -0.352 N 
HETATM   30  H   UNL     1      42.452 -13.110   6.171  1.00  0.00     0.163 HD
HETATM   31  O   UNL     1      43.685 -13.655   3.294  1.00  0.00    -0.268 OA
BRANCH  29  32
HETATM   32  C   UNL     1      44.123 -14.387   6.009  1.00  0.00     0.084 A 
HETATM   33  C   UNL     1      45.334 -13.706   6.580  1.00  0.00     0.027 A 
HETATM   34  C   UNL     1      44.400 -14.455   7.486  1.00  0.00     0.027 A 
ENDBRANCH  29  32
ENDBRANCH  23  28
ENDBRANCH  19  22
ENDBRANCH   1  18
TORSDOF 10
ENDMDL
