MODEL 1
REMARK VINA RESULT:      -9.1      0.000      0.000
REMARK  7 active torsions:
REMARK  status: ('A' for Active; 'I' for Inactive)
REMARK    1  A    between atoms: C_6  and  N_7 
REMARK    2  A    between atoms: C_10  and  C_11 
REMARK       I    between atoms: C_11  and  N_12 
REMARK    3  A    between atoms: N_12  and  C_13 
REMARK    4  A    between atoms: C_16  and  C_17 
REMARK    5  A    between atoms: C_17  and  N_18 
REMARK    6  A    between atoms: C_21  and  C_22 
REMARK       I    between atoms: C_22  and  N_23 
REMARK    7  A    between atoms: C_31  and  C_32 
ROOT
HETATM    1  C   UNL     1      41.511 -15.071   3.859  1.00  0.00     0.278 C 
HETATM    2  N   UNL     1      41.889 -14.431   5.026  1.00  0.00    -0.322 N 
HETATM    3  O   UNL     1      40.543 -14.795   3.163  1.00  0.00    -0.265 OA
HETATM    4  H   UNL     1      42.751 -14.770   5.443  1.00  0.00     0.169 HD
ENDROOT
BRANCH   2   5
HETATM    5  C   UNL     1      41.240 -13.356   5.663  1.00  0.00     0.035 A 
HETATM    6  C   UNL     1      39.930 -13.411   6.136  1.00  0.00     0.030 A 
HETATM    7  C   UNL     1      39.344 -12.300   6.751  1.00  0.00     0.011 A 
HETATM    8  C   UNL     1      40.061 -11.108   6.911  1.00  0.00    -0.032 A 
HETATM    9  C   UNL     1      41.379 -11.051   6.441  1.00  0.00     0.011 A 
HETATM   10  C   UNL     1      41.961 -12.167   5.826  1.00  0.00     0.030 A 
BRANCH   8  11
HETATM   11  C   UNL     1      39.414  -9.921   7.574  1.00  0.00     0.273 C 
BRANCH  11  12
HETATM   12  N   UNL     1      39.795  -9.762   9.028  1.00  0.00    -0.066 N 
HETATM   13  H   UNL     1      40.266 -10.650   9.297  1.00  0.00     0.280 HD
HETATM   14  C   UNL     1      40.840  -8.692   9.256  1.00  0.00     0.249 C 
HETATM   15  C   UNL     1      41.298  -8.684  10.716  1.00  0.00     0.103 C 
HETATM   16  C   UNL     1      40.106  -8.555  11.668  1.00  0.00     0.017 C 
HETATM   17  C   UNL     1      39.018  -9.592  11.376  1.00  0.00     0.029 C 
HETATM   18  C   UNL     1      38.593  -9.596   9.914  1.00  0.00     0.235 C 
BRANCH  15  19
HETATM   19  C   UNL     1      42.066  -9.962  11.001  1.00  0.00     0.221 C 
HETATM   20  N   UNL     1      42.550 -10.105  12.261  1.00  0.00    -0.370 N 
HETATM   21  H   UNL     1      42.533  -9.378  12.967  1.00  0.00     0.159 HD
HETATM   22  H   UNL     1      43.073 -10.947  12.483  1.00  0.00     0.159 HD
HETATM   23  O   UNL     1      42.164 -10.852  10.160  1.00  0.00    -0.273 OA
ENDBRANCH  15  19
ENDBRANCH  11  12
ENDBRANCH   8  11
ENDBRANCH   2   5
BRANCH   1  24
HETATM   24  C   UNL     1      42.427 -16.141   3.482  1.00  0.00     0.175 C 
HETATM   25  N   UNL     1      43.368 -16.000   2.500  1.00  0.00    -0.152 NA
HETATM   26  N   UNL     1      44.018 -17.147   2.395  1.00  0.00     0.011 NA
HETATM   27  N   UNL     1      43.426 -18.065   3.212  1.00  0.00    -0.231 N 
HETATM   28  C   UNL     1      42.535 -17.406   4.030  1.00  0.00     0.174 C 
BRANCH  27  29
HETATM   29  C   UNL     1      43.750 -19.443   3.064  1.00  0.00     0.058 A 
HETATM   30  C   UNL     1      44.537 -20.063   4.049  1.00  0.00     0.073 A 
HETATM   31  C   UNL     1      44.876 -21.406   3.921  1.00  0.00     0.118 A 
HETATM   32  C   UNL     1      44.466 -22.149   2.821  1.00  0.00     0.042 A 
HETATM   33  F   UNL     1      45.609 -21.993   4.875  1.00  0.00    -0.206 F 
HETATM   34  C   UNL     1      43.711 -21.535   1.826  1.00  0.00     0.005 A 
HETATM   35  C   UNL     1      43.358 -20.185   1.941  1.00  0.00     0.031 A 
ENDBRANCH  27  29
BRANCH  28  36
HETATM   36  C   UNL     1      41.926 -17.957   5.236  1.00  0.00     0.436 C 
HETATM   37  F   UNL     1      40.589 -18.140   5.105  1.00  0.00    -0.165 F 
HETATM   38  F   UNL     1      42.422 -19.178   5.553  1.00  0.00    -0.165 F 
HETATM   39  F   UNL     1      42.113 -17.150   6.307  1.00  0.00    -0.165 F 
ENDBRANCH  28  36
ENDBRANCH   1  24
TORSDOF 7
ENDMDL
MODEL 2
REMARK VINA RESULT:      -9.0      1.196      1.717
REMARK  7 active torsions:
REMARK  status: ('A' for Active; 'I' for Inactive)
REMARK    1  A    between atoms: C_6  and  N_7 
REMARK    2  A    between atoms: C_10  and  C_11 
REMARK       I    between atoms: C_11  and  N_12 
REMARK    3  A    between atoms: N_12  and  C_13 
REMARK    4  A    between atoms: C_16  and  C_17 
REMARK    5  A    between atoms: C_17  and  N_18 
REMARK    6  A    between atoms: C_21  and  C_22 
REMARK       I    between atoms: C_22  and  N_23 
REMARK    7  A    between atoms: C_31  and  C_32 
ROOT
HETATM    1  C   UNL     1      41.006 -14.125   4.551  1.00  0.00     0.278 C 
HETATM    2  N   UNL     1      41.549 -13.322   5.538  1.00  0.00    -0.322 N 
HETATM    3  O   UNL     1      39.875 -14.044   4.092  1.00  0.00    -0.265 OA
HETATM    4  H   UNL     1      42.524 -13.508   5.757  1.00  0.00     0.169 HD
ENDROOT
BRANCH   2   5
HETATM    5  C   UNL     1      40.918 -12.270   6.230  1.00  0.00     0.035 A 
HETATM    6  C   UNL     1      41.245 -10.925   6.064  1.00  0.00     0.030 A 
HETATM    7  C   UNL     1      40.583  -9.932   6.793  1.00  0.00     0.011 A 
HETATM    8  C   UNL     1      39.573 -10.265   7.704  1.00  0.00    -0.032 A 
HETATM    9  C   UNL     1      39.240 -11.615   7.870  1.00  0.00     0.011 A 
HETATM   10  C   UNL     1      39.905 -12.605   7.136  1.00  0.00     0.030 A 
BRANCH   8  11
HETATM   11  C   UNL     1      38.872  -9.183   8.482  1.00  0.00     0.273 C 
BRANCH  11  12
HETATM   12  N   UNL     1      39.039  -9.314   9.979  1.00  0.00    -0.066 N 
HETATM   13  H   UNL     1      39.064 -10.336  10.173  1.00  0.00     0.280 HD
HETATM   14  C   UNL     1      40.371  -8.798  10.476  1.00  0.00     0.249 C 
HETATM   15  C   UNL     1      40.546  -9.098  11.966  1.00  0.00     0.103 C 
HETATM   16  C   UNL     1      39.365  -8.561  12.780  1.00  0.00     0.017 C 
HETATM   17  C   UNL     1      38.018  -9.024  12.219  1.00  0.00     0.029 C 
HETATM   18  C   UNL     1      37.875  -8.734  10.732  1.00  0.00     0.235 C 
BRANCH  15  19
HETATM   19  C   UNL     1      40.681 -10.598  12.157  1.00  0.00     0.221 C 
HETATM   20  N   UNL     1      40.968 -11.022  13.414  1.00  0.00    -0.370 N 
HETATM   21  H   UNL     1      41.209 -10.408  14.184  1.00  0.00     0.159 HD
HETATM   22  H   UNL     1      41.070 -12.019  13.574  1.00  0.00     0.159 HD
HETATM   23  O   UNL     1      40.454 -11.383  11.240  1.00  0.00    -0.273 OA
ENDBRANCH  15  19
ENDBRANCH  11  12
ENDBRANCH   8  11
ENDBRANCH   2   5
BRANCH   1  24
HETATM   24  C   UNL     1      41.953 -15.112   4.044  1.00  0.00     0.175 C 
HETATM   25  N   UNL     1      42.886 -14.822   3.088  1.00  0.00    -0.152 NA
HETATM   26  N   UNL     1      43.570 -15.927   2.841  1.00  0.00     0.011 NA
HETATM   27  N   UNL     1      43.009 -16.956   3.538  1.00  0.00    -0.231 N 
HETATM   28  C   UNL     1      42.101 -16.431   4.431  1.00  0.00     0.174 C 
BRANCH  27  29
HETATM   29  C   UNL     1      43.374 -18.294   3.221  1.00  0.00     0.058 A 
HETATM   30  C   UNL     1      44.299 -18.957   4.045  1.00  0.00     0.073 A 
HETATM   31  C   UNL     1      44.679 -20.263   3.748  1.00  0.00     0.118 A 
HETATM   32  C   UNL     1      44.175 -20.923   2.635  1.00  0.00     0.042 A 
HETATM   33  F   UNL     1      45.545 -20.893   4.551  1.00  0.00    -0.206 F 
HETATM   34  C   UNL     1      43.280 -20.264   1.798  1.00  0.00     0.005 A 
HETATM   35  C   UNL     1      42.884 -18.951   2.083  1.00  0.00     0.031 A 
ENDBRANCH  27  29
BRANCH  28  36
HETATM   36  C   UNL     1      41.513 -17.145   5.560  1.00  0.00     0.436 C 
HETATM   37  F   UNL     1      42.452 -17.646   6.402  1.00  0.00    -0.165 F 
HETATM   38  F   UNL     1      40.739 -16.343   6.331  1.00  0.00    -0.165 F 
HETATM   39  F   UNL     1      40.749 -18.186   5.155  1.00  0.00    -0.165 F 
ENDBRANCH  28  36
ENDBRANCH   1  24
TORSDOF 7
ENDMDL
MODEL 3
REMARK VINA RESULT:      -9.0      3.568     10.750
REMARK  7 active torsions:
REMARK  status: ('A' for Active; 'I' for Inactive)
REMARK    1  A    between atoms: C_6  and  N_7 
REMARK    2  A    between atoms: C_10  and  C_11 
REMARK       I    between atoms: C_11  and  N_12 
REMARK    3  A    between atoms: N_12  and  C_13 
REMARK    4  A    between atoms: C_16  and  C_17 
REMARK    5  A    between atoms: C_17  and  N_18 
REMARK    6  A    between atoms: C_21  and  C_22 
REMARK       I    between atoms: C_22  and  N_23 
REMARK    7  A    between atoms: C_31  and  C_32 
ROOT
HETATM    1  C   UNL     1      41.294 -10.793   7.267  1.00  0.00     0.278 C 
HETATM    2  N   UNL     1      41.043 -12.136   7.051  1.00  0.00    -0.322 N 
HETATM    3  O   UNL     1      41.632  -9.974   6.423  1.00  0.00    -0.265 OA
HETATM    4  H   UNL     1      40.725 -12.652   7.867  1.00  0.00     0.169 HD
ENDROOT
BRANCH   2   5
HETATM    5  C   UNL     1      41.144 -12.842   5.836  1.00  0.00     0.035 A 
HETATM    6  C   UNL     1      40.045 -13.234   5.073  1.00  0.00     0.030 A 
HETATM    7  C   UNL     1      40.219 -13.943   3.880  1.00  0.00     0.011 A 
HETATM    8  C   UNL     1      41.500 -14.270   3.421  1.00  0.00    -0.032 A 
HETATM    9  C   UNL     1      42.606 -13.874   4.183  1.00  0.00     0.011 A 
HETATM   10  C   UNL     1      42.426 -13.164   5.377  1.00  0.00     0.030 A 
BRANCH   8  11
HETATM   11  C   UNL     1      41.669 -15.035   2.135  1.00  0.00     0.273 C 
BRANCH  11  12
HETATM   12  N   UNL     1      42.444 -16.323   2.297  1.00  0.00    -0.066 N 
HETATM   13  H   UNL     1      43.260 -16.089   2.899  1.00  0.00     0.280 HD
HETATM   14  C   UNL     1      41.687 -17.378   3.075  1.00  0.00     0.249 C 
HETATM   15  C   UNL     1      42.576 -18.594   3.342  1.00  0.00     0.103 C 
HETATM   16  C   UNL     1      43.174 -19.137   2.041  1.00  0.00     0.017 C 
HETATM   17  C   UNL     1      43.867 -18.045   1.223  1.00  0.00     0.029 C 
HETATM   18  C   UNL     1      42.972 -16.836   0.988  1.00  0.00     0.235 C 
BRANCH  15  19
HETATM   19  C   UNL     1      43.679 -18.201   4.307  1.00  0.00     0.221 C 
HETATM   20  N   UNL     1      44.585 -19.164   4.611  1.00  0.00    -0.370 N 
HETATM   21  H   UNL     1      44.502 -20.136   4.335  1.00  0.00     0.159 HD
HETATM   22  H   UNL     1      45.333 -18.934   5.258  1.00  0.00     0.159 HD
HETATM   23  O   UNL     1      43.790 -17.048   4.716  1.00  0.00    -0.273 OA
ENDBRANCH  15  19
ENDBRANCH  11  12
ENDBRANCH   8  11
ENDBRANCH   2   5
BRANCH   1  24
HETATM   24  C   UNL     1      41.077 -10.397   8.654  1.00  0.00     0.175 C 
HETATM   25  N   UNL     1      39.867  -9.964   9.122  1.00  0.00    -0.152 NA
HETATM   26  N   UNL     1      40.010  -9.671  10.403  1.00  0.00     0.011 NA
HETATM   27  N   UNL     1      41.327  -9.792  10.738  1.00  0.00    -0.231 N 
HETATM   28  C   UNL     1      41.984 -10.412   9.698  1.00  0.00     0.174 C 
BRANCH  27  29
HETATM   29  C   UNL     1      41.785  -9.254  11.974  1.00  0.00     0.058 A 
HETATM   30  C   UNL     1      41.881 -10.104  13.088  1.00  0.00     0.073 A 
HETATM   31  C   UNL     1      42.316  -9.598  14.309  1.00  0.00     0.118 A 
HETATM   32  C   UNL     1      42.641  -8.256  14.457  1.00  0.00     0.042 A 
HETATM   33  F   UNL     1      42.423 -10.420  15.360  1.00  0.00    -0.206 F 
HETATM   34  C   UNL     1      42.521  -7.401  13.365  1.00  0.00     0.005 A 
HETATM   35  C   UNL     1      42.089  -7.894  12.127  1.00  0.00     0.031 A 
ENDBRANCH  27  29
BRANCH  28  36
HETATM   36  C   UNL     1      43.318 -10.998   9.769  1.00  0.00     0.436 C 
HETATM   37  F   UNL     1      43.743 -11.465   8.568  1.00  0.00    -0.165 F 
HETATM   38  F   UNL     1      44.257 -10.099  10.152  1.00  0.00    -0.165 F 
HETATM   39  F   UNL     1      43.367 -12.036  10.637  1.00  0.00    -0.165 F 
ENDBRANCH  28  36
ENDBRANCH   1  24
TORSDOF 7
ENDMDL
MODEL 4
REMARK VINA RESULT:      -8.9      3.424     10.772
REMARK  7 active torsions:
REMARK  status: ('A' for Active; 'I' for Inactive)
REMARK    1  A    between atoms: C_6  and  N_7 
REMARK    2  A    between atoms: C_10  and  C_11 
REMARK       I    between atoms: C_11  and  N_12 
REMARK    3  A    between atoms: N_12  and  C_13 
REMARK    4  A    between atoms: C_16  and  C_17 
REMARK    5  A    between atoms: C_17  and  N_18 
REMARK    6  A    between atoms: C_21  and  C_22 
REMARK       I    between atoms: C_22  and  N_23 
REMARK    7  A    between atoms: C_31  and  C_32 
ROOT
HETATM    1  C   UNL     1      40.797 -11.652   6.219  1.00  0.00     0.278 C 
HETATM    2  N   UNL     1      41.707 -12.694   6.256  1.00  0.00    -0.322 N 
HETATM    3  O   UNL     1      39.833 -11.559   5.472  1.00  0.00    -0.265 OA
HETATM    4  H   UNL     1      42.417 -12.619   6.979  1.00  0.00     0.169 HD
ENDROOT
BRANCH   2   5
HETATM    5  C   UNL     1      41.730 -13.841   5.440  1.00  0.00     0.035 A 
HETATM    6  C   UNL     1      42.662 -14.052   4.425  1.00  0.00     0.030 A 
HETATM    7  C   UNL     1      42.620 -15.213   3.645  1.00  0.00     0.011 A 
HETATM    8  C   UNL     1      41.644 -16.191   3.869  1.00  0.00    -0.032 A 
HETATM    9  C   UNL     1      40.709 -15.983   4.890  1.00  0.00     0.011 A 
HETATM   10  C   UNL     1      40.756 -14.820   5.669  1.00  0.00     0.030 A 
BRANCH   8  11
HETATM   11  C   UNL     1      41.612 -17.434   3.019  1.00  0.00     0.273 C 
BRANCH  11  12
HETATM   12  N   UNL     1      42.582 -18.500   3.474  1.00  0.00    -0.066 N 
HETATM   13  H   UNL     1      42.133 -19.410   3.242  1.00  0.00     0.280 HD
HETATM   14  C   UNL     1      43.876 -18.502   2.690  1.00  0.00     0.249 C 
HETATM   15  C   UNL     1      44.748 -19.694   3.088  1.00  0.00     0.103 C 
HETATM   16  C   UNL     1      44.978 -19.730   4.601  1.00  0.00     0.017 C 
HETATM   17  C   UNL     1      43.667 -19.646   5.387  1.00  0.00     0.029 C 
HETATM   18  C   UNL     1      42.805 -18.465   4.960  1.00  0.00     0.235 C 
BRANCH  15  19
HETATM   19  C   UNL     1      44.079 -20.975   2.623  1.00  0.00     0.221 C 
HETATM   20  N   UNL     1      44.557 -22.130   3.152  1.00  0.00    -0.370 N 
HETATM   21  H   UNL     1      45.388 -22.195   3.728  1.00  0.00     0.159 HD
HETATM   22  H   UNL     1      44.134 -23.005   2.858  1.00  0.00     0.159 HD
HETATM   23  O   UNL     1      43.102 -20.953   1.879  1.00  0.00    -0.273 OA
ENDBRANCH  15  19
ENDBRANCH  11  12
ENDBRANCH   8  11
ENDBRANCH   2   5
BRANCH   1  24
HETATM   24  C   UNL     1      41.072 -10.629   7.222  1.00  0.00     0.175 C 
HETATM   25  N   UNL     1      41.891  -9.560   6.988  1.00  0.00    -0.152 NA
HETATM   26  N   UNL     1      41.940  -8.837   8.094  1.00  0.00     0.011 NA
HETATM   27  N   UNL     1      41.260  -9.493   9.078  1.00  0.00    -0.231 N 
HETATM   28  C   UNL     1      40.564 -10.534   8.505  1.00  0.00     0.174 C 
BRANCH  27  29
HETATM   29  C   UNL     1      41.411  -9.072  10.429  1.00  0.00     0.058 A 
HETATM   30  C   UNL     1      42.502  -9.555  11.171  1.00  0.00     0.073 A 
HETATM   31  C   UNL     1      42.663  -9.166  12.498  1.00  0.00     0.118 A 
HETATM   32  C   UNL     1      41.752  -8.319  13.115  1.00  0.00     0.042 A 
HETATM   33  F   UNL     1      43.717  -9.615  13.190  1.00  0.00    -0.206 F 
HETATM   34  C   UNL     1      40.653  -7.859  12.396  1.00  0.00     0.005 A 
HETATM   35  C   UNL     1      40.476  -8.237  11.059  1.00  0.00     0.031 A 
ENDBRANCH  27  29
BRANCH  28  36
HETATM   36  C   UNL     1      39.488 -11.285   9.143  1.00  0.00     0.436 C 
HETATM   37  F   UNL     1      38.358 -10.548   9.291  1.00  0.00    -0.165 F 
HETATM   38  F   UNL     1      39.113 -12.366   8.416  1.00  0.00    -0.165 F 
HETATM   39  F   UNL     1      39.840 -11.723  10.374  1.00  0.00    -0.165 F 
ENDBRANCH  28  36
ENDBRANCH   1  24
TORSDOF 7
ENDMDL
MODEL 5
REMARK VINA RESULT:      -8.7      4.044      5.480
REMARK  7 active torsions:
REMARK  status: ('A' for Active; 'I' for Inactive)
REMARK    1  A    between atoms: C_6  and  N_7 
REMARK    2  A    between atoms: C_10  and  C_11 
REMARK       I    between atoms: C_11  and  N_12 
REMARK    3  A    between atoms: N_12  and  C_13 
REMARK    4  A    between atoms: C_16  and  C_17 
REMARK    5  A    between atoms: C_17  and  N_18 
REMARK    6  A    between atoms: C_21  and  C_22 
REMARK       I    between atoms: C_22  and  N_23 
REMARK    7  A    between atoms: C_31  and  C_32 
ROOT
HETATM    1  C   UNL     1      41.879 -13.041   3.288  1.00  0.00     0.278 C 
HETATM    2  N   UNL     1      40.817 -12.322   3.807  1.00  0.00    -0.322 N 
HETATM    3  O   UNL     1      42.823 -13.497   3.921  1.00  0.00    -0.265 OA
HETATM    4  H   UNL     1      40.101 -12.067   3.133  1.00  0.00     0.169 HD
ENDROOT
BRANCH   2   5
HETATM    5  C   UNL     1      40.610 -11.947   5.148  1.00  0.00     0.035 A 
HETATM    6  C   UNL     1      39.753 -12.619   6.018  1.00  0.00     0.030 A 
HETATM    7  C   UNL     1      39.587 -12.184   7.337  1.00  0.00     0.011 A 
HETATM    8  C   UNL     1      40.282 -11.066   7.816  1.00  0.00    -0.032 A 
HETATM    9  C   UNL     1      41.146 -10.392   6.945  1.00  0.00     0.011 A 
HETATM   10  C   UNL     1      41.309 -10.832   5.625  1.00  0.00     0.030 A 
BRANCH   8  11
HETATM   11  C   UNL     1      40.090 -10.610   9.238  1.00  0.00     0.273 C 
BRANCH  11  12
HETATM   12  N   UNL     1      41.243 -10.972  10.147  1.00  0.00    -0.066 N 
HETATM   13  H   UNL     1      41.510 -11.945   9.892  1.00  0.00     0.280 HD
HETATM   14  C   UNL     1      42.488 -10.153   9.883  1.00  0.00     0.249 C 
HETATM   15  C   UNL     1      43.661 -10.668  10.720  1.00  0.00     0.103 C 
HETATM   16  C   UNL     1      43.297 -10.725  12.206  1.00  0.00     0.017 C 
HETATM   17  C   UNL     1      41.992 -11.486  12.453  1.00  0.00     0.029 C 
HETATM   18  C   UNL     1      40.845 -10.972  11.595  1.00  0.00     0.235 C 
BRANCH  15  19
HETATM   19  C   UNL     1      44.060 -12.044  10.221  1.00  0.00     0.221 C 
HETATM   20  N   UNL     1      43.982 -12.245   8.881  1.00  0.00    -0.370 N 
HETATM   21  H   UNL     1      43.570 -11.590   8.227  1.00  0.00     0.159 HD
HETATM   22  H   UNL     1      44.238 -13.157   8.515  1.00  0.00     0.159 HD
HETATM   23  O   UNL     1      44.513 -12.896  10.983  1.00  0.00    -0.273 OA
ENDBRANCH  15  19
ENDBRANCH  11  12
ENDBRANCH   8  11
ENDBRANCH   2   5
BRANCH   1  24
HETATM   24  C   UNL     1      41.763 -13.259   1.851  1.00  0.00     0.175 C 
HETATM   25  N   UNL     1      42.375 -12.458   0.927  1.00  0.00    -0.152 NA
HETATM   26  N   UNL     1      42.060 -12.912  -0.274  1.00  0.00     0.011 NA
HETATM   27  N   UNL     1      41.154 -13.922  -0.139  1.00  0.00    -0.231 N 
HETATM   28  C   UNL     1      41.085 -14.269   1.192  1.00  0.00     0.174 C 
BRANCH  27  29
HETATM   29  C   UNL     1      40.441 -14.378  -1.284  1.00  0.00     0.058 A 
HETATM   30  C   UNL     1      39.166 -13.849  -1.542  1.00  0.00     0.073 A 
HETATM   31  C   UNL     1      38.446 -14.287  -2.649  1.00  0.00     0.118 A 
HETATM   32  C   UNL     1      38.956 -15.259  -3.500  1.00  0.00     0.042 A 
HETATM   33  F   UNL     1      37.240 -13.762  -2.899  1.00  0.00    -0.206 F 
HETATM   34  C   UNL     1      40.206 -15.810  -3.235  1.00  0.00     0.005 A 
HETATM   35  C   UNL     1      40.947 -15.378  -2.128  1.00  0.00     0.031 A 
ENDBRANCH  27  29
BRANCH  28  36
HETATM   36  C   UNL     1      40.478 -15.485   1.721  1.00  0.00     0.436 C 
HETATM   37  F   UNL     1      40.842 -16.591   1.025  1.00  0.00    -0.165 F 
HETATM   38  F   UNL     1      40.849 -15.734   3.000  1.00  0.00    -0.165 F 
HETATM   39  F   UNL     1      39.125 -15.426   1.691  1.00  0.00    -0.165 F 
ENDBRANCH  28  36
ENDBRANCH   1  24
TORSDOF 7
ENDMDL
MODEL 6
REMARK VINA RESULT:      -8.6      5.043      6.280
REMARK  7 active torsions:
REMARK  status: ('A' for Active; 'I' for Inactive)
REMARK    1  A    between atoms: C_6  and  N_7 
REMARK    2  A    between atoms: C_10  and  C_11 
REMARK       I    between atoms: C_11  and  N_12 
REMARK    3  A    between atoms: N_12  and  C_13 
REMARK    4  A    between atoms: C_16  and  C_17 
REMARK    5  A    between atoms: C_17  and  N_18 
REMARK    6  A    between atoms: C_21  and  C_22 
REMARK       I    between atoms: C_22  and  N_23 
REMARK    7  A    between atoms: C_31  and  C_32 
ROOT
HETATM    1  C   UNL     1      40.833 -13.638   1.602  1.00  0.00     0.278 C 
HETATM    2  N   UNL     1      39.839 -13.208   2.463  1.00  0.00    -0.322 N 
HETATM    3  O   UNL     1      40.980 -13.295   0.436  1.00  0.00    -0.265 OA
HETATM    4  H   UNL     1      39.907 -13.567   3.411  1.00  0.00     0.169 HD
ENDROOT
BRANCH   2   5
HETATM    5  C   UNL     1      38.788 -12.315   2.181  1.00  0.00     0.035 A 
HETATM    6  C   UNL     1      38.617 -11.090   2.825  1.00  0.00     0.030 A 
HETATM    7  C   UNL     1      37.542 -10.255   2.501  1.00  0.00     0.011 A 
HETATM    8  C   UNL     1      36.617 -10.627   1.518  1.00  0.00    -0.032 A 
HETATM    9  C   UNL     1      36.789 -11.855   0.867  1.00  0.00     0.011 A 
HETATM   10  C   UNL     1      37.867 -12.687   1.195  1.00  0.00     0.030 A 
BRANCH   8  11
HETATM   11  C   UNL     1      35.465  -9.717   1.183  1.00  0.00     0.273 C 
BRANCH  11  12
HETATM   12  N   UNL     1      34.334  -9.785   2.184  1.00  0.00    -0.066 N 
HETATM   13  H   UNL     1      34.738 -10.215   3.041  1.00  0.00     0.280 HD
HETATM   14  C   UNL     1      33.853  -8.421   2.631  1.00  0.00     0.249 C 
HETATM   15  C   UNL     1      32.821  -8.553   3.753  1.00  0.00     0.103 C 
HETATM   16  C   UNL     1      31.672  -9.476   3.342  1.00  0.00     0.017 C 
HETATM   17  C   UNL     1      32.172 -10.823   2.814  1.00  0.00     0.029 C 
HETATM   18  C   UNL     1      33.213 -10.668   1.714  1.00  0.00     0.235 C 
BRANCH  15  19
HETATM   19  C   UNL     1      33.508  -9.085   4.998  1.00  0.00     0.221 C 
HETATM   20  N   UNL     1      32.700  -9.618   5.950  1.00  0.00    -0.370 N 
HETATM   21  H   UNL     1      31.688  -9.573   5.932  1.00  0.00     0.159 HD
HETATM   22  H   UNL     1      33.128  -9.979   6.796  1.00  0.00     0.159 HD
HETATM   23  O   UNL     1      34.733  -9.110   5.092  1.00  0.00    -0.273 OA
ENDBRANCH  15  19
ENDBRANCH  11  12
ENDBRANCH   8  11
ENDBRANCH   2   5
BRANCH   1  24
HETATM   24  C   UNL     1      41.768 -14.560   2.236  1.00  0.00     0.175 C 
HETATM   25  N   UNL     1      42.965 -14.158   2.761  1.00  0.00    -0.152 NA
HETATM   26  N   UNL     1      43.576 -15.228   3.243  1.00  0.00     0.011 NA
HETATM   27  N   UNL     1      42.842 -16.333   2.925  1.00  0.00    -0.231 N 
HETATM   28  C   UNL     1      41.619 -15.919   2.444  1.00  0.00     0.174 C 
BRANCH  27  29
HETATM   29  C   UNL     1      43.425 -17.623   3.072  1.00  0.00     0.058 A 
HETATM   30  C   UNL     1      43.855 -18.031   4.346  1.00  0.00     0.073 A 
HETATM   31  C   UNL     1      44.438 -19.284   4.511  1.00  0.00     0.118 A 
HETATM   32  C   UNL     1      44.623 -20.139   3.433  1.00  0.00     0.042 A 
HETATM   33  F   UNL     1      44.825 -19.671   5.733  1.00  0.00    -0.206 F 
HETATM   34  C   UNL     1      44.226 -19.731   2.163  1.00  0.00     0.005 A 
HETATM   35  C   UNL     1      43.635 -18.475   1.978  1.00  0.00     0.031 A 
ENDBRANCH  27  29
BRANCH  28  36
HETATM   36  C   UNL     1      40.443 -16.766   2.281  1.00  0.00     0.436 C 
HETATM   37  F   UNL     1      39.309 -16.046   2.088  1.00  0.00    -0.165 F 
HETATM   38  F   UNL     1      40.537 -17.576   1.198  1.00  0.00    -0.165 F 
HETATM   39  F   UNL     1      40.234 -17.553   3.363  1.00  0.00    -0.165 F 
ENDBRANCH  28  36
ENDBRANCH   1  24
TORSDOF 7
ENDMDL
MODEL 7
REMARK VINA RESULT:      -8.6      5.289      6.447
REMARK  7 active torsions:
REMARK  status: ('A' for Active; 'I' for Inactive)
REMARK    1  A    between atoms: C_6  and  N_7 
REMARK    2  A    between atoms: C_10  and  C_11 
REMARK       I    between atoms: C_11  and  N_12 
REMARK    3  A    between atoms: N_12  and  C_13 
REMARK    4  A    between atoms: C_16  and  C_17 
REMARK    5  A    between atoms: C_17  and  N_18 
REMARK    6  A    between atoms: C_21  and  C_22 
REMARK       I    between atoms: C_22  and  N_23 
REMARK    7  A    between atoms: C_31  and  C_32 
ROOT
HETATM    1  C   UNL     1      40.219 -14.702   0.809  1.00  0.00     0.278 C 
HETATM    2  N   UNL     1      39.245 -14.276   1.694  1.00  0.00    -0.322 N 
HETATM    3  O   UNL     1      40.503 -14.180  -0.261  1.00  0.00    -0.265 OA
HETATM    4  H   UNL     1      39.185 -14.808   2.557  1.00  0.00     0.169 HD
ENDROOT
BRANCH   2   5
HETATM    5  C   UNL     1      38.371 -13.181   1.546  1.00  0.00     0.035 A 
HETATM    6  C   UNL     1      37.329 -13.141   0.621  1.00  0.00     0.030 A 
HETATM    7  C   UNL     1      36.504 -12.015   0.522  1.00  0.00     0.011 A 
HETATM    8  C   UNL     1      36.704 -10.905   1.352  1.00  0.00    -0.032 A 
HETATM    9  C   UNL     1      37.747 -10.945   2.284  1.00  0.00     0.011 A 
HETATM   10  C   UNL     1      38.570 -12.075   2.380  1.00  0.00     0.030 A 
BRANCH   8  11
HETATM   11  C   UNL     1      35.808  -9.701   1.230  1.00  0.00     0.273 C 
BRANCH  11  12
HETATM   12  N   UNL     1      34.621  -9.736   2.166  1.00  0.00    -0.066 N 
HETATM   13  H   UNL     1      34.964 -10.182   3.042  1.00  0.00     0.280 HD
HETATM   14  C   UNL     1      34.159  -8.360   2.593  1.00  0.00     0.249 C 
HETATM   15  C   UNL     1      33.063  -8.463   3.656  1.00  0.00     0.103 C 
HETATM   16  C   UNL     1      31.910  -9.349   3.176  1.00  0.00     0.017 C 
HETATM   17  C   UNL     1      32.397 -10.709   2.669  1.00  0.00     0.029 C 
HETATM   18  C   UNL     1      33.501 -10.582   1.629  1.00  0.00     0.235 C 
BRANCH  15  19
HETATM   19  C   UNL     1      33.662  -9.022   4.933  1.00  0.00     0.221 C 
HETATM   20  N   UNL     1      32.786  -9.526   5.839  1.00  0.00    -0.370 N 
HETATM   21  H   UNL     1      31.778  -9.443   5.768  1.00  0.00     0.159 HD
HETATM   22  H   UNL     1      33.154  -9.903   6.707  1.00  0.00     0.159 HD
HETATM   23  O   UNL     1      34.878  -9.092   5.093  1.00  0.00    -0.273 OA
ENDBRANCH  15  19
ENDBRANCH  11  12
ENDBRANCH   8  11
ENDBRANCH   2   5
BRANCH   1  24
HETATM   24  C   UNL     1      40.948 -15.869   1.293  1.00  0.00     0.175 C 
HETATM   25  N   UNL     1      40.790 -17.117   0.758  1.00  0.00    -0.152 NA
HETATM   26  N   UNL     1      41.576 -17.945   1.426  1.00  0.00     0.011 NA
HETATM   27  N   UNL     1      42.145 -17.270   2.464  1.00  0.00    -0.231 N 
HETATM   28  C   UNL     1      41.899 -15.925   2.296  1.00  0.00     0.174 C 
BRANCH  27  29
HETATM   29  C   UNL     1      42.796 -18.000   3.498  1.00  0.00     0.058 A 
HETATM   30  C   UNL     1      43.822 -18.896   3.152  1.00  0.00     0.073 A 
HETATM   31  C   UNL     1      44.466 -19.629   4.144  1.00  0.00     0.118 A 
HETATM   32  C   UNL     1      44.100 -19.508   5.479  1.00  0.00     0.042 A 
HETATM   33  F   UNL     1      45.456 -20.464   3.807  1.00  0.00    -0.206 F 
HETATM   34  C   UNL     1      43.065 -18.645   5.827  1.00  0.00     0.005 A 
HETATM   35  C   UNL     1      42.409 -17.897   4.842  1.00  0.00     0.031 A 
ENDBRANCH  27  29
BRANCH  28  36
HETATM   36  C   UNL     1      42.577 -14.844   3.003  1.00  0.00     0.436 C 
HETATM   37  F   UNL     1      43.883 -15.122   3.244  1.00  0.00    -0.165 F 
HETATM   38  F   UNL     1      42.586 -13.689   2.293  1.00  0.00    -0.165 F 
HETATM   39  F   UNL     1      42.000 -14.585   4.199  1.00  0.00    -0.165 F 
ENDBRANCH  28  36
ENDBRANCH   1  24
TORSDOF 7
ENDMDL
MODEL 8
REMARK VINA RESULT:      -8.4      5.091      6.228
REMARK  7 active torsions:
REMARK  status: ('A' for Active; 'I' for Inactive)
REMARK    1  A    between atoms: C_6  and  N_7 
REMARK    2  A    between atoms: C_10  and  C_11 
REMARK       I    between atoms: C_11  and  N_12 
REMARK    3  A    between atoms: N_12  and  C_13 
REMARK    4  A    between atoms: C_16  and  C_17 
REMARK    5  A    between atoms: C_17  and  N_18 
REMARK    6  A    between atoms: C_21  and  C_22 
REMARK       I    between atoms: C_22  and  N_23 
REMARK    7  A    between atoms: C_31  and  C_32 
ROOT
HETATM    1  C   UNL     1      40.959 -14.660   2.682  1.00  0.00     0.278 C 
HETATM    2  N   UNL     1      39.581 -14.616   2.567  1.00  0.00    -0.322 N 
HETATM    3  O   UNL     1      41.734 -13.738   2.464  1.00  0.00    -0.265 OA
HETATM    4  H   UNL     1      39.099 -15.469   2.837  1.00  0.00     0.169 HD
ENDROOT
BRANCH   2   5
HETATM    5  C   UNL     1      38.790 -13.525   2.160  1.00  0.00     0.035 A 
HETATM    6  C   UNL     1      37.935 -13.554   1.059  1.00  0.00     0.030 A 
HETATM    7  C   UNL     1      37.184 -12.428   0.706  1.00  0.00     0.011 A 
HETATM    8  C   UNL     1      37.269 -11.247   1.453  1.00  0.00    -0.032 A 
HETATM    9  C   UNL     1      38.123 -11.217   2.562  1.00  0.00     0.011 A 
HETATM   10  C   UNL     1      38.873 -12.347   2.912  1.00  0.00     0.030 A 
BRANCH   8  11
HETATM   11  C   UNL     1      36.454 -10.044   1.058  1.00  0.00     0.273 C 
BRANCH  11  12
HETATM   12  N   UNL     1      35.218  -9.849   1.906  1.00  0.00    -0.066 N 
HETATM   13  H   UNL     1      35.418 -10.322   2.812  1.00  0.00     0.280 HD
HETATM   14  C   UNL     1      34.972  -8.402   2.277  1.00  0.00     0.249 C 
HETATM   15  C   UNL     1      33.805  -8.286   3.259  1.00  0.00     0.103 C 
HETATM   16  C   UNL     1      32.552  -8.974   2.711  1.00  0.00     0.017 C 
HETATM   17  C   UNL     1      32.830 -10.411   2.263  1.00  0.00     0.029 C 
HETATM   18  C   UNL     1      34.009 -10.506   1.304  1.00  0.00     0.235 C 
BRANCH  15  19
HETATM   19  C   UNL     1      34.209  -8.902   4.585  1.00  0.00     0.221 C 
HETATM   20  N   UNL     1      33.228  -9.529   5.283  1.00  0.00    -0.370 N 
HETATM   21  H   UNL     1      32.246  -9.505   5.035  1.00  0.00     0.159 HD
HETATM   22  H   UNL     1      33.465  -9.947   6.176  1.00  0.00     0.159 HD
HETATM   23  O   UNL     1      35.380  -8.908   4.958  1.00  0.00    -0.273 OA
ENDBRANCH  15  19
ENDBRANCH  11  12
ENDBRANCH   8  11
ENDBRANCH   2   5
BRANCH   1  24
HETATM   24  C   UNL     1      41.445 -15.956   3.143  1.00  0.00     0.175 C 
HETATM   25  N   UNL     1      41.413 -16.335   4.457  1.00  0.00    -0.152 NA
HETATM   26  N   UNL     1      41.936 -17.547   4.541  1.00  0.00     0.011 NA
HETATM   27  N   UNL     1      42.416 -17.904   3.315  1.00  0.00    -0.231 N 
HETATM   28  C   UNL     1      41.964 -16.991   2.388  1.00  0.00     0.174 C 
BRANCH  27  29
HETATM   29  C   UNL     1      43.280 -19.030   3.206  1.00  0.00     0.058 A 
HETATM   30  C   UNL     1      43.062 -19.953   2.170  1.00  0.00     0.073 A 
HETATM   31  C   UNL     1      43.888 -21.067   2.050  1.00  0.00     0.118 A 
HETATM   32  C   UNL     1      44.919 -21.299   2.951  1.00  0.00     0.042 A 
HETATM   33  F   UNL     1      43.684 -21.930   1.046  1.00  0.00    -0.206 F 
HETATM   34  C   UNL     1      45.124 -20.405   3.997  1.00  0.00     0.005 A 
HETATM   35  C   UNL     1      44.305 -19.276   4.132  1.00  0.00     0.031 A 
ENDBRANCH  27  29
BRANCH  28  36
HETATM   36  C   UNL     1      41.992 -17.170   0.941  1.00  0.00     0.436 C 
HETATM   37  F   UNL     1      43.199 -17.599   0.495  1.00  0.00    -0.165 F 
HETATM   38  F   UNL     1      41.106 -18.105   0.519  1.00  0.00    -0.165 F 
HETATM   39  F   UNL     1      41.714 -16.018   0.286  1.00  0.00    -0.165 F 
ENDBRANCH  28  36
ENDBRANCH   1  24
TORSDOF 7
ENDMDL
MODEL 9
REMARK VINA RESULT:      -8.2      6.209      9.679
REMARK  7 active torsions:
REMARK  status: ('A' for Active; 'I' for Inactive)
REMARK    1  A    between atoms: C_6  and  N_7 
REMARK    2  A    between atoms: C_10  and  C_11 
REMARK       I    between atoms: C_11  and  N_12 
REMARK    3  A    between atoms: N_12  and  C_13 
REMARK    4  A    between atoms: C_16  and  C_17 
REMARK    5  A    between atoms: C_17  and  N_18 
REMARK    6  A    between atoms: C_21  and  C_22 
REMARK       I    between atoms: C_22  and  N_23 
REMARK    7  A    between atoms: C_31  and  C_32 
ROOT
HETATM    1  C   UNL     1      41.060 -14.973  -0.474  1.00  0.00     0.278 C 
HETATM    2  N   UNL     1      40.982 -16.313  -0.139  1.00  0.00    -0.322 N 
HETATM    3  O   UNL     1      41.759 -14.130   0.071  1.00  0.00    -0.265 OA
HETATM    4  H   UNL     1      40.380 -16.872  -0.737  1.00  0.00     0.169 HD
ENDROOT
BRANCH   2   5
HETATM    5  C   UNL     1      41.663 -16.978   0.899  1.00  0.00     0.035 A 
HETATM    6  C   UNL     1      41.056 -17.397   2.082  1.00  0.00     0.030 A 
HETATM    7  C   UNL     1      41.797 -18.044   3.076  1.00  0.00     0.011 A 
HETATM    8  C   UNL     1      43.164 -18.292   2.904  1.00  0.00    -0.032 A 
HETATM    9  C   UNL     1      43.775 -17.877   1.714  1.00  0.00     0.011 A 
HETATM   10  C   UNL     1      43.029 -17.229   0.722  1.00  0.00     0.030 A 
BRANCH   8  11
HETATM   11  C   UNL     1      43.948 -18.989   3.985  1.00  0.00     0.273 C 
BRANCH  11  12
HETATM   12  N   UNL     1      43.988 -18.224   5.287  1.00  0.00    -0.066 N 
HETATM   13  H   UNL     1      44.512 -17.347   5.085  1.00  0.00     0.280 HD
HETATM   14  C   UNL     1      42.623 -17.755   5.745  1.00  0.00     0.249 C 
HETATM   15  C   UNL     1      42.745 -16.857   6.978  1.00  0.00     0.103 C 
HETATM   16  C   UNL     1      43.532 -17.552   8.092  1.00  0.00     0.017 C 
HETATM   17  C   UNL     1      44.876 -18.094   7.598  1.00  0.00     0.029 C 
HETATM   18  C   UNL     1      44.734 -18.967   6.359  1.00  0.00     0.235 C 
BRANCH  15  19
HETATM   19  C   UNL     1      43.423 -15.559   6.581  1.00  0.00     0.221 C 
HETATM   20  N   UNL     1      43.873 -14.780   7.597  1.00  0.00    -0.370 N 
HETATM   21  H   UNL     1      43.681 -14.950   8.577  1.00  0.00     0.159 HD
HETATM   22  H   UNL     1      44.328 -13.902   7.365  1.00  0.00     0.159 HD
HETATM   23  O   UNL     1      43.630 -15.279   5.403  1.00  0.00    -0.273 OA
ENDBRANCH  15  19
ENDBRANCH  11  12
ENDBRANCH   8  11
ENDBRANCH   2   5
BRANCH   1  24
HETATM   24  C   UNL     1      40.221 -14.629  -1.617  1.00  0.00     0.175 C 
HETATM   25  N   UNL     1      40.483 -15.064  -2.887  1.00  0.00    -0.152 NA
HETATM   26  N   UNL     1      39.552 -14.568  -3.684  1.00  0.00     0.011 NA
HETATM   27  N   UNL     1      38.764 -13.718  -2.965  1.00  0.00    -0.231 N 
HETATM   28  C   UNL     1      39.062 -13.876  -1.629  1.00  0.00     0.174 C 
BRANCH  27  29
HETATM   29  C   UNL     1      37.879 -12.839  -3.650  1.00  0.00     0.058 A 
HETATM   30  C   UNL     1      36.672 -13.350  -4.155  1.00  0.00     0.073 A 
HETATM   31  C   UNL     1      35.796 -12.512  -4.837  1.00  0.00     0.118 A 
HETATM   32  C   UNL     1      36.101 -11.173  -5.050  1.00  0.00     0.042 A 
HETATM   33  F   UNL     1      34.639 -13.004  -5.297  1.00  0.00    -0.206 F 
HETATM   34  C   UNL     1      37.308 -10.665  -4.579  1.00  0.00     0.005 A 
HETATM   35  C   UNL     1      38.199 -11.494  -3.886  1.00  0.00     0.031 A 
ENDBRANCH  27  29
BRANCH  28  36
HETATM   36  C   UNL     1      38.252 -13.389  -0.518  1.00  0.00     0.436 C 
HETATM   37  F   UNL     1      37.186 -12.661  -0.934  1.00  0.00    -0.165 F 
HETATM   38  F   UNL     1      37.725 -14.399   0.217  1.00  0.00    -0.165 F 
HETATM   39  F   UNL     1      38.967 -12.603   0.320  1.00  0.00    -0.165 F 
ENDBRANCH  28  36
ENDBRANCH   1  24
TORSDOF 7
ENDMDL
MODEL 10
REMARK VINA RESULT:      -8.2      5.062      5.957
REMARK  7 active torsions:
REMARK  status: ('A' for Active; 'I' for Inactive)
REMARK    1  A    between atoms: C_6  and  N_7 
REMARK    2  A    between atoms: C_10  and  C_11 
REMARK       I    between atoms: C_11  and  N_12 
REMARK    3  A    between atoms: N_12  and  C_13 
REMARK    4  A    between atoms: C_16  and  C_17 
REMARK    5  A    between atoms: C_17  and  N_18 
REMARK    6  A    between atoms: C_21  and  C_22 
REMARK       I    between atoms: C_22  and  N_23 
REMARK    7  A    between atoms: C_31  and  C_32 
ROOT
HETATM    1  C   UNL     1      40.945 -12.878   3.816  1.00  0.00     0.278 C 
HETATM    2  N   UNL     1      40.045 -12.140   4.563  1.00  0.00    -0.322 N 
HETATM    3  O   UNL     1      42.115 -13.094   4.099  1.00  0.00    -0.265 OA
HETATM    4  H   UNL     1      39.099 -12.110   4.191  1.00  0.00     0.169 HD
ENDROOT
BRANCH   2   5
HETATM    5  C   UNL     1      40.285 -11.471   5.779  1.00  0.00     0.035 A 
HETATM    6  C   UNL     1      39.725 -11.851   6.998  1.00  0.00     0.030 A 
HETATM    7  C   UNL     1      40.000 -11.134   8.167  1.00  0.00     0.011 A 
HETATM    8  C   UNL     1      40.848 -10.020   8.141  1.00  0.00    -0.032 A 
HETATM    9  C   UNL     1      41.414  -9.638   6.919  1.00  0.00     0.011 A 
HETATM   10  C   UNL     1      41.136 -10.360   5.751  1.00  0.00     0.030 A 
BRANCH   8  11
HETATM   11  C   UNL     1      41.132  -9.258   9.408  1.00  0.00     0.273 C 
BRANCH  11  12
HETATM   12  N   UNL     1      41.674 -10.123  10.522  1.00  0.00    -0.066 N 
HETATM   13  H   UNL     1      41.808 -11.068  10.108  1.00  0.00     0.280 HD
HETATM   14  C   UNL     1      43.056  -9.708  10.979  1.00  0.00     0.249 C 
HETATM   15  C   UNL     1      43.614 -10.709  11.992  1.00  0.00     0.103 C 
HETATM   16  C   UNL     1      42.645 -10.912  13.160  1.00  0.00     0.017 C 
HETATM   17  C   UNL     1      41.230 -11.252  12.684  1.00  0.00     0.029 C 
HETATM   18  C   UNL     1      40.703 -10.255  11.661  1.00  0.00     0.235 C 
BRANCH  15  19
HETATM   19  C   UNL     1      43.881 -12.028  11.291  1.00  0.00     0.221 C 
HETATM   20  N   UNL     1      43.984 -13.123  12.086  1.00  0.00    -0.370 N 
HETATM   21  H   UNL     1      44.014 -13.094  13.098  1.00  0.00     0.159 HD
HETATM   22  H   UNL     1      44.167 -14.020  11.648  1.00  0.00     0.159 HD
HETATM   23  O   UNL     1      43.911 -12.107  10.065  1.00  0.00    -0.273 OA
ENDBRANCH  15  19
ENDBRANCH  11  12
ENDBRANCH   8  11
ENDBRANCH   2   5
BRANCH   1  24
HETATM   24  C   UNL     1      40.347 -13.442   2.611  1.00  0.00     0.175 C 
HETATM   25  N   UNL     1      39.417 -14.444   2.643  1.00  0.00    -0.152 NA
HETATM   26  N   UNL     1      39.093 -14.735   1.395  1.00  0.00     0.011 NA
HETATM   27  N   UNL     1      39.892 -14.018   0.554  1.00  0.00    -0.231 N 
HETATM   28  C   UNL     1      40.567 -13.074   1.296  1.00  0.00     0.174 C 
BRANCH  27  29
HETATM   29  C   UNL     1      39.943 -14.366  -0.825  1.00  0.00     0.058 A 
HETATM   30  C   UNL     1      38.897 -13.953  -1.667  1.00  0.00     0.073 A 
HETATM   31  C   UNL     1      38.920 -14.290  -3.017  1.00  0.00     0.118 A 
HETATM   32  C   UNL     1      39.953 -15.048  -3.551  1.00  0.00     0.042 A 
HETATM   33  F   UNL     1      37.929 -13.874  -3.815  1.00  0.00    -0.206 F 
HETATM   34  C   UNL     1      40.979 -15.486  -2.719  1.00  0.00     0.005 A 
HETATM   35  C   UNL     1      40.974 -15.153  -1.358  1.00  0.00     0.031 A 
ENDBRANCH  27  29
BRANCH  28  36
HETATM   36  C   UNL     1      41.280 -11.922   0.755  1.00  0.00     0.436 C 
HETATM   37  F   UNL     1      41.425 -10.928   1.666  1.00  0.00    -0.165 F 
HETATM   38  F   UNL     1      42.540 -12.232   0.365  1.00  0.00    -0.165 F 
HETATM   39  F   UNL     1      40.640 -11.391  -0.314  1.00  0.00    -0.165 F 
ENDBRANCH  28  36
ENDBRANCH   1  24
TORSDOF 7
ENDMDL
