MODEL 1
REMARK VINA RESULT:      -9.0      0.000      0.000
REMARK  3 active torsions:
REMARK  status: ('A' for Active; 'I' for Inactive)
REMARK    1  A    between atoms: C_9  and  C_10 
REMARK    2  A    between atoms: C_10  and  C_11 
REMARK       I    between atoms: C_11  and  N_12 
REMARK    3  A    between atoms: N_12  and  C_13 
ROOT
HETATM    1  C   UNL     1      43.607 -17.729   1.097  1.00  0.00     0.165 C 
ENDROOT
BRANCH   1   2
HETATM    2  C   UNL     1      43.886 -18.235   2.503  1.00  0.00     0.074 A 
HETATM    3  C   UNL     1      44.113 -19.691   2.729  1.00  0.00     0.006 A 
HETATM    4  C   UNL     1      44.047 -20.658   1.717  1.00  0.00     0.014 A 
HETATM    5  C   UNL     1      44.388 -20.099   4.034  1.00  0.00     0.046 A 
HETATM    6  C   UNL     1      44.283 -22.005   2.012  1.00  0.00     0.001 A 
HETATM    7  C   UNL     1      44.578 -22.398   3.316  1.00  0.00     0.001 A 
HETATM    8  C   UNL     1      44.626 -21.447   4.332  1.00  0.00     0.018 A 
HETATM    9  C   UNL     1      44.397 -19.099   5.112  1.00  0.00     0.272 A 
HETATM   10  O   UNL     1      44.639 -19.406   6.273  1.00  0.00    -0.266 OA
HETATM   11  N   UNL     1      44.104 -17.809   4.742  1.00  0.00    -0.243 N 
HETATM   12  N   UNL     1      43.856 -17.374   3.480  1.00  0.00    -0.175 NA
HETATM   13  H   UNL     1      44.094 -17.117   5.486  1.00  0.00     0.192 HD
ENDBRANCH   1   2
BRANCH   1  14
HETATM   14  C   UNL     1      42.217 -17.215   0.764  1.00  0.00     0.227 C 
HETATM   15  N   UNL     1      42.175 -16.045   0.038  1.00  0.00    -0.327 N 
HETATM   16  H   UNL     1      43.070 -15.738  -0.344  1.00  0.00     0.169 HD
HETATM   17  O   UNL     1      41.238 -17.810   1.212  1.00  0.00    -0.273 OA
BRANCH  15  18
HETATM   18  C   UNL     1      41.044 -15.287  -0.326  1.00  0.00     0.036 A 
HETATM   19  C   UNL     1      40.163 -14.705   0.591  1.00  0.00     0.056 A 
HETATM   20  C   UNL     1      39.073 -13.956   0.139  1.00  0.00     0.074 A 
HETATM   21 CL   UNL     1      38.003 -13.239   1.284  1.00  0.00    -0.081 Cl
HETATM   22  C   UNL     1      38.860 -13.787  -1.226  1.00  0.00     0.138 A 
HETATM   23  F   UNL     1      37.820 -13.070  -1.677  1.00  0.00    -0.204 F 
HETATM   24  C   UNL     1      39.727 -14.359  -2.149  1.00  0.00     0.046 A 
HETATM   25  C   UNL     1      40.819 -15.105  -1.699  1.00  0.00     0.032 A 
ENDBRANCH  15  18
ENDBRANCH   1  14
TORSDOF 3
ENDMDL
MODEL 2
REMARK VINA RESULT:      -8.5      2.042      2.191
REMARK  3 active torsions:
REMARK  status: ('A' for Active; 'I' for Inactive)
REMARK    1  A    between atoms: C_9  and  C_10 
REMARK    2  A    between atoms: C_10  and  C_11 
REMARK       I    between atoms: C_11  and  N_12 
REMARK    3  A    between atoms: N_12  and  C_13 
ROOT
HETATM    1  C   UNL     1      41.505 -17.616   1.975  1.00  0.00     0.165 C 
ENDROOT
BRANCH   1   2
HETATM    2  C   UNL     1      42.451 -18.032   3.090  1.00  0.00     0.074 A 
HETATM    3  C   UNL     1      43.214 -19.308   2.969  1.00  0.00     0.006 A 
HETATM    4  C   UNL     1      43.088 -20.194   1.890  1.00  0.00     0.014 A 
HETATM    5  C   UNL     1      44.085 -19.631   4.008  1.00  0.00     0.046 A 
HETATM    6  C   UNL     1      43.849 -21.366   1.849  1.00  0.00     0.001 A 
HETATM    7  C   UNL     1      44.733 -21.669   2.883  1.00  0.00     0.001 A 
HETATM    8  C   UNL     1      44.850 -20.804   3.968  1.00  0.00     0.018 A 
HETATM    9  C   UNL     1      44.177 -18.737   5.172  1.00  0.00     0.272 A 
HETATM   10  O   UNL     1      44.932 -18.974   6.108  1.00  0.00    -0.266 OA
HETATM   11  N   UNL     1      43.357 -17.636   5.155  1.00  0.00    -0.243 N 
HETATM   12  N   UNL     1      42.516 -17.279   4.150  1.00  0.00    -0.175 NA
HETATM   13  H   UNL     1      43.405 -17.024   5.964  1.00  0.00     0.192 HD
ENDBRANCH   1   2
BRANCH   1  14
HETATM   14  C   UNL     1      42.018 -16.689   0.886  1.00  0.00     0.227 C 
HETATM   15  N   UNL     1      41.057 -15.943   0.241  1.00  0.00    -0.327 N 
HETATM   16  H   UNL     1      40.131 -15.963   0.669  1.00  0.00     0.169 HD
HETATM   17  O   UNL     1      43.214 -16.711   0.599  1.00  0.00    -0.273 OA
BRANCH  15  18
HETATM   18  C   UNL     1      41.219 -15.084  -0.865  1.00  0.00     0.036 A 
HETATM   19  C   UNL     1      41.740 -13.789  -0.781  1.00  0.00     0.056 A 
HETATM   20  C   UNL     1      41.879 -13.012  -1.935  1.00  0.00     0.074 A 
HETATM   21 CL   UNL     1      42.529 -11.421  -1.814  1.00  0.00    -0.081 Cl
HETATM   22  C   UNL     1      41.498 -13.525  -3.172  1.00  0.00     0.138 A 
HETATM   23  F   UNL     1      41.625 -12.794  -4.289  1.00  0.00    -0.204 F 
HETATM   24  C   UNL     1      40.980 -14.810  -3.271  1.00  0.00     0.046 A 
HETATM   25  C   UNL     1      40.843 -15.589  -2.119  1.00  0.00     0.032 A 
ENDBRANCH  15  18
ENDBRANCH   1  14
TORSDOF 3
ENDMDL
MODEL 3
REMARK VINA RESULT:      -8.3      3.950      8.348
REMARK  3 active torsions:
REMARK  status: ('A' for Active; 'I' for Inactive)
REMARK    1  A    between atoms: C_9  and  C_10 
REMARK    2  A    between atoms: C_10  and  C_11 
REMARK       I    between atoms: C_11  and  N_12 
REMARK    3  A    between atoms: N_12  and  C_13 
ROOT
HETATM    1  C   UNL     1      41.400 -15.326   2.913  1.00  0.00     0.165 C 
ENDROOT
BRANCH   1   2
HETATM    2  C   UNL     1      41.190 -15.224   1.411  1.00  0.00     0.074 A 
HETATM    3  C   UNL     1      39.977 -14.536   0.884  1.00  0.00     0.006 A 
HETATM    4  C   UNL     1      38.970 -13.998   1.695  1.00  0.00     0.014 A 
HETATM    5  C   UNL     1      39.845 -14.450  -0.502  1.00  0.00     0.046 A 
HETATM    6  C   UNL     1      37.867 -13.358   1.119  1.00  0.00     0.001 A 
HETATM    7  C   UNL     1      37.756 -13.259  -0.267  1.00  0.00     0.001 A 
HETATM    8  C   UNL     1      38.743 -13.809  -1.081  1.00  0.00     0.018 A 
HETATM    9  C   UNL     1      40.867 -15.067  -1.361  1.00  0.00     0.272 A 
HETATM   10  O   UNL     1      40.799 -15.013  -2.583  1.00  0.00    -0.266 OA
HETATM   11  N   UNL     1      41.887 -15.719  -0.713  1.00  0.00    -0.243 N 
HETATM   12  N   UNL     1      42.060 -15.801   0.632  1.00  0.00    -0.175 NA
HETATM   13  H   UNL     1      42.587 -16.160  -1.301  1.00  0.00     0.192 HD
ENDBRANCH   1   2
BRANCH   1  14
HETATM   14  C   UNL     1      41.792 -16.667   3.510  1.00  0.00     0.227 C 
HETATM   15  N   UNL     1      43.059 -17.108   3.197  1.00  0.00    -0.327 N 
HETATM   16  H   UNL     1      43.659 -16.419   2.742  1.00  0.00     0.169 HD
HETATM   17  O   UNL     1      40.958 -17.299   4.155  1.00  0.00    -0.273 OA
BRANCH  15  18
HETATM   18  C   UNL     1      43.654 -18.345   3.519  1.00  0.00     0.036 A 
HETATM   19  C   UNL     1      43.771 -19.414   2.625  1.00  0.00     0.056 A 
HETATM   20  C   UNL     1      44.390 -20.601   3.027  1.00  0.00     0.074 A 
HETATM   21 CL   UNL     1      44.533 -21.904   1.909  1.00  0.00    -0.081 Cl
HETATM   22  C   UNL     1      44.892 -20.724   4.320  1.00  0.00     0.138 A 
HETATM   23  F   UNL     1      45.490 -21.854   4.722  1.00  0.00    -0.204 F 
HETATM   24  C   UNL     1      44.783 -19.670   5.219  1.00  0.00     0.046 A 
HETATM   25  C   UNL     1      44.167 -18.481   4.818  1.00  0.00     0.032 A 
ENDBRANCH  15  18
ENDBRANCH   1  14
TORSDOF 3
ENDMDL
MODEL 4
REMARK VINA RESULT:      -8.3      4.101      8.348
REMARK  3 active torsions:
REMARK  status: ('A' for Active; 'I' for Inactive)
REMARK    1  A    between atoms: C_9  and  C_10 
REMARK    2  A    between atoms: C_10  and  C_11 
REMARK       I    between atoms: C_11  and  N_12 
REMARK    3  A    between atoms: N_12  and  C_13 
ROOT
HETATM    1  C   UNL     1      41.472 -14.892   1.857  1.00  0.00     0.165 C 
ENDROOT
BRANCH   1   2
HETATM    2  C   UNL     1      41.454 -14.876   0.337  1.00  0.00     0.074 A 
HETATM    3  C   UNL     1      41.787 -13.617  -0.389  1.00  0.00     0.006 A 
HETATM    4  C   UNL     1      42.083 -12.404   0.247  1.00  0.00     0.014 A 
HETATM    5  C   UNL     1      41.780 -13.663  -1.783  1.00  0.00     0.046 A 
HETATM    6  C   UNL     1      42.395 -11.269  -0.509  1.00  0.00     0.001 A 
HETATM    7  C   UNL     1      42.405 -11.333  -1.902  1.00  0.00     0.001 A 
HETATM    8  C   UNL     1      42.093 -12.529  -2.542  1.00  0.00     0.018 A 
HETATM    9  C   UNL     1      41.409 -14.916  -2.457  1.00  0.00     0.272 A 
HETATM   10  O   UNL     1      41.394 -15.009  -3.679  1.00  0.00    -0.266 OA
HETATM   11  N   UNL     1      41.068 -15.965  -1.640  1.00  0.00    -0.243 N 
HETATM   12  N   UNL     1      41.087 -15.962  -0.282  1.00  0.00    -0.175 NA
HETATM   13  H   UNL     1      40.796 -16.828  -2.101  1.00  0.00     0.192 HD
ENDBRANCH   1   2
BRANCH   1  14
HETATM   14  C   UNL     1      41.746 -16.203   2.574  1.00  0.00     0.227 C 
HETATM   15  N   UNL     1      42.982 -16.762   2.336  1.00  0.00    -0.327 N 
HETATM   16  H   UNL     1      43.643 -16.161   1.842  1.00  0.00     0.169 HD
HETATM   17  O   UNL     1      40.851 -16.714   3.245  1.00  0.00    -0.273 OA
BRANCH  15  18
HETATM   18  C   UNL     1      43.473 -18.008   2.775  1.00  0.00     0.036 A 
HETATM   19  C   UNL     1      43.507 -19.160   1.984  1.00  0.00     0.056 A 
HETATM   20  C   UNL     1      44.026 -20.352   2.500  1.00  0.00     0.074 A 
HETATM   21 CL   UNL     1      44.067 -21.760   1.507  1.00  0.00    -0.081 Cl
HETATM   22  C   UNL     1      44.509 -20.395   3.805  1.00  0.00     0.138 A 
HETATM   23  F   UNL     1      45.011 -21.529   4.316  1.00  0.00    -0.204 F 
HETATM   24  C   UNL     1      44.482 -19.258   4.603  1.00  0.00     0.046 A 
HETATM   25  C   UNL     1      43.967 -18.066   4.088  1.00  0.00     0.032 A 
ENDBRANCH  15  18
ENDBRANCH   1  14
TORSDOF 3
ENDMDL
MODEL 5
REMARK VINA RESULT:      -8.3      1.960      2.246
REMARK  3 active torsions:
REMARK  status: ('A' for Active; 'I' for Inactive)
REMARK    1  A    between atoms: C_9  and  C_10 
REMARK    2  A    between atoms: C_10  and  C_11 
REMARK       I    between atoms: C_11  and  N_12 
REMARK    3  A    between atoms: N_12  and  C_13 
ROOT
HETATM    1  C   UNL     1      41.948 -17.696   1.379  1.00  0.00     0.165 C 
ENDROOT
BRANCH   1   2
HETATM    2  C   UNL     1      42.806 -18.039   2.585  1.00  0.00     0.074 A 
HETATM    3  C   UNL     1      43.412 -19.397   2.694  1.00  0.00     0.006 A 
HETATM    4  C   UNL     1      43.209 -20.420   1.758  1.00  0.00     0.014 A 
HETATM    5  C   UNL     1      44.210 -19.652   3.809  1.00  0.00     0.046 A 
HETATM    6  C   UNL     1      43.825 -21.664   1.930  1.00  0.00     0.001 A 
HETATM    7  C   UNL     1      44.638 -21.901   3.038  1.00  0.00     0.001 A 
HETATM    8  C   UNL     1      44.829 -20.896   3.983  1.00  0.00     0.018 A 
HETATM    9  C   UNL     1      44.378 -18.603   4.827  1.00  0.00     0.272 A 
HETATM   10  O   UNL     1      45.073 -18.776   5.821  1.00  0.00    -0.266 OA
HETATM   11  N   UNL     1      43.698 -17.432   4.605  1.00  0.00    -0.243 N 
HETATM   12  N   UNL     1      42.933 -17.141   3.521  1.00  0.00    -0.175 NA
HETATM   13  H   UNL     1      43.797 -16.710   5.313  1.00  0.00     0.192 HD
ENDBRANCH   1   2
BRANCH   1  14
HETATM   14  C   UNL     1      41.460 -16.268   1.208  1.00  0.00     0.227 C 
HETATM   15  N   UNL     1      40.408 -15.899   2.017  1.00  0.00    -0.327 N 
HETATM   16  H   UNL     1      40.178 -16.561   2.759  1.00  0.00     0.169 HD
HETATM   17  O   UNL     1      41.965 -15.566   0.333  1.00  0.00    -0.273 OA
BRANCH  15  18
HETATM   18  C   UNL     1      39.688 -14.687   2.010  1.00  0.00     0.036 A 
HETATM   19  C   UNL     1      40.027 -13.570   2.780  1.00  0.00     0.056 A 
HETATM   20  C   UNL     1      39.262 -12.403   2.698  1.00  0.00     0.074 A 
HETATM   21 CL   UNL     1      39.700 -11.033   3.648  1.00  0.00    -0.081 Cl
HETATM   22  C   UNL     1      38.159 -12.348   1.851  1.00  0.00     0.138 A 
HETATM   23  F   UNL     1      37.415 -11.237   1.759  1.00  0.00    -0.204 F 
HETATM   24  C   UNL     1      37.810 -13.451   1.080  1.00  0.00     0.046 A 
HETATM   25  C   UNL     1      38.575 -14.617   1.158  1.00  0.00     0.032 A 
ENDBRANCH  15  18
ENDBRANCH   1  14
TORSDOF 3
ENDMDL
MODEL 6
REMARK VINA RESULT:      -8.2      4.538      8.384
REMARK  3 active torsions:
REMARK  status: ('A' for Active; 'I' for Inactive)
REMARK    1  A    between atoms: C_9  and  C_10 
REMARK    2  A    between atoms: C_10  and  C_11 
REMARK       I    between atoms: C_11  and  N_12 
REMARK    3  A    between atoms: N_12  and  C_13 
ROOT
HETATM    1  C   UNL     1      41.763 -15.836   4.282  1.00  0.00     0.165 C 
ENDROOT
BRANCH   1   2
HETATM    2  C   UNL     1      40.831 -15.338   3.190  1.00  0.00     0.074 A 
HETATM    3  C   UNL     1      40.121 -14.039   3.365  1.00  0.00     0.006 A 
HETATM    4  C   UNL     1      40.224 -13.241   4.513  1.00  0.00     0.014 A 
HETATM    5  C   UNL     1      39.296 -13.617   2.323  1.00  0.00     0.046 A 
HETATM    6  C   UNL     1      39.532 -12.028   4.593  1.00  0.00     0.001 A 
HETATM    7  C   UNL     1      38.727 -11.606   3.536  1.00  0.00     0.001 A 
HETATM    8  C   UNL     1      38.603 -12.402   2.400  1.00  0.00     0.018 A 
HETATM    9  C   UNL     1      39.134 -14.478   1.142  1.00  0.00     0.272 A 
HETATM   10  O   UNL     1      38.426 -14.149   0.198  1.00  0.00    -0.266 OA
HETATM   11  N   UNL     1      39.808 -15.673   1.169  1.00  0.00    -0.243 N 
HETATM   12  N   UNL     1      40.638 -16.104   2.154  1.00  0.00    -0.175 NA
HETATM   13  H   UNL     1      39.687 -16.279   0.362  1.00  0.00     0.192 HD
ENDBRANCH   1   2
BRANCH   1  14
HETATM   14  C   UNL     1      42.086 -17.319   4.351  1.00  0.00     0.227 C 
HETATM   15  N   UNL     1      43.131 -17.737   3.557  1.00  0.00    -0.327 N 
HETATM   16  H   UNL     1      43.684 -16.989   3.138  1.00  0.00     0.169 HD
HETATM   17  O   UNL     1      41.371 -18.053   5.032  1.00  0.00    -0.273 OA
BRANCH  15  18
HETATM   18  C   UNL     1      43.587 -19.053   3.340  1.00  0.00     0.036 A 
HETATM   19  C   UNL     1      44.204 -19.839   4.318  1.00  0.00     0.056 A 
HETATM   20  C   UNL     1      44.612 -21.142   4.016  1.00  0.00     0.074 A 
HETATM   21 CL   UNL     1      45.363 -22.100   5.236  1.00  0.00    -0.081 Cl
HETATM   22  C   UNL     1      44.406 -21.661   2.741  1.00  0.00     0.138 A 
HETATM   23  F   UNL     1      44.790 -22.908   2.434  1.00  0.00    -0.204 F 
HETATM   24  C   UNL     1      43.794 -20.890   1.759  1.00  0.00     0.046 A 
HETATM   25  C   UNL     1      43.383 -19.590   2.059  1.00  0.00     0.032 A 
ENDBRANCH  15  18
ENDBRANCH   1  14
TORSDOF 3
ENDMDL
MODEL 7
REMARK VINA RESULT:      -8.1      2.509      3.303
REMARK  3 active torsions:
REMARK  status: ('A' for Active; 'I' for Inactive)
REMARK    1  A    between atoms: C_9  and  C_10 
REMARK    2  A    between atoms: C_10  and  C_11 
REMARK       I    between atoms: C_11  and  N_12 
REMARK    3  A    between atoms: N_12  and  C_13 
ROOT
HETATM    1  C   UNL     1      41.066 -16.704   3.230  1.00  0.00     0.165 C 
ENDROOT
BRANCH   1   2
HETATM    2  C   UNL     1      42.172 -17.745   3.170  1.00  0.00     0.074 A 
HETATM    3  C   UNL     1      43.138 -17.857   4.301  1.00  0.00     0.006 A 
HETATM    4  C   UNL     1      43.123 -17.022   5.426  1.00  0.00     0.014 A 
HETATM    5  C   UNL     1      44.118 -18.845   4.207  1.00  0.00     0.046 A 
HETATM    6  C   UNL     1      44.061 -17.201   6.449  1.00  0.00     0.001 A 
HETATM    7  C   UNL     1      45.023 -18.205   6.354  1.00  0.00     0.001 A 
HETATM    8  C   UNL     1      45.057 -19.026   5.230  1.00  0.00     0.018 A 
HETATM    9  C   UNL     1      44.178 -19.684   3.001  1.00  0.00     0.272 A 
HETATM   10  O   UNL     1      45.016 -20.568   2.873  1.00  0.00    -0.266 OA
HETATM   11  N   UNL     1      43.253 -19.407   2.025  1.00  0.00    -0.243 N 
HETATM   12  N   UNL     1      42.272 -18.471   2.093  1.00  0.00    -0.175 NA
HETATM   13  H   UNL     1      43.301 -19.973   1.183  1.00  0.00     0.192 HD
ENDBRANCH   1   2
BRANCH   1  14
HETATM   14  C   UNL     1      40.613 -16.041   1.940  1.00  0.00     0.227 C 
HETATM   15  N   UNL     1      41.596 -15.849   0.994  1.00  0.00    -0.327 N 
HETATM   16  H   UNL     1      42.481 -16.319   1.186  1.00  0.00     0.169 HD
HETATM   17  O   UNL     1      39.449 -15.656   1.845  1.00  0.00    -0.273 OA
BRANCH  15  18
HETATM   18  C   UNL     1      41.496 -15.176  -0.240  1.00  0.00     0.036 A 
HETATM   19  C   UNL     1      41.795 -13.822  -0.422  1.00  0.00     0.056 A 
HETATM   20  C   UNL     1      41.681 -13.241  -1.688  1.00  0.00     0.074 A 
HETATM   21 CL   UNL     1      42.061 -11.574  -1.894  1.00  0.00    -0.081 Cl
HETATM   22  C   UNL     1      41.267 -14.009  -2.774  1.00  0.00     0.138 A 
HETATM   23  F   UNL     1      41.153 -13.468  -3.995  1.00  0.00    -0.204 F 
HETATM   24  C   UNL     1      40.967 -15.355  -2.608  1.00  0.00     0.046 A 
HETATM   25  C   UNL     1      41.083 -15.938  -1.345  1.00  0.00     0.032 A 
ENDBRANCH  15  18
ENDBRANCH   1  14
TORSDOF 3
ENDMDL
MODEL 8
REMARK VINA RESULT:      -7.8      2.249      3.153
REMARK  3 active torsions:
REMARK  status: ('A' for Active; 'I' for Inactive)
REMARK    1  A    between atoms: C_9  and  C_10 
REMARK    2  A    between atoms: C_10  and  C_11 
REMARK       I    between atoms: C_11  and  N_12 
REMARK    3  A    between atoms: N_12  and  C_13 
ROOT
HETATM    1  C   UNL     1      43.252 -15.311   3.227  1.00  0.00     0.165 C 
ENDROOT
BRANCH   1   2
HETATM    2  C   UNL     1      43.489 -16.783   2.929  1.00  0.00     0.074 A 
HETATM    3  C   UNL     1      43.773 -17.724   4.050  1.00  0.00     0.006 A 
HETATM    4  C   UNL     1      43.880 -17.331   5.391  1.00  0.00     0.014 A 
HETATM    5  C   UNL     1      43.958 -19.067   3.723  1.00  0.00     0.046 A 
HETATM    6  C   UNL     1      44.139 -18.282   6.385  1.00  0.00     0.001 A 
HETATM    7  C   UNL     1      44.302 -19.625   6.049  1.00  0.00     0.001 A 
HETATM    8  C   UNL     1      44.217 -20.020   4.717  1.00  0.00     0.018 A 
HETATM    9  C   UNL     1      43.909 -19.476   2.312  1.00  0.00     0.272 A 
HETATM   10  O   UNL     1      44.060 -20.644   1.975  1.00  0.00    -0.266 OA
HETATM   11  N   UNL     1      43.702 -18.473   1.399  1.00  0.00    -0.243 N 
HETATM   12  N   UNL     1      43.493 -17.161   1.682  1.00  0.00    -0.175 NA
HETATM   13  H   UNL     1      43.682 -18.748   0.421  1.00  0.00     0.192 HD
ENDBRANCH   1   2
BRANCH   1  14
HETATM   14  C   UNL     1      42.382 -14.502   2.282  1.00  0.00     0.227 C 
HETATM   15  N   UNL     1      41.281 -15.159   1.779  1.00  0.00    -0.327 N 
HETATM   16  H   UNL     1      41.071 -16.055   2.219  1.00  0.00     0.169 HD
HETATM   17  O   UNL     1      42.738 -13.367   1.968  1.00  0.00    -0.273 OA
BRANCH  15  18
HETATM   18  C   UNL     1      40.361 -14.702   0.813  1.00  0.00     0.036 A 
HETATM   19  C   UNL     1      40.649 -14.584  -0.550  1.00  0.00     0.056 A 
HETATM   20  C   UNL     1      39.668 -14.135  -1.439  1.00  0.00     0.074 A 
HETATM   21 CL   UNL     1      40.039 -14.003  -3.116  1.00  0.00    -0.081 Cl
HETATM   22  C   UNL     1      38.400 -13.803  -0.970  1.00  0.00     0.138 A 
HETATM   23  F   UNL     1      37.447 -13.371  -1.808  1.00  0.00    -0.204 F 
HETATM   24  C   UNL     1      38.099 -13.916   0.382  1.00  0.00     0.046 A 
HETATM   25  C   UNL     1      39.077 -14.367   1.272  1.00  0.00     0.032 A 
ENDBRANCH  15  18
ENDBRANCH   1  14
TORSDOF 3
ENDMDL
MODEL 9
REMARK VINA RESULT:      -7.8      4.342      8.513
REMARK  3 active torsions:
REMARK  status: ('A' for Active; 'I' for Inactive)
REMARK    1  A    between atoms: C_9  and  C_10 
REMARK    2  A    between atoms: C_10  and  C_11 
REMARK       I    between atoms: C_11  and  N_12 
REMARK    3  A    between atoms: N_12  and  C_13 
ROOT
HETATM    1  C   UNL     1      42.451 -15.049   3.305  1.00  0.00     0.165 C 
ENDROOT
BRANCH   1   2
HETATM    2  C   UNL     1      41.076 -14.857   2.686  1.00  0.00     0.074 A 
HETATM    3  C   UNL     1      40.585 -13.478   2.400  1.00  0.00     0.006 A 
HETATM    4  C   UNL     1      41.303 -12.314   2.706  1.00  0.00     0.014 A 
HETATM    5  C   UNL     1      39.326 -13.359   1.810  1.00  0.00     0.046 A 
HETATM    6  C   UNL     1      40.773 -11.057   2.394  1.00  0.00     0.001 A 
HETATM    7  C   UNL     1      39.523 -10.951   1.785  1.00  0.00     0.001 A 
HETATM    8  C   UNL     1      38.795 -12.102   1.496  1.00  0.00     0.018 A 
HETATM    9  C   UNL     1      38.541 -14.573   1.543  1.00  0.00     0.272 A 
HETATM   10  O   UNL     1      37.434 -14.522   1.021  1.00  0.00    -0.266 OA
HETATM   11  N   UNL     1      39.114 -15.760   1.928  1.00  0.00    -0.243 N 
HETATM   12  N   UNL     1      40.344 -15.914   2.481  1.00  0.00    -0.175 NA
HETATM   13  H   UNL     1      38.569 -16.600   1.760  1.00  0.00     0.192 HD
ENDBRANCH   1   2
BRANCH   1  14
HETATM   14  C   UNL     1      43.206 -16.337   3.028  1.00  0.00     0.227 C 
HETATM   15  N   UNL     1      42.871 -17.406   3.829  1.00  0.00    -0.327 N 
HETATM   16  H   UNL     1      42.040 -17.272   4.406  1.00  0.00     0.169 HD
HETATM   17  O   UNL     1      44.100 -16.334   2.183  1.00  0.00    -0.273 OA
BRANCH  15  18
HETATM   18  C   UNL     1      43.466 -18.683   3.872  1.00  0.00     0.036 A 
HETATM   19  C   UNL     1      43.535 -19.552   2.779  1.00  0.00     0.056 A 
HETATM   20  C   UNL     1      44.159 -20.796   2.909  1.00  0.00     0.074 A 
HETATM   21 CL   UNL     1      44.241 -21.851   1.550  1.00  0.00    -0.081 Cl
HETATM   22  C   UNL     1      44.714 -21.174   4.129  1.00  0.00     0.138 A 
HETATM   23  F   UNL     1      45.317 -22.364   4.271  1.00  0.00    -0.204 F 
HETATM   24  C   UNL     1      44.654 -20.321   5.223  1.00  0.00     0.046 A 
HETATM   25  C   UNL     1      44.034 -19.076   5.094  1.00  0.00     0.032 A 
ENDBRANCH  15  18
ENDBRANCH   1  14
TORSDOF 3
ENDMDL
MODEL 10
REMARK VINA RESULT:      -7.8      4.524      8.497
REMARK  3 active torsions:
REMARK  status: ('A' for Active; 'I' for Inactive)
REMARK    1  A    between atoms: C_9  and  C_10 
REMARK    2  A    between atoms: C_10  and  C_11 
REMARK       I    between atoms: C_11  and  N_12 
REMARK    3  A    between atoms: N_12  and  C_13 
ROOT
HETATM    1  C   UNL     1      41.526 -13.811   1.908  1.00  0.00     0.165 C 
ENDROOT
BRANCH   1   2
HETATM    2  C   UNL     1      41.416 -14.252   0.458  1.00  0.00     0.074 A 
HETATM    3  C   UNL     1      41.839 -13.321  -0.628  1.00  0.00     0.006 A 
HETATM    4  C   UNL     1      42.304 -12.018  -0.402  1.00  0.00     0.014 A 
HETATM    5  C   UNL     1      41.740 -13.784  -1.939  1.00  0.00     0.046 A 
HETATM    6  C   UNL     1      42.691 -11.212  -1.478  1.00  0.00     0.001 A 
HETATM    7  C   UNL     1      42.608 -11.693  -2.784  1.00  0.00     0.001 A 
HETATM    8  C   UNL     1      42.128 -12.979  -3.018  1.00  0.00     0.018 A 
HETATM    9  C   UNL     1      41.195 -15.127  -2.188  1.00  0.00     0.272 A 
HETATM   10  O   UNL     1      41.094 -15.581  -3.321  1.00  0.00    -0.266 OA
HETATM   11  N   UNL     1      40.792 -15.830  -1.079  1.00  0.00    -0.243 N 
HETATM   12  N   UNL     1      40.895 -15.420   0.211  1.00  0.00    -0.175 NA
HETATM   13  H   UNL     1      40.400 -16.751  -1.247  1.00  0.00     0.192 HD
ENDBRANCH   1   2
BRANCH   1  14
HETATM   14  C   UNL     1      42.614 -14.416   2.779  1.00  0.00     0.227 C 
HETATM   15  N   UNL     1      42.313 -15.636   3.342  1.00  0.00    -0.327 N 
HETATM   16  H   UNL     1      41.468 -16.083   2.985  1.00  0.00     0.169 HD
HETATM   17  O   UNL     1      43.639 -13.769   2.987  1.00  0.00    -0.273 OA
BRANCH  15  18
HETATM   18  C   UNL     1      43.077 -16.381   4.264  1.00  0.00     0.036 A 
HETATM   19  C   UNL     1      43.585 -17.658   4.009  1.00  0.00     0.056 A 
HETATM   20  C   UNL     1      44.345 -18.318   4.979  1.00  0.00     0.074 A 
HETATM   21 CL   UNL     1      44.969 -19.888   4.645  1.00  0.00    -0.081 Cl
HETATM   22  C   UNL     1      44.599 -17.705   6.203  1.00  0.00     0.138 A 
HETATM   23  F   UNL     1      45.327 -18.322   7.145  1.00  0.00    -0.204 F 
HETATM   24  C   UNL     1      44.101 -16.435   6.470  1.00  0.00     0.046 A 
HETATM   25  C   UNL     1      43.343 -15.773   5.501  1.00  0.00     0.032 A 
ENDBRANCH  15  18
ENDBRANCH   1  14
TORSDOF 3
ENDMDL
