MODEL 1
REMARK VINA RESULT:      -8.8      0.000      0.000
REMARK  5 active torsions:
REMARK  status: ('A' for Active; 'I' for Inactive)
REMARK    1  A    between atoms: C_7  and  C_8 
REMARK    2  A    between atoms: C_8  and  C_9 
REMARK    3  A    between atoms: C_9  and  N_10 
REMARK       I    between atoms: N_10  and  C_11 
REMARK       I    between atoms: C_11  and  N_12 
REMARK    4  A    between atoms: N_12  and  C_13 
REMARK    5  A    between atoms: C_14  and  O_15 
ROOT
HETATM    1  C   UNL     1      41.878 -17.374   2.881  1.00  0.00     0.129 C 
ENDROOT
BRANCH   1   2
HETATM    2  C   UNL     1      43.353 -17.211   3.265  1.00  0.00     0.061 C 
BRANCH   2   3
HETATM    3  C   UNL     1      43.900 -18.377   4.040  1.00  0.00    -0.022 A 
HETATM    4  C   UNL     1      44.313 -18.366   5.365  1.00  0.00     0.013 A 
HETATM    5  C   UNL     1      44.349 -17.267   6.365  1.00  0.00     0.068 C 
HETATM    6  N   UNL     1      44.722 -19.636   5.688  1.00  0.00    -0.356 N 
HETATM    7  H   UNL     1      45.067 -19.933   6.592  1.00  0.00     0.166 HD
HETATM    8  C   UNL     1      44.586 -20.471   4.607  1.00  0.00     0.082 A 
HETATM    9  C   UNL     1      44.080 -19.713   3.554  1.00  0.00     0.005 A 
HETATM   10  C   UNL     1      44.871 -21.832   4.483  1.00  0.00     0.146 A 
HETATM   11  C   UNL     1      43.852 -20.357   2.320  1.00  0.00     0.056 A 
HETATM   12  C   UNL     1      44.137 -21.720   2.204  1.00  0.00     0.120 A 
HETATM   13  C   UNL     1      44.640 -22.459   3.264  1.00  0.00     0.086 A 
HETATM   14  F   UNL     1      43.918 -22.330   1.030  1.00  0.00    -0.206 F 
HETATM   15  F   UNL     1      45.357 -22.530   5.517  1.00  0.00    -0.204 F 
ENDBRANCH   2   3
ENDBRANCH   1   2
BRANCH   1  16
HETATM   16  N   UNL     1      41.595 -16.928   1.523  1.00  0.00    -0.343 N 
HETATM   17  C   UNL     1      40.890 -15.795   1.216  1.00  0.00     0.320 C 
HETATM   18  N   UNL     1      39.898 -15.477   2.104  1.00  0.00    -0.303 N 
HETATM   19  O   UNL     1      41.165 -15.196   0.181  1.00  0.00    -0.247 OA
HETATM   20  H   UNL     1      39.417 -16.255   2.523  1.00  0.00     0.171 HD
HETATM   21  H   UNL     1      42.363 -17.022   0.867  1.00  0.00     0.164 HD
BRANCH  18  22
HETATM   22  C   UNL     1      39.260 -14.249   2.128  1.00  0.00     0.115 A 
HETATM   23  C   UNL     1      38.251 -13.715   1.297  1.00  0.00     0.212 A 
HETATM   24  N   UNL     1      37.913 -12.467   1.624  1.00  0.00    -0.145 NA
HETATM   25  N   UNL     1      38.702 -12.201   2.682  1.00  0.00    -0.274 N 
HETATM   26  C   UNL     1      38.594 -10.907   3.317  1.00  0.00     0.180 C 
HETATM   27  C   UNL     1      39.555 -13.228   3.015  1.00  0.00     0.057 A 
HETATM   28  C   UNL     1      40.525 -13.167   4.136  1.00  0.00     0.072 C 
BRANCH  23  29
HETATM   29  O   UNL     1      37.756 -14.255   0.165  1.00  0.00    -0.337 OA
HETATM   30  C   UNL     1      38.263 -13.623  -1.002  1.00  0.00     0.212 C 
ENDBRANCH  23  29
ENDBRANCH  18  22
ENDBRANCH   1  16
TORSDOF 5
ENDMDL
MODEL 2
REMARK VINA RESULT:      -8.8      1.440      2.157
REMARK  5 active torsions:
REMARK  status: ('A' for Active; 'I' for Inactive)
REMARK    1  A    between atoms: C_7  and  C_8 
REMARK    2  A    between atoms: C_8  and  C_9 
REMARK    3  A    between atoms: C_9  and  N_10 
REMARK       I    between atoms: N_10  and  C_11 
REMARK       I    between atoms: C_11  and  N_12 
REMARK    4  A    between atoms: N_12  and  C_13 
REMARK    5  A    between atoms: C_14  and  O_15 
ROOT
HETATM    1  C   UNL     1      41.800 -17.455   2.960  1.00  0.00     0.129 C 
ENDROOT
BRANCH   1   2
HETATM    2  C   UNL     1      43.297 -17.300   3.249  1.00  0.00     0.061 C 
BRANCH   2   3
HETATM    3  C   UNL     1      43.883 -18.458   4.006  1.00  0.00    -0.022 A 
HETATM    4  C   UNL     1      44.323 -18.445   5.323  1.00  0.00     0.013 A 
HETATM    5  C   UNL     1      44.359 -17.350   6.327  1.00  0.00     0.068 C 
HETATM    6  N   UNL     1      44.763 -19.709   5.631  1.00  0.00    -0.356 N 
HETATM    7  H   UNL     1      45.133 -20.003   6.526  1.00  0.00     0.166 HD
HETATM    8  C   UNL     1      44.621 -20.541   4.549  1.00  0.00     0.082 A 
HETATM    9  C   UNL     1      44.078 -19.788   3.510  1.00  0.00     0.005 A 
HETATM   10  C   UNL     1      44.929 -21.896   4.412  1.00  0.00     0.146 A 
HETATM   11  C   UNL     1      43.837 -20.430   2.278  1.00  0.00     0.056 A 
HETATM   12  C   UNL     1      44.146 -21.788   2.150  1.00  0.00     0.120 A 
HETATM   13  C   UNL     1      44.685 -22.522   3.195  1.00  0.00     0.086 A 
HETATM   14  F   UNL     1      43.915 -22.397   0.977  1.00  0.00    -0.206 F 
HETATM   15  F   UNL     1      45.450 -22.588   5.433  1.00  0.00    -0.204 F 
ENDBRANCH   2   3
ENDBRANCH   1   2
BRANCH   1  16
HETATM   16  N   UNL     1      41.491 -17.400   1.537  1.00  0.00    -0.343 N 
HETATM   17  C   UNL     1      41.173 -16.252   0.862  1.00  0.00     0.320 C 
HETATM   18  N   UNL     1      40.486 -15.325   1.598  1.00  0.00    -0.303 N 
HETATM   19  O   UNL     1      41.481 -16.164  -0.322  1.00  0.00    -0.247 OA
HETATM   20  H   UNL     1      39.836 -15.693   2.274  1.00  0.00     0.171 HD
HETATM   21  H   UNL     1      42.079 -17.976   0.943  1.00  0.00     0.164 HD
BRANCH  18  22
HETATM   22  C   UNL     1      40.310 -14.011   1.199  1.00  0.00     0.115 A 
HETATM   23  C   UNL     1      41.224 -12.936   1.130  1.00  0.00     0.212 A 
HETATM   24  N   UNL     1      40.661 -11.800   0.720  1.00  0.00    -0.145 NA
HETATM   25  N   UNL     1      39.378 -12.148   0.511  1.00  0.00    -0.274 N 
HETATM   26  C   UNL     1      38.454 -11.141   0.039  1.00  0.00     0.180 C 
HETATM   27  C   UNL     1      39.101 -13.463   0.809  1.00  0.00     0.057 A 
HETATM   28  C   UNL     1      37.757 -14.078   0.671  1.00  0.00     0.072 C 
BRANCH  23  29
HETATM   29  O   UNL     1      42.494 -12.915   1.581  1.00  0.00    -0.337 OA
HETATM   30  C   UNL     1      42.572 -13.099   2.988  1.00  0.00     0.212 C 
ENDBRANCH  23  29
ENDBRANCH  18  22
ENDBRANCH   1  16
TORSDOF 5
ENDMDL
MODEL 3
REMARK VINA RESULT:      -8.7      2.869      3.602
REMARK  5 active torsions:
REMARK  status: ('A' for Active; 'I' for Inactive)
REMARK    1  A    between atoms: C_7  and  C_8 
REMARK    2  A    between atoms: C_8  and  C_9 
REMARK    3  A    between atoms: C_9  and  N_10 
REMARK       I    between atoms: N_10  and  C_11 
REMARK       I    between atoms: C_11  and  N_12 
REMARK    4  A    between atoms: N_12  and  C_13 
REMARK    5  A    between atoms: C_14  and  O_15 
ROOT
HETATM    1  C   UNL     1      42.183 -17.399   1.021  1.00  0.00     0.129 C 
ENDROOT
BRANCH   1   2
HETATM    2  C   UNL     1      43.609 -17.320   1.578  1.00  0.00     0.061 C 
BRANCH   2   3
HETATM    3  C   UNL     1      43.748 -17.914   2.951  1.00  0.00    -0.022 A 
HETATM    4  C   UNL     1      43.566 -17.253   4.158  1.00  0.00     0.013 A 
HETATM    5  C   UNL     1      43.209 -15.840   4.451  1.00  0.00     0.068 C 
HETATM    6  N   UNL     1      43.766 -18.161   5.169  1.00  0.00    -0.356 N 
HETATM    7  H   UNL     1      43.692 -17.967   6.159  1.00  0.00     0.166 HD
HETATM    8  C   UNL     1      44.074 -19.393   4.650  1.00  0.00     0.082 A 
HETATM    9  C   UNL     1      44.078 -19.273   3.261  1.00  0.00     0.005 A 
HETATM   10  C   UNL     1      44.347 -20.598   5.299  1.00  0.00     0.146 A 
HETATM   11  C   UNL     1      44.372 -20.420   2.495  1.00  0.00     0.056 A 
HETATM   12  C   UNL     1      44.642 -21.624   3.153  1.00  0.00     0.120 A 
HETATM   13  C   UNL     1      44.632 -21.724   4.536  1.00  0.00     0.086 A 
HETATM   14  F   UNL     1      44.920 -22.713   2.422  1.00  0.00    -0.206 F 
HETATM   15  F   UNL     1      44.334 -20.677   6.635  1.00  0.00    -0.204 F 
ENDBRANCH   2   3
ENDBRANCH   1   2
BRANCH   1  16
HETATM   16  N   UNL     1      41.387 -16.221   1.337  1.00  0.00    -0.343 N 
HETATM   17  C   UNL     1      40.946 -15.317   0.408  1.00  0.00     0.320 C 
HETATM   18  N   UNL     1      41.790 -15.127  -0.654  1.00  0.00    -0.303 N 
HETATM   19  O   UNL     1      39.885 -14.735   0.612  1.00  0.00    -0.247 OA
HETATM   20  H   UNL     1      42.774 -15.180  -0.449  1.00  0.00     0.171 HD
HETATM   21  H   UNL     1      40.654 -16.363   2.025  1.00  0.00     0.164 HD
BRANCH  18  22
HETATM   22  C   UNL     1      41.418 -14.477  -1.818  1.00  0.00     0.115 A 
HETATM   23  C   UNL     1      40.673 -14.927  -2.930  1.00  0.00     0.212 A 
HETATM   24  N   UNL     1      40.550 -14.003  -3.883  1.00  0.00    -0.145 NA
HETATM   25  N   UNL     1      41.211 -12.946  -3.375  1.00  0.00    -0.274 N 
HETATM   26  C   UNL     1      41.275 -11.730  -4.154  1.00  0.00     0.180 C 
HETATM   27  C   UNL     1      41.779 -13.182  -2.144  1.00  0.00     0.057 A 
HETATM   28  C   UNL     1      42.564 -12.174  -1.388  1.00  0.00     0.072 C 
BRANCH  23  29
HETATM   29  O   UNL     1      40.252 -16.184  -3.176  1.00  0.00    -0.337 OA
HETATM   30  C   UNL     1      39.131 -16.218  -4.048  1.00  0.00     0.212 C 
ENDBRANCH  23  29
ENDBRANCH  18  22
ENDBRANCH   1  16
TORSDOF 5
ENDMDL
MODEL 4
REMARK VINA RESULT:      -8.6      1.763      2.671
REMARK  5 active torsions:
REMARK  status: ('A' for Active; 'I' for Inactive)
REMARK    1  A    between atoms: C_7  and  C_8 
REMARK    2  A    between atoms: C_8  and  C_9 
REMARK    3  A    between atoms: C_9  and  N_10 
REMARK       I    between atoms: N_10  and  C_11 
REMARK       I    between atoms: C_11  and  N_12 
REMARK    4  A    between atoms: N_12  and  C_13 
REMARK    5  A    between atoms: C_14  and  O_15 
ROOT
HETATM    1  C   UNL     1      42.011 -17.491   2.103  1.00  0.00     0.129 C 
ENDROOT
BRANCH   1   2
HETATM    2  C   UNL     1      43.294 -17.136   2.862  1.00  0.00     0.061 C 
BRANCH   2   3
HETATM    3  C   UNL     1      43.807 -18.254   3.725  1.00  0.00    -0.022 A 
HETATM    4  C   UNL     1      44.141 -18.172   5.070  1.00  0.00     0.013 A 
HETATM    5  C   UNL     1      44.108 -17.023   6.013  1.00  0.00     0.068 C 
HETATM    6  N   UNL     1      44.542 -19.419   5.480  1.00  0.00    -0.356 N 
HETATM    7  H   UNL     1      44.837 -19.666   6.416  1.00  0.00     0.166 HD
HETATM    8  C   UNL     1      44.478 -20.309   4.437  1.00  0.00     0.082 A 
HETATM    9  C   UNL     1      44.026 -19.611   3.319  1.00  0.00     0.005 A 
HETATM   10  C   UNL     1      44.782 -21.671   4.398  1.00  0.00     0.146 A 
HETATM   11  C   UNL     1      43.877 -20.318   2.108  1.00  0.00     0.056 A 
HETATM   12  C   UNL     1      44.182 -21.683   2.079  1.00  0.00     0.120 A 
HETATM   13  C   UNL     1      44.628 -22.361   3.202  1.00  0.00     0.086 A 
HETATM   14  F   UNL     1      44.037 -22.354   0.926  1.00  0.00    -0.206 F 
HETATM   15  F   UNL     1      45.213 -22.309   5.494  1.00  0.00    -0.204 F 
ENDBRANCH   2   3
ENDBRANCH   1   2
BRANCH   1  16
HETATM   16  N   UNL     1      40.849 -16.756   2.584  1.00  0.00    -0.343 N 
HETATM   17  C   UNL     1      40.197 -15.790   1.866  1.00  0.00     0.320 C 
HETATM   18  N   UNL     1      41.000 -15.047   1.043  1.00  0.00    -0.303 N 
HETATM   19  O   UNL     1      38.992 -15.642   2.041  1.00  0.00    -0.247 OA
HETATM   20  H   UNL     1      41.929 -14.862   1.383  1.00  0.00     0.171 HD
HETATM   21  H   UNL     1      40.160 -17.311   3.082  1.00  0.00     0.164 HD
BRANCH  18  22
HETATM   22  C   UNL     1      40.513 -14.218   0.046  1.00  0.00     0.115 A 
HETATM   23  C   UNL     1      39.891 -12.952   0.118  1.00  0.00     0.212 A 
HETATM   24  N   UNL     1      39.529 -12.481  -1.075  1.00  0.00    -0.145 NA
HETATM   25  N   UNL     1      39.933 -13.445  -1.924  1.00  0.00    -0.274 N 
HETATM   26  C   UNL     1      39.708 -13.261  -3.340  1.00  0.00     0.180 C 
HETATM   27  C   UNL     1      40.509 -14.530  -1.302  1.00  0.00     0.057 A 
HETATM   28  C   UNL     1      41.023 -15.720  -2.024  1.00  0.00     0.072 C 
BRANCH  23  29
HETATM   29  O   UNL     1      39.496 -12.300   1.230  1.00  0.00    -0.337 OA
HETATM   30  C   UNL     1      38.084 -12.308   1.389  1.00  0.00     0.212 C 
ENDBRANCH  23  29
ENDBRANCH  18  22
ENDBRANCH   1  16
TORSDOF 5
ENDMDL
MODEL 5
REMARK VINA RESULT:      -8.4      1.650      2.603
REMARK  5 active torsions:
REMARK  status: ('A' for Active; 'I' for Inactive)
REMARK    1  A    between atoms: C_7  and  C_8 
REMARK    2  A    between atoms: C_8  and  C_9 
REMARK    3  A    between atoms: C_9  and  N_10 
REMARK       I    between atoms: N_10  and  C_11 
REMARK       I    between atoms: C_11  and  N_12 
REMARK    4  A    between atoms: N_12  and  C_13 
REMARK    5  A    between atoms: C_14  and  O_15 
ROOT
HETATM    1  C   UNL     1      42.122 -17.050   0.812  1.00  0.00     0.129 C 
ENDROOT
BRANCH   1   2
HETATM    2  C   UNL     1      43.523 -17.604   1.093  1.00  0.00     0.061 C 
BRANCH   2   3
HETATM    3  C   UNL     1      43.741 -17.972   2.534  1.00  0.00    -0.022 A 
HETATM    4  C   UNL     1      43.641 -17.122   3.627  1.00  0.00     0.013 A 
HETATM    5  C   UNL     1      43.315 -15.674   3.708  1.00  0.00     0.068 C 
HETATM    6  N   UNL     1      43.894 -17.859   4.757  1.00  0.00    -0.356 N 
HETATM    7  H   UNL     1      43.884 -17.508   5.706  1.00  0.00     0.166 HD
HETATM    8  C   UNL     1      44.159 -19.165   4.427  1.00  0.00     0.082 A 
HETATM    9  C   UNL     1      44.078 -19.270   3.039  1.00  0.00     0.005 A 
HETATM   10  C   UNL     1      44.460 -20.255   5.245  1.00  0.00     0.146 A 
HETATM   11  C   UNL     1      44.313 -20.530   2.453  1.00  0.00     0.056 A 
HETATM   12  C   UNL     1      44.612 -21.618   3.279  1.00  0.00     0.120 A 
HETATM   13  C   UNL     1      44.687 -21.494   4.658  1.00  0.00     0.086 A 
HETATM   14  F   UNL     1      44.834 -22.816   2.719  1.00  0.00    -0.206 F 
HETATM   15  F   UNL     1      44.529 -20.117   6.575  1.00  0.00    -0.204 F 
ENDBRANCH   2   3
ENDBRANCH   1   2
BRANCH   1  16
HETATM   16  N   UNL     1      42.107 -16.072  -0.268  1.00  0.00    -0.343 N 
HETATM   17  C   UNL     1      41.286 -14.977  -0.304  1.00  0.00     0.320 C 
HETATM   18  N   UNL     1      40.058 -15.161   0.272  1.00  0.00    -0.303 N 
HETATM   19  O   UNL     1      41.686 -13.963  -0.867  1.00  0.00    -0.247 OA
HETATM   20  H   UNL     1      39.656 -16.079   0.169  1.00  0.00     0.171 HD
HETATM   21  H   UNL     1      43.020 -15.807  -0.626  1.00  0.00     0.164 HD
BRANCH  18  22
HETATM   22  C   UNL     1      39.196 -14.123   0.581  1.00  0.00     0.115 A 
HETATM   23  C   UNL     1      38.985 -13.427   1.792  1.00  0.00     0.212 A 
HETATM   24  N   UNL     1      38.033 -12.499   1.700  1.00  0.00    -0.145 NA
HETATM   25  N   UNL     1      37.637 -12.589   0.416  1.00  0.00    -0.274 N 
HETATM   26  C   UNL     1      36.597 -11.700  -0.053  1.00  0.00     0.180 C 
HETATM   27  C   UNL     1      38.284 -13.570  -0.300  1.00  0.00     0.057 A 
HETATM   28  C   UNL     1      38.013 -13.866  -1.729  1.00  0.00     0.072 C 
BRANCH  23  29
HETATM   29  O   UNL     1      39.503 -13.719   3.002  1.00  0.00    -0.337 OA
HETATM   30  C   UNL     1      40.750 -13.076   3.225  1.00  0.00     0.212 C 
ENDBRANCH  23  29
ENDBRANCH  18  22
ENDBRANCH   1  16
TORSDOF 5
ENDMDL
MODEL 6
REMARK VINA RESULT:      -8.3      2.477      3.104
REMARK  5 active torsions:
REMARK  status: ('A' for Active; 'I' for Inactive)
REMARK    1  A    between atoms: C_7  and  C_8 
REMARK    2  A    between atoms: C_8  and  C_9 
REMARK    3  A    between atoms: C_9  and  N_10 
REMARK       I    between atoms: N_10  and  C_11 
REMARK       I    between atoms: C_11  and  N_12 
REMARK    4  A    between atoms: N_12  and  C_13 
REMARK    5  A    between atoms: C_14  and  O_15 
ROOT
HETATM    1  C   UNL     1      41.930 -15.967   0.722  1.00  0.00     0.129 C 
ENDROOT
BRANCH   1   2
HETATM    2  C   UNL     1      41.359 -17.122   1.552  1.00  0.00     0.061 C 
BRANCH   2   3
HETATM    3  C   UNL     1      42.275 -17.577   2.653  1.00  0.00    -0.022 A 
HETATM    4  C   UNL     1      42.551 -16.897   3.831  1.00  0.00     0.013 A 
HETATM    5  C   UNL     1      42.065 -15.586   4.336  1.00  0.00     0.068 C 
HETATM    6  N   UNL     1      43.416 -17.668   4.568  1.00  0.00    -0.356 N 
HETATM    7  H   UNL     1      43.786 -17.432   5.480  1.00  0.00     0.166 HD
HETATM    8  C   UNL     1      43.710 -18.830   3.899  1.00  0.00     0.082 A 
HETATM    9  C   UNL     1      43.016 -18.803   2.691  1.00  0.00     0.005 A 
HETATM   10  C   UNL     1      44.530 -19.896   4.269  1.00  0.00     0.146 A 
HETATM   11  C   UNL     1      43.159 -19.901   1.817  1.00  0.00     0.056 A 
HETATM   12  C   UNL     1      43.981 -20.966   2.197  1.00  0.00     0.120 A 
HETATM   13  C   UNL     1      44.662 -20.976   3.404  1.00  0.00     0.086 A 
HETATM   14  F   UNL     1      44.114 -22.010   1.365  1.00  0.00    -0.206 F 
HETATM   15  F   UNL     1      45.181 -19.888   5.439  1.00  0.00    -0.204 F 
ENDBRANCH   2   3
ENDBRANCH   1   2
BRANCH   1  16
HETATM   16  N   UNL     1      41.772 -16.170  -0.712  1.00  0.00    -0.343 N 
HETATM   17  C   UNL     1      40.988 -15.390  -1.518  1.00  0.00     0.320 C 
HETATM   18  N   UNL     1      39.861 -14.894  -0.918  1.00  0.00    -0.303 N 
HETATM   19  O   UNL     1      41.322 -15.235  -2.689  1.00  0.00    -0.247 OA
HETATM   20  H   UNL     1      39.423 -15.496  -0.241  1.00  0.00     0.171 HD
HETATM   21  H   UNL     1      42.623 -16.404  -1.213  1.00  0.00     0.164 HD
BRANCH  18  22
HETATM   22  C   UNL     1      39.090 -13.881  -1.461  1.00  0.00     0.115 A 
HETATM   23  C   UNL     1      37.961 -13.932  -2.308  1.00  0.00     0.212 A 
HETATM   24  N   UNL     1      37.508 -12.725  -2.647  1.00  0.00    -0.145 NA
HETATM   25  N   UNL     1      38.345 -11.890  -2.001  1.00  0.00    -0.274 N 
HETATM   26  C   UNL     1      38.140 -10.465  -2.135  1.00  0.00     0.180 C 
HETATM   27  C   UNL     1      39.335 -12.530  -1.292  1.00  0.00     0.057 A 
HETATM   28  C   UNL     1      40.380 -11.824  -0.509  1.00  0.00     0.072 C 
BRANCH  23  29
HETATM   29  O   UNL     1      37.441 -15.021  -2.910  1.00  0.00    -0.337 OA
HETATM   30  C   UNL     1      38.118 -15.348  -4.116  1.00  0.00     0.212 C 
ENDBRANCH  23  29
ENDBRANCH  18  22
ENDBRANCH   1  16
TORSDOF 5
ENDMDL
MODEL 7
REMARK VINA RESULT:      -8.3      1.928      3.191
REMARK  5 active torsions:
REMARK  status: ('A' for Active; 'I' for Inactive)
REMARK    1  A    between atoms: C_7  and  C_8 
REMARK    2  A    between atoms: C_8  and  C_9 
REMARK    3  A    between atoms: C_9  and  N_10 
REMARK       I    between atoms: N_10  and  C_11 
REMARK       I    between atoms: C_11  and  N_12 
REMARK    4  A    between atoms: N_12  and  C_13 
REMARK    5  A    between atoms: C_14  and  O_15 
ROOT
HETATM    1  C   UNL     1      42.193 -17.625   1.181  1.00  0.00     0.129 C 
ENDROOT
BRANCH   1   2
HETATM    2  C   UNL     1      43.645 -18.036   1.451  1.00  0.00     0.061 C 
BRANCH   2   3
HETATM    3  C   UNL     1      43.846 -18.670   2.799  1.00  0.00    -0.022 A 
HETATM    4  C   UNL     1      44.146 -20.002   3.048  1.00  0.00     0.013 A 
HETATM    5  C   UNL     1      44.340 -21.147   2.120  1.00  0.00     0.068 C 
HETATM    6  N   UNL     1      44.268 -20.158   4.407  1.00  0.00    -0.356 N 
HETATM    7  H   UNL     1      44.492 -21.022   4.884  1.00  0.00     0.166 HD
HETATM    8  C   UNL     1      44.053 -18.963   5.046  1.00  0.00     0.082 A 
HETATM    9  C   UNL     1      43.779 -18.008   4.068  1.00  0.00     0.005 A 
HETATM   10  C   UNL     1      44.082 -18.654   6.407  1.00  0.00     0.146 A 
HETATM   11  C   UNL     1      43.521 -16.685   4.483  1.00  0.00     0.056 A 
HETATM   12  C   UNL     1      43.554 -16.385   5.848  1.00  0.00     0.120 A 
HETATM   13  C   UNL     1      43.830 -17.347   6.807  1.00  0.00     0.086 A 
HETATM   14  F   UNL     1      43.310 -15.125   6.240  1.00  0.00    -0.206 F 
HETATM   15  F   UNL     1      44.349 -19.598   7.319  1.00  0.00    -0.204 F 
ENDBRANCH   2   3
ENDBRANCH   1   2
BRANCH   1  16
HETATM   16  N   UNL     1      42.073 -16.651   0.105  1.00  0.00    -0.343 N 
HETATM   17  C   UNL     1      41.345 -15.494   0.190  1.00  0.00     0.320 C 
HETATM   18  N   UNL     1      40.221 -15.579   0.967  1.00  0.00    -0.303 N 
HETATM   19  O   UNL     1      41.722 -14.516  -0.448  1.00  0.00    -0.247 OA
HETATM   20  H   UNL     1      39.738 -16.462   0.947  1.00  0.00     0.171 HD
HETATM   21  H   UNL     1      42.929 -16.460  -0.406  1.00  0.00     0.164 HD
BRANCH  18  22
HETATM   22  C   UNL     1      39.508 -14.475   1.401  1.00  0.00     0.115 A 
HETATM   23  C   UNL     1      38.401 -13.807   0.830  1.00  0.00     0.212 A 
HETATM   24  N   UNL     1      38.009 -12.749   1.540  1.00  0.00    -0.145 NA
HETATM   25  N   UNL     1      38.861 -12.743   2.582  1.00  0.00    -0.274 N 
HETATM   26  C   UNL     1      38.720 -11.713   3.587  1.00  0.00     0.180 C 
HETATM   27  C   UNL     1      39.804 -13.745   2.538  1.00  0.00     0.057 A 
HETATM   28  C   UNL     1      40.855 -13.937   3.568  1.00  0.00     0.072 C 
BRANCH  23  29
HETATM   29  O   UNL     1      37.854 -14.025  -0.382  1.00  0.00    -0.337 OA
HETATM   30  C   UNL     1      38.517 -13.305  -1.412  1.00  0.00     0.212 C 
ENDBRANCH  23  29
ENDBRANCH  18  22
ENDBRANCH   1  16
TORSDOF 5
ENDMDL
MODEL 8
REMARK VINA RESULT:      -8.2      2.698      3.864
REMARK  5 active torsions:
REMARK  status: ('A' for Active; 'I' for Inactive)
REMARK    1  A    between atoms: C_7  and  C_8 
REMARK    2  A    between atoms: C_8  and  C_9 
REMARK    3  A    between atoms: C_9  and  N_10 
REMARK       I    between atoms: N_10  and  C_11 
REMARK       I    between atoms: C_11  and  N_12 
REMARK    4  A    between atoms: N_12  and  C_13 
REMARK    5  A    between atoms: C_14  and  O_15 
ROOT
HETATM    1  C   UNL     1      41.643 -16.033   0.484  1.00  0.00     0.129 C 
ENDROOT
BRANCH   1   2
HETATM    2  C   UNL     1      41.181 -17.236   1.315  1.00  0.00     0.061 C 
BRANCH   2   3
HETATM    3  C   UNL     1      42.105 -17.567   2.452  1.00  0.00    -0.022 A 
HETATM    4  C   UNL     1      42.309 -16.810   3.598  1.00  0.00     0.013 A 
HETATM    5  C   UNL     1      41.720 -15.513   4.025  1.00  0.00     0.068 C 
HETATM    6  N   UNL     1      43.211 -17.477   4.388  1.00  0.00    -0.356 N 
HETATM    7  H   UNL     1      43.546 -17.169   5.292  1.00  0.00     0.166 HD
HETATM    8  C   UNL     1      43.601 -18.647   3.785  1.00  0.00     0.082 A 
HETATM    9  C   UNL     1      42.931 -18.732   2.566  1.00  0.00     0.005 A 
HETATM   10  C   UNL     1      44.488 -19.631   4.224  1.00  0.00     0.146 A 
HETATM   11  C   UNL     1      43.170 -19.860   1.753  1.00  0.00     0.056 A 
HETATM   12  C   UNL     1      44.059 -20.842   2.201  1.00  0.00     0.120 A 
HETATM   13  C   UNL     1      44.715 -20.741   3.418  1.00  0.00     0.086 A 
HETATM   14  F   UNL     1      44.282 -21.915   1.427  1.00  0.00    -0.206 F 
HETATM   15  F   UNL     1      45.114 -19.516   5.402  1.00  0.00    -0.204 F 
ENDBRANCH   2   3
ENDBRANCH   1   2
BRANCH   1  16
HETATM   16  N   UNL     1      41.572 -16.276  -0.950  1.00  0.00    -0.343 N 
HETATM   17  C   UNL     1      40.907 -15.472  -1.836  1.00  0.00     0.320 C 
HETATM   18  N   UNL     1      39.782 -14.874  -1.336  1.00  0.00    -0.303 N 
HETATM   19  O   UNL     1      41.334 -15.384  -2.983  1.00  0.00    -0.247 OA
HETATM   20  H   UNL     1      39.252 -15.417  -0.674  1.00  0.00     0.171 HD
HETATM   21  H   UNL     1      42.437 -16.590  -1.380  1.00  0.00     0.164 HD
BRANCH  18  22
HETATM   22  C   UNL     1      39.129 -13.828  -1.965  1.00  0.00     0.115 A 
HETATM   23  C   UNL     1      39.278 -12.430  -1.830  1.00  0.00     0.212 A 
HETATM   24  N   UNL     1      38.433 -11.740  -2.595  1.00  0.00    -0.145 NA
HETATM   25  N   UNL     1      37.743 -12.700  -3.238  1.00  0.00    -0.274 N 
HETATM   26  C   UNL     1      36.722 -12.306  -4.182  1.00  0.00     0.180 C 
HETATM   27  C   UNL     1      38.100 -13.980  -2.878  1.00  0.00     0.057 A 
HETATM   28  C   UNL     1      37.476 -15.203  -3.442  1.00  0.00     0.072 C 
BRANCH  23  29
HETATM   29  O   UNL     1      40.029 -11.774  -0.922  1.00  0.00    -0.337 OA
HETATM   30  C   UNL     1      41.329 -11.476  -1.411  1.00  0.00     0.212 C 
ENDBRANCH  23  29
ENDBRANCH  18  22
ENDBRANCH   1  16
TORSDOF 5
ENDMDL
MODEL 9
REMARK VINA RESULT:      -8.2      2.497      3.393
REMARK  5 active torsions:
REMARK  status: ('A' for Active; 'I' for Inactive)
REMARK    1  A    between atoms: C_7  and  C_8 
REMARK    2  A    between atoms: C_8  and  C_9 
REMARK    3  A    between atoms: C_9  and  N_10 
REMARK       I    between atoms: N_10  and  C_11 
REMARK       I    between atoms: C_11  and  N_12 
REMARK    4  A    between atoms: N_12  and  C_13 
REMARK    5  A    between atoms: C_14  and  O_15 
ROOT
HETATM    1  C   UNL     1      42.926 -15.292   4.890  1.00  0.00     0.129 C 
ENDROOT
BRANCH   1   2
HETATM    2  C   UNL     1      42.174 -16.538   5.371  1.00  0.00     0.061 C 
BRANCH   2   3
HETATM    3  C   UNL     1      43.063 -17.734   5.567  1.00  0.00    -0.022 A 
HETATM    4  C   UNL     1      43.625 -18.157   6.764  1.00  0.00     0.013 A 
HETATM    5  C   UNL     1      43.536 -17.591   8.136  1.00  0.00     0.068 C 
HETATM    6  N   UNL     1      44.346 -19.298   6.509  1.00  0.00    -0.356 N 
HETATM    7  H   UNL     1      44.860 -19.836   7.195  1.00  0.00     0.166 HD
HETATM    8  C   UNL     1      44.269 -19.624   5.178  1.00  0.00     0.082 A 
HETATM    9  C   UNL     1      43.476 -18.661   4.557  1.00  0.00     0.005 A 
HETATM   10  C   UNL     1      44.834 -20.694   4.482  1.00  0.00     0.146 A 
HETATM   11  C   UNL     1      43.248 -18.782   3.170  1.00  0.00     0.056 A 
HETATM   12  C   UNL     1      43.817 -19.857   2.481  1.00  0.00     0.120 A 
HETATM   13  C   UNL     1      44.601 -20.807   3.117  1.00  0.00     0.086 A 
HETATM   14  F   UNL     1      43.596 -19.971   1.162  1.00  0.00    -0.206 F 
HETATM   15  F   UNL     1      45.590 -21.601   5.113  1.00  0.00    -0.204 F 
ENDBRANCH   2   3
ENDBRANCH   1   2
BRANCH   1  16
HETATM   16  N   UNL     1      42.040 -14.170   4.611  1.00  0.00    -0.343 N 
HETATM   17  C   UNL     1      41.581 -13.844   3.363  1.00  0.00     0.320 C 
HETATM   18  N   UNL     1      42.455 -14.106   2.342  1.00  0.00    -0.303 N 
HETATM   19  O   UNL     1      40.476 -13.321   3.263  1.00  0.00    -0.247 OA
HETATM   20  H   UNL     1      43.431 -13.979   2.555  1.00  0.00     0.171 HD
HETATM   21  H   UNL     1      41.290 -14.032   5.280  1.00  0.00     0.164 HD
BRANCH  18  22
HETATM   22  C   UNL     1      42.091 -14.108   1.007  1.00  0.00     0.115 A 
HETATM   23  C   UNL     1      42.096 -13.072   0.046  1.00  0.00     0.212 A 
HETATM   24  N   UNL     1      41.637 -13.461  -1.143  1.00  0.00    -0.145 NA
HETATM   25  N   UNL     1      41.346 -14.762  -0.951  1.00  0.00    -0.274 N 
HETATM   26  C   UNL     1      40.822 -15.526  -2.060  1.00  0.00     0.180 C 
HETATM   27  C   UNL     1      41.574 -15.201   0.334  1.00  0.00     0.057 A 
HETATM   28  C   UNL     1      41.320 -16.589   0.791  1.00  0.00     0.072 C 
BRANCH  23  29
HETATM   29  O   UNL     1      42.342 -11.763   0.259  1.00  0.00    -0.337 OA
HETATM   30  C   UNL     1      41.184 -11.058   0.684  1.00  0.00     0.212 C 
ENDBRANCH  23  29
ENDBRANCH  18  22
ENDBRANCH   1  16
TORSDOF 5
ENDMDL
MODEL 10
REMARK VINA RESULT:      -8.0      7.620     10.895
REMARK  5 active torsions:
REMARK  status: ('A' for Active; 'I' for Inactive)
REMARK    1  A    between atoms: C_7  and  C_8 
REMARK    2  A    between atoms: C_8  and  C_9 
REMARK    3  A    between atoms: C_9  and  N_10 
REMARK       I    between atoms: N_10  and  C_11 
REMARK       I    between atoms: C_11  and  N_12 
REMARK    4  A    between atoms: N_12  and  C_13 
REMARK    5  A    between atoms: C_14  and  O_15 
ROOT
HETATM    1  C   UNL     1      44.552 -12.499   9.430  1.00  0.00     0.129 C 
ENDROOT
BRANCH   1   2
HETATM    2  C   UNL     1      44.595 -11.005   9.768  1.00  0.00     0.061 C 
BRANCH   2   3
HETATM    3  C   UNL     1      43.253 -10.437  10.134  1.00  0.00    -0.022 A 
HETATM    4  C   UNL     1      42.169 -10.266   9.284  1.00  0.00     0.013 A 
HETATM    5  C   UNL     1      42.010 -10.564   7.836  1.00  0.00     0.068 C 
HETATM    6  N   UNL     1      41.136  -9.739  10.020  1.00  0.00    -0.356 N 
HETATM    7  H   UNL     1      40.214  -9.516   9.667  1.00  0.00     0.166 HD
HETATM    8  C   UNL     1      41.522  -9.561  11.325  1.00  0.00     0.082 A 
HETATM    9  C   UNL     1      42.846  -9.983  11.431  1.00  0.00     0.005 A 
HETATM   10  C   UNL     1      40.803  -9.065  12.414  1.00  0.00     0.146 A 
HETATM   11  C   UNL     1      43.472  -9.897  12.692  1.00  0.00     0.056 A 
HETATM   12  C   UNL     1      42.745  -9.400  13.778  1.00  0.00     0.120 A 
HETATM   13  C   UNL     1      41.427  -8.987  13.653  1.00  0.00     0.086 A 
HETATM   14  F   UNL     1      43.342  -9.321  14.976  1.00  0.00    -0.206 F 
HETATM   15  F   UNL     1      39.531  -8.669  12.274  1.00  0.00    -0.204 F 
ENDBRANCH   2   3
ENDBRANCH   1   2
BRANCH   1  16
HETATM   16  N   UNL     1      45.494 -12.869   8.382  1.00  0.00    -0.343 N 
HETATM   17  C   UNL     1      45.175 -13.639   7.296  1.00  0.00     0.320 C 
HETATM   18  N   UNL     1      44.229 -14.600   7.532  1.00  0.00    -0.303 N 
HETATM   19  O   UNL     1      45.772 -13.443   6.242  1.00  0.00    -0.247 OA
HETATM   20  H   UNL     1      44.249 -15.024   8.445  1.00  0.00     0.171 HD
HETATM   21  H   UNL     1      46.123 -12.130   8.084  1.00  0.00     0.164 HD
BRANCH  18  22
HETATM   22  C   UNL     1      43.576 -15.292   6.526  1.00  0.00     0.115 A 
HETATM   23  C   UNL     1      42.519 -14.904   5.673  1.00  0.00     0.212 A 
HETATM   24  N   UNL     1      42.137 -15.874   4.843  1.00  0.00    -0.145 NA
HETATM   25  N   UNL     1      42.962 -16.891   5.154  1.00  0.00    -0.274 N 
HETATM   26  C   UNL     1      42.837 -18.133   4.427  1.00  0.00     0.180 C 
HETATM   27  C   UNL     1      43.834 -16.607   6.181  1.00  0.00     0.057 A 
HETATM   28  C   UNL     1      44.832 -17.570   6.709  1.00  0.00     0.072 C 
BRANCH  23  29
HETATM   29  O   UNL     1      41.791 -13.771   5.739  1.00  0.00    -0.337 OA
HETATM   30  C   UNL     1      42.217 -12.798   4.795  1.00  0.00     0.212 C 
ENDBRANCH  23  29
ENDBRANCH  18  22
ENDBRANCH   1  16
TORSDOF 5
ENDMDL
