MODEL 1
REMARK VINA RESULT:      -9.2      0.000      0.000
REMARK  4 active torsions:
REMARK  status: ('A' for Active; 'I' for Inactive)
REMARK    1  A    between atoms: C_3  and  N_4 
REMARK       I    between atoms: N_4  and  C_5 
REMARK    2  A    between atoms: C_5  and  C_6 
REMARK    3  A    between atoms: C_7  and  C_8 
REMARK    4  A    between atoms: C_11  and  O_12 
ROOT
HETATM    1  C   UNL     1      42.184 -15.965   2.495  1.00  0.00     0.062 A 
HETATM    2  C   UNL     1      42.332 -14.956   3.627  1.00  0.00     0.202 A 
HETATM    3  N   UNL     1      41.174 -14.053   3.694  1.00  0.00    -0.083 N 
HETATM    4  C   UNL     1      40.133 -14.077   2.806  1.00  0.00     0.726 A 
HETATM    5  N   UNL     1      40.135 -14.981   1.810  1.00  0.00    -0.192 N 
HETATM    6  N   UNL     1      41.053 -13.026   4.562  1.00  0.00    -0.141 NA
HETATM    7  C   UNL     1      39.859 -12.534   4.204  1.00  0.00     0.162 A 
HETATM    8  C   UNL     1      39.205 -11.423   4.926  1.00  0.00     0.096 C 
HETATM    9  N   UNL     1      39.274 -13.142   3.118  1.00  0.00    -0.046 NA
HETATM   10  C   UNL     1      41.122 -15.944   1.652  1.00  0.00     0.037 A 
HETATM   11  C   UNL     1      40.922 -16.910   0.510  1.00  0.00     0.070 C 
HETATM   12  H   UNL     1      39.334 -15.017   1.184  1.00  0.00     0.184 HD
ENDROOT
BRANCH   1  13
HETATM   13  C   UNL     1      43.185 -17.061   2.420  1.00  0.00     0.256 C 
HETATM   14  N   UNL     1      42.680 -18.281   2.818  1.00  0.00    -0.323 N 
HETATM   15  H   UNL     1      41.744 -18.292   3.191  1.00  0.00     0.169 HD
HETATM   16  O   UNL     1      44.323 -16.802   2.048  1.00  0.00    -0.267 OA
BRANCH  14  17
HETATM   17  C   UNL     1      43.346 -19.533   2.793  1.00  0.00     0.041 A 
HETATM   18  C   UNL     1      44.235 -19.855   3.844  1.00  0.00    -0.035 A 
HETATM   19  C   UNL     1      44.501 -18.922   4.994  1.00  0.00     0.050 C 
HETATM   20  C   UNL     1      44.891 -21.100   3.837  1.00  0.00     0.009 A 
HETATM   21  C   UNL     1      44.681 -22.016   2.809  1.00  0.00     0.001 A 
HETATM   22  C   UNL     1      43.806 -21.700   1.778  1.00  0.00     0.002 A 
HETATM   23  C   UNL     1      43.144 -20.470   1.772  1.00  0.00     0.030 A 
ENDBRANCH  14  17
ENDBRANCH   1  13
BRANCH   2  24
HETATM   24  C   UNL     1      42.599 -15.590   4.987  1.00  0.00    -0.028 A 
HETATM   25  C   UNL     1      43.803 -15.324   5.657  1.00  0.00     0.012 A 
HETATM   26  C   UNL     1      44.066 -15.902   6.900  1.00  0.00     0.037 A 
HETATM   27  C   UNL     1      43.137 -16.750   7.502  1.00  0.00     0.068 A 
HETATM   28  C   UNL     1      41.940 -17.026   6.844  1.00  0.00     0.037 A 
HETATM   29  C   UNL     1      41.671 -16.450   5.595  1.00  0.00     0.012 A 
BRANCH  27  30
HETATM   30  O   UNL     1      43.519 -17.240   8.720  1.00  0.00    -0.356 OA
HETATM   31  C   UNL     1      44.232 -18.470   8.721  1.00  0.00     0.210 C 
ENDBRANCH  27  30
ENDBRANCH   2  24
TORSDOF 4
ENDMDL
MODEL 2
REMARK VINA RESULT:      -8.7      1.995      4.736
REMARK  4 active torsions:
REMARK  status: ('A' for Active; 'I' for Inactive)
REMARK    1  A    between atoms: C_3  and  N_4 
REMARK       I    between atoms: N_4  and  C_5 
REMARK    2  A    between atoms: C_5  and  C_6 
REMARK    3  A    between atoms: C_7  and  C_8 
REMARK    4  A    between atoms: C_11  and  O_12 
ROOT
HETATM    1  C   UNL     1      42.168 -15.859   5.452  1.00  0.00     0.062 A 
HETATM    2  C   UNL     1      41.150 -14.899   4.849  1.00  0.00     0.202 A 
HETATM    3  N   UNL     1      41.381 -13.521   5.302  1.00  0.00    -0.083 N 
HETATM    4  C   UNL     1      42.346 -13.162   6.203  1.00  0.00     0.726 A 
HETATM    5  N   UNL     1      43.158 -14.107   6.712  1.00  0.00    -0.192 N 
HETATM    6  N   UNL     1      40.603 -12.466   4.974  1.00  0.00    -0.141 NA
HETATM    7  C   UNL     1      41.224 -11.480   5.637  1.00  0.00     0.162 A 
HETATM    8  C   UNL     1      40.810 -10.066   5.534  1.00  0.00     0.096 C 
HETATM    9  N   UNL     1      42.287 -11.874   6.417  1.00  0.00    -0.046 NA
HETATM   10  C   UNL     1      43.109 -15.443   6.334  1.00  0.00     0.037 A 
HETATM   11  C   UNL     1      44.140 -16.343   6.970  1.00  0.00     0.070 C 
HETATM   12  H   UNL     1      43.900 -13.822   7.347  1.00  0.00     0.184 HD
ENDROOT
BRANCH   1  13
HETATM   13  C   UNL     1      42.178 -17.255   4.941  1.00  0.00     0.256 C 
HETATM   14  N   UNL     1      43.330 -17.569   4.252  1.00  0.00    -0.323 N 
HETATM   15  H   UNL     1      43.989 -16.823   4.092  1.00  0.00     0.169 HD
HETATM   16  O   UNL     1      41.205 -17.970   5.148  1.00  0.00    -0.267 OA
BRANCH  14  17
HETATM   17  C   UNL     1      43.686 -18.830   3.708  1.00  0.00     0.041 A 
HETATM   18  C   UNL     1      43.196 -19.185   2.431  1.00  0.00    -0.035 A 
HETATM   19  C   UNL     1      42.311 -18.276   1.621  1.00  0.00     0.050 C 
HETATM   20  C   UNL     1      43.553 -20.428   1.875  1.00  0.00     0.009 A 
HETATM   21  C   UNL     1      44.378 -21.312   2.566  1.00  0.00     0.001 A 
HETATM   22  C   UNL     1      44.862 -20.961   3.819  1.00  0.00     0.002 A 
HETATM   23  C   UNL     1      44.519 -19.730   4.384  1.00  0.00     0.030 A 
ENDBRANCH  14  17
ENDBRANCH   1  13
BRANCH   2  24
HETATM   24  C   UNL     1      41.069 -14.961   3.329  1.00  0.00    -0.028 A 
HETATM   25  C   UNL     1      42.167 -14.557   2.555  1.00  0.00     0.012 A 
HETATM   26  C   UNL     1      42.107 -14.600   1.161  1.00  0.00     0.037 A 
HETATM   27  C   UNL     1      40.958 -15.051   0.511  1.00  0.00     0.068 A 
HETATM   28  C   UNL     1      39.859 -15.451   1.270  1.00  0.00     0.037 A 
HETATM   29  C   UNL     1      39.913 -15.407   2.669  1.00  0.00     0.012 A 
BRANCH  27  30
HETATM   30  O   UNL     1      41.037 -15.048  -0.854  1.00  0.00    -0.356 OA
HETATM   31  C   UNL     1      41.450 -13.835  -1.470  1.00  0.00     0.210 C 
ENDBRANCH  27  30
ENDBRANCH   2  24
TORSDOF 4
ENDMDL
MODEL 3
REMARK VINA RESULT:      -8.1      2.041      4.797
REMARK  4 active torsions:
REMARK  status: ('A' for Active; 'I' for Inactive)
REMARK    1  A    between atoms: C_3  and  N_4 
REMARK       I    between atoms: N_4  and  C_5 
REMARK    2  A    between atoms: C_5  and  C_6 
REMARK    3  A    between atoms: C_7  and  C_8 
REMARK    4  A    between atoms: C_11  and  O_12 
ROOT
HETATM    1  C   UNL     1      42.400 -15.186   4.151  1.00  0.00     0.062 A 
HETATM    2  C   UNL     1      41.138 -14.705   3.448  1.00  0.00     0.202 A 
HETATM    3  N   UNL     1      40.578 -13.516   4.105  1.00  0.00    -0.083 N 
HETATM    4  C   UNL     1      41.092 -12.959   5.245  1.00  0.00     0.726 A 
HETATM    5  N   UNL     1      42.185 -13.503   5.811  1.00  0.00    -0.192 N 
HETATM    6  N   UNL     1      39.434 -12.903   3.735  1.00  0.00    -0.141 NA
HETATM    7  C   UNL     1      39.373 -11.915   4.640  1.00  0.00     0.162 A 
HETATM    8  C   UNL     1      38.326 -10.874   4.615  1.00  0.00     0.096 C 
HETATM    9  N   UNL     1      40.365 -11.930   5.593  1.00  0.00    -0.046 NA
HETATM   10  C   UNL     1      42.867 -14.586   5.273  1.00  0.00     0.037 A 
HETATM   11  C   UNL     1      44.106 -15.018   6.019  1.00  0.00     0.070 C 
HETATM   12  H   UNL     1      42.583 -13.053   6.632  1.00  0.00     0.184 HD
ENDROOT
BRANCH   1  13
HETATM   13  C   UNL     1      43.183 -16.265   3.492  1.00  0.00     0.256 C 
HETATM   14  N   UNL     1      42.877 -17.521   3.970  1.00  0.00    -0.323 N 
HETATM   15  H   UNL     1      42.242 -17.576   4.750  1.00  0.00     0.169 HD
HETATM   16  O   UNL     1      44.006 -15.963   2.637  1.00  0.00    -0.267 OA
BRANCH  14  17
HETATM   17  C   UNL     1      43.385 -18.761   3.504  1.00  0.00     0.041 A 
HETATM   18  C   UNL     1      44.326 -19.456   4.299  1.00  0.00    -0.035 A 
HETATM   19  C   UNL     1      44.810 -18.933   5.624  1.00  0.00     0.050 C 
HETATM   20  C   UNL     1      44.827 -20.693   3.853  1.00  0.00     0.009 A 
HETATM   21  C   UNL     1      44.412 -21.241   2.642  1.00  0.00     0.001 A 
HETATM   22  C   UNL     1      43.486 -20.560   1.862  1.00  0.00     0.002 A 
HETATM   23  C   UNL     1      42.977 -19.332   2.292  1.00  0.00     0.030 A 
ENDBRANCH  14  17
ENDBRANCH   1  13
BRANCH   2  24
HETATM   24  C   UNL     1      41.319 -14.460   1.955  1.00  0.00    -0.028 A 
HETATM   25  C   UNL     1      41.933 -13.278   1.512  1.00  0.00     0.012 A 
HETATM   26  C   UNL     1      42.100 -13.035   0.147  1.00  0.00     0.037 A 
HETATM   27  C   UNL     1      41.667 -13.962  -0.801  1.00  0.00     0.068 A 
HETATM   28  C   UNL     1      41.051 -15.137  -0.372  1.00  0.00     0.037 A 
HETATM   29  C   UNL     1      40.878 -15.385   0.996  1.00  0.00     0.012 A 
BRANCH  27  30
HETATM   30  O   UNL     1      41.899 -13.600  -2.099  1.00  0.00    -0.356 OA
HETATM   31  C   UNL     1      42.860 -12.576  -2.317  1.00  0.00     0.210 C 
ENDBRANCH  27  30
ENDBRANCH   2  24
TORSDOF 4
ENDMDL
MODEL 4
REMARK VINA RESULT:      -8.1      2.620      5.998
REMARK  4 active torsions:
REMARK  status: ('A' for Active; 'I' for Inactive)
REMARK    1  A    between atoms: C_3  and  N_4 
REMARK       I    between atoms: N_4  and  C_5 
REMARK    2  A    between atoms: C_5  and  C_6 
REMARK    3  A    between atoms: C_7  and  C_8 
REMARK    4  A    between atoms: C_11  and  O_12 
ROOT
HETATM    1  C   UNL     1      42.115 -17.657   3.430  1.00  0.00     0.062 A 
HETATM    2  C   UNL     1      41.861 -17.295   4.887  1.00  0.00     0.202 A 
HETATM    3  N   UNL     1      42.821 -17.961   5.779  1.00  0.00    -0.083 N 
HETATM    4  C   UNL     1      43.774 -18.845   5.354  1.00  0.00     0.726 A 
HETATM    5  N   UNL     1      43.872 -19.132   4.043  1.00  0.00    -0.192 N 
HETATM    6  N   UNL     1      42.806 -17.869   7.126  1.00  0.00    -0.141 NA
HETATM    7  C   UNL     1      43.849 -18.649   7.443  1.00  0.00     0.162 A 
HETATM    8  C   UNL     1      44.327 -18.817   8.830  1.00  0.00     0.096 C 
HETATM    9  N   UNL     1      44.456 -19.280   6.381  1.00  0.00    -0.046 NA
HETATM   10  C   UNL     1      43.083 -18.535   3.068  1.00  0.00     0.037 A 
HETATM   11  C   UNL     1      43.379 -18.939   1.645  1.00  0.00     0.070 C 
HETATM   12  H   UNL     1      44.613 -19.756   3.734  1.00  0.00     0.184 HD
ENDROOT
BRANCH   1  13
HETATM   13  C   UNL     1      41.345 -16.916   2.396  1.00  0.00     0.256 C 
HETATM   14  N   UNL     1      42.132 -16.082   1.632  1.00  0.00    -0.323 N 
HETATM   15  H   UNL     1      43.101 -15.993   1.896  1.00  0.00     0.169 HD
HETATM   16  O   UNL     1      40.133 -17.084   2.324  1.00  0.00    -0.267 OA
BRANCH  14  17
HETATM   17  C   UNL     1      41.725 -15.300   0.521  1.00  0.00     0.041 A 
HETATM   18  C   UNL     1      41.719 -13.892   0.642  1.00  0.00    -0.035 A 
HETATM   19  C   UNL     1      42.132 -13.186   1.906  1.00  0.00     0.050 C 
HETATM   20  C   UNL     1      41.329 -13.105  -0.457  1.00  0.00     0.009 A 
HETATM   21  C   UNL     1      40.947 -13.693  -1.660  1.00  0.00     0.001 A 
HETATM   22  C   UNL     1      40.954 -15.076  -1.781  1.00  0.00     0.002 A 
HETATM   23  C   UNL     1      41.342 -15.872  -0.699  1.00  0.00     0.030 A 
ENDBRANCH  14  17
ENDBRANCH   1  13
BRANCH   2  24
HETATM   24  C   UNL     1      41.829 -15.796   5.154  1.00  0.00    -0.028 A 
HETATM   25  C   UNL     1      40.610 -15.164   5.443  1.00  0.00     0.012 A 
HETATM   26  C   UNL     1      40.563 -13.789   5.683  1.00  0.00     0.037 A 
HETATM   27  C   UNL     1      41.725 -13.019   5.646  1.00  0.00     0.068 A 
HETATM   28  C   UNL     1      42.942 -13.635   5.355  1.00  0.00     0.037 A 
HETATM   29  C   UNL     1      42.994 -15.014   5.111  1.00  0.00     0.012 A 
BRANCH  27  30
HETATM   30  O   UNL     1      41.537 -11.690   5.906  1.00  0.00    -0.356 OA
HETATM   31  C   UNL     1      41.292 -10.847   4.788  1.00  0.00     0.210 C 
ENDBRANCH  27  30
ENDBRANCH   2  24
TORSDOF 4
ENDMDL
MODEL 5
REMARK VINA RESULT:      -7.9      2.842      4.770
REMARK  4 active torsions:
REMARK  status: ('A' for Active; 'I' for Inactive)
REMARK    1  A    between atoms: C_3  and  N_4 
REMARK       I    between atoms: N_4  and  C_5 
REMARK    2  A    between atoms: C_5  and  C_6 
REMARK    3  A    between atoms: C_7  and  C_8 
REMARK    4  A    between atoms: C_11  and  O_12 
ROOT
HETATM    1  C   UNL     1      42.032 -15.267   2.267  1.00  0.00     0.062 A 
HETATM    2  C   UNL     1      42.288 -13.767   2.313  1.00  0.00     0.202 A 
HETATM    3  N   UNL     1      42.190 -13.166   0.975  1.00  0.00    -0.083 N 
HETATM    4  C   UNL     1      41.964 -13.881  -0.170  1.00  0.00     0.726 A 
HETATM    5  N   UNL     1      41.805 -15.215  -0.096  1.00  0.00    -0.192 N 
HETATM    6  N   UNL     1      42.420 -11.864   0.701  1.00  0.00    -0.141 NA
HETATM    7  C   UNL     1      42.215 -11.846  -0.624  1.00  0.00     0.162 A 
HETATM    8  C   UNL     1      42.255 -10.603  -1.420  1.00  0.00     0.096 C 
HETATM    9  N   UNL     1      41.951 -13.069  -1.195  1.00  0.00    -0.046 NA
HETATM   10  C   UNL     1      41.804 -15.920   1.101  1.00  0.00     0.037 A 
HETATM   11  C   UNL     1      41.551 -17.403   0.989  1.00  0.00     0.070 C 
HETATM   12  H   UNL     1      41.594 -15.728  -0.948  1.00  0.00     0.184 HD
ENDROOT
BRANCH   1  13
HETATM   13  C   UNL     1      41.912 -15.981   3.566  1.00  0.00     0.256 C 
HETATM   14  N   UNL     1      43.133 -16.267   4.139  1.00  0.00    -0.323 N 
HETATM   15  H   UNL     1      43.957 -16.050   3.600  1.00  0.00     0.169 HD
HETATM   16  O   UNL     1      40.797 -16.261   3.989  1.00  0.00    -0.267 OA
BRANCH  14  17
HETATM   17  C   UNL     1      43.367 -16.867   5.403  1.00  0.00     0.041 A 
HETATM   18  C   UNL     1      43.818 -18.205   5.450  1.00  0.00    -0.035 A 
HETATM   19  C   UNL     1      44.065 -19.021   4.210  1.00  0.00     0.050 C 
HETATM   20  C   UNL     1      44.066 -18.807   6.698  1.00  0.00     0.009 A 
HETATM   21  C   UNL     1      43.870 -18.104   7.885  1.00  0.00     0.001 A 
HETATM   22  C   UNL     1      43.429 -16.789   7.838  1.00  0.00     0.002 A 
HETATM   23  C   UNL     1      43.182 -16.176   6.607  1.00  0.00     0.030 A 
ENDBRANCH  14  17
ENDBRANCH   1  13
BRANCH   2  24
HETATM   24  C   UNL     1      41.405 -13.020   3.304  1.00  0.00    -0.028 A 
HETATM   25  C   UNL     1      41.971 -12.460   4.460  1.00  0.00     0.012 A 
HETATM   26  C   UNL     1      41.175 -11.779   5.382  1.00  0.00     0.037 A 
HETATM   27  C   UNL     1      39.804 -11.636   5.170  1.00  0.00     0.068 A 
HETATM   28  C   UNL     1      39.229 -12.192   4.028  1.00  0.00     0.037 A 
HETATM   29  C   UNL     1      40.023 -12.879   3.101  1.00  0.00     0.012 A 
BRANCH  27  30
HETATM   30  O   UNL     1      39.146 -10.941   6.148  1.00  0.00    -0.356 OA
HETATM   31  C   UNL     1      39.676 -11.028   7.463  1.00  0.00     0.210 C 
ENDBRANCH  27  30
ENDBRANCH   2  24
TORSDOF 4
ENDMDL
MODEL 6
REMARK VINA RESULT:      -7.9      2.569      5.883
REMARK  4 active torsions:
REMARK  status: ('A' for Active; 'I' for Inactive)
REMARK    1  A    between atoms: C_3  and  N_4 
REMARK       I    between atoms: N_4  and  C_5 
REMARK    2  A    between atoms: C_5  and  C_6 
REMARK    3  A    between atoms: C_7  and  C_8 
REMARK    4  A    between atoms: C_11  and  O_12 
ROOT
HETATM    1  C   UNL     1      41.223 -14.414   2.704  1.00  0.00     0.062 A 
HETATM    2  C   UNL     1      42.659 -14.800   3.031  1.00  0.00     0.202 A 
HETATM    3  N   UNL     1      43.060 -14.299   4.354  1.00  0.00    -0.083 N 
HETATM    4  C   UNL     1      42.261 -13.528   5.154  1.00  0.00     0.726 A 
HETATM    5  N   UNL     1      41.024 -13.203   4.737  1.00  0.00    -0.192 N 
HETATM    6  N   UNL     1      44.292 -14.443   4.886  1.00  0.00    -0.141 NA
HETATM    7  C   UNL     1      44.133 -13.817   6.062  1.00  0.00     0.162 A 
HETATM    8  C   UNL     1      45.192 -13.768   7.089  1.00  0.00     0.096 C 
HETATM    9  N   UNL     1      42.905 -13.227   6.252  1.00  0.00    -0.046 NA
HETATM   10  C   UNL     1      40.476 -13.654   3.542  1.00  0.00     0.037 A 
HETATM   11  C   UNL     1      39.052 -13.234   3.273  1.00  0.00     0.070 C 
HETATM   12  H   UNL     1      40.425 -12.667   5.359  1.00  0.00     0.184 HD
ENDROOT
BRANCH   1  13
HETATM   13  C   UNL     1      40.616 -15.008   1.483  1.00  0.00     0.256 C 
HETATM   14  N   UNL     1      40.815 -14.242   0.355  1.00  0.00    -0.323 N 
HETATM   15  H   UNL     1      41.260 -13.346   0.479  1.00  0.00     0.169 HD
HETATM   16  O   UNL     1      40.002 -16.064   1.579  1.00  0.00    -0.267 OA
BRANCH  14  17
HETATM   17  C   UNL     1      40.434 -14.559  -0.974  1.00  0.00     0.041 A 
HETATM   18  C   UNL     1      39.291 -13.935  -1.524  1.00  0.00    -0.035 A 
HETATM   19  C   UNL     1      38.461 -12.943  -0.755  1.00  0.00     0.050 C 
HETATM   20  C   UNL     1      38.910 -14.233  -2.846  1.00  0.00     0.009 A 
HETATM   21  C   UNL     1      39.641 -15.133  -3.617  1.00  0.00     0.001 A 
HETATM   22  C   UNL     1      40.765 -15.744  -3.078  1.00  0.00     0.002 A 
HETATM   23  C   UNL     1      41.158 -15.457  -1.768  1.00  0.00     0.030 A 
ENDBRANCH  14  17
ENDBRANCH   1  13
BRANCH   2  24
HETATM   24  C   UNL     1      42.940 -16.292   2.913  1.00  0.00    -0.028 A 
HETATM   25  C   UNL     1      43.693 -16.778   1.834  1.00  0.00     0.012 A 
HETATM   26  C   UNL     1      43.953 -18.144   1.707  1.00  0.00     0.037 A 
HETATM   27  C   UNL     1      43.475 -19.051   2.652  1.00  0.00     0.068 A 
HETATM   28  C   UNL     1      42.721 -18.580   3.727  1.00  0.00     0.037 A 
HETATM   29  C   UNL     1      42.455 -17.211   3.858  1.00  0.00     0.012 A 
BRANCH  27  30
HETATM   30  O   UNL     1      43.808 -20.355   2.411  1.00  0.00    -0.356 OA
HETATM   31  C   UNL     1      44.671 -20.980   3.351  1.00  0.00     0.210 C 
ENDBRANCH  27  30
ENDBRANCH   2  24
TORSDOF 4
ENDMDL
MODEL 7
REMARK VINA RESULT:      -7.6      2.368      4.245
REMARK  4 active torsions:
REMARK  status: ('A' for Active; 'I' for Inactive)
REMARK    1  A    between atoms: C_3  and  N_4 
REMARK       I    between atoms: N_4  and  C_5 
REMARK    2  A    between atoms: C_5  and  C_6 
REMARK    3  A    between atoms: C_7  and  C_8 
REMARK    4  A    between atoms: C_11  and  O_12 
ROOT
HETATM    1  C   UNL     1      41.103 -14.759   2.347  1.00  0.00     0.062 A 
HETATM    2  C   UNL     1      40.571 -13.336   2.463  1.00  0.00     0.202 A 
HETATM    3  N   UNL     1      39.257 -13.202   1.818  1.00  0.00    -0.083 N 
HETATM    4  C   UNL     1      38.630 -14.213   1.142  1.00  0.00     0.726 A 
HETATM    5  N   UNL     1      39.221 -15.419   1.058  1.00  0.00    -0.192 N 
HETATM    6  N   UNL     1      38.568 -12.046   1.718  1.00  0.00    -0.141 NA
HETATM    7  C   UNL     1      37.479 -12.459   1.053  1.00  0.00     0.162 A 
HETATM    8  C   UNL     1      36.337 -11.569   0.760  1.00  0.00     0.096 C 
HETATM    9  N   UNL     1      37.492 -13.780   0.667  1.00  0.00    -0.046 NA
HETATM   10  C   UNL     1      40.431 -15.722   1.671  1.00  0.00     0.037 A 
HETATM   11  C   UNL     1      40.907 -17.146   1.514  1.00  0.00     0.070 C 
HETATM   12  H   UNL     1      38.725 -16.174   0.592  1.00  0.00     0.184 HD
ENDROOT
BRANCH   1  13
HETATM   13  C   UNL     1      42.334 -15.094   3.111  1.00  0.00     0.256 C 
HETATM   14  N   UNL     1      42.114 -16.023   4.105  1.00  0.00    -0.323 N 
HETATM   15  H   UNL     1      41.161 -16.308   4.268  1.00  0.00     0.169 HD
HETATM   16  O   UNL     1      43.383 -14.532   2.823  1.00  0.00    -0.267 OA
BRANCH  14  17
HETATM   17  C   UNL     1      43.084 -16.610   4.958  1.00  0.00     0.041 A 
HETATM   18  C   UNL     1      43.599 -17.885   4.631  1.00  0.00    -0.035 A 
HETATM   19  C   UNL     1      43.162 -18.646   3.409  1.00  0.00     0.050 C 
HETATM   20  C   UNL     1      44.571 -18.471   5.463  1.00  0.00     0.009 A 
HETATM   21  C   UNL     1      45.030 -17.816   6.603  1.00  0.00     0.001 A 
HETATM   22  C   UNL     1      44.525 -16.562   6.923  1.00  0.00     0.002 A 
HETATM   23  C   UNL     1      43.562 -15.965   6.106  1.00  0.00     0.030 A 
ENDBRANCH  14  17
ENDBRANCH   1  13
BRANCH   2  24
HETATM   24  C   UNL     1      40.526 -12.810   3.892  1.00  0.00    -0.028 A 
HETATM   25  C   UNL     1      41.350 -11.738   4.267  1.00  0.00     0.012 A 
HETATM   26  C   UNL     1      41.326 -11.247   5.574  1.00  0.00     0.037 A 
HETATM   27  C   UNL     1      40.479 -11.808   6.529  1.00  0.00     0.068 A 
HETATM   28  C   UNL     1      39.659 -12.877   6.169  1.00  0.00     0.037 A 
HETATM   29  C   UNL     1      39.681 -13.375   4.860  1.00  0.00     0.012 A 
BRANCH  27  30
HETATM   30  O   UNL     1      40.551 -11.228   7.766  1.00  0.00    -0.356 OA
HETATM   31  C   UNL     1      39.390 -11.314   8.582  1.00  0.00     0.210 C 
ENDBRANCH  27  30
ENDBRANCH   2  24
TORSDOF 4
ENDMDL
MODEL 8
REMARK VINA RESULT:      -7.6      2.206      7.636
REMARK  4 active torsions:
REMARK  status: ('A' for Active; 'I' for Inactive)
REMARK    1  A    between atoms: C_3  and  N_4 
REMARK       I    between atoms: N_4  and  C_5 
REMARK    2  A    between atoms: C_5  and  C_6 
REMARK    3  A    between atoms: C_7  and  C_8 
REMARK    4  A    between atoms: C_11  and  O_12 
ROOT
HETATM    1  C   UNL     1      43.390 -15.511   4.557  1.00  0.00     0.062 A 
HETATM    2  C   UNL     1      43.308 -16.091   3.152  1.00  0.00     0.202 A 
HETATM    3  N   UNL     1      43.437 -17.555   3.169  1.00  0.00    -0.083 N 
HETATM    4  C   UNL     1      43.670 -18.290   4.300  1.00  0.00     0.726 A 
HETATM    5  N   UNL     1      43.778 -17.662   5.485  1.00  0.00    -0.192 N 
HETATM    6  N   UNL     1      43.455 -18.336   2.068  1.00  0.00    -0.141 NA
HETATM    7  C   UNL     1      43.601 -19.549   2.621  1.00  0.00     0.162 A 
HETATM    8  C   UNL     1      43.587 -20.794   1.828  1.00  0.00     0.096 C 
HETATM    9  N   UNL     1      43.755 -19.556   3.988  1.00  0.00    -0.046 NA
HETATM   10  C   UNL     1      43.614 -16.291   5.643  1.00  0.00     0.037 A 
HETATM   11  C   UNL     1      43.712 -15.777   7.058  1.00  0.00     0.070 C 
HETATM   12  H   UNL     1      43.906 -18.222   6.324  1.00  0.00     0.184 HD
ENDROOT
BRANCH   1  13
HETATM   13  C   UNL     1      43.089 -14.064   4.719  1.00  0.00     0.256 C 
HETATM   14  N   UNL     1      41.904 -13.830   5.382  1.00  0.00    -0.323 N 
HETATM   15  H   UNL     1      41.335 -14.632   5.606  1.00  0.00     0.169 HD
HETATM   16  O   UNL     1      43.869 -13.240   4.257  1.00  0.00    -0.267 OA
BRANCH  14  17
HETATM   17  C   UNL     1      41.369 -12.573   5.763  1.00  0.00     0.041 A 
HETATM   18  C   UNL     1      40.249 -12.067   5.064  1.00  0.00    -0.035 A 
HETATM   19  C   UNL     1      39.598 -12.812   3.930  1.00  0.00     0.050 C 
HETATM   20  C   UNL     1      39.701 -10.827   5.442  1.00  0.00     0.009 A 
HETATM   21  C   UNL     1      40.248 -10.091   6.491  1.00  0.00     0.001 A 
HETATM   22  C   UNL     1      41.346 -10.589   7.179  1.00  0.00     0.002 A 
HETATM   23  C   UNL     1      41.900 -11.820   6.818  1.00  0.00     0.030 A 
ENDBRANCH  14  17
ENDBRANCH   1  13
BRANCH   2  24
HETATM   24  C   UNL     1      42.063 -15.670   2.382  1.00  0.00    -0.028 A 
HETATM   25  C   UNL     1      42.166 -14.718   1.356  1.00  0.00     0.012 A 
HETATM   26  C   UNL     1      41.033 -14.316   0.646  1.00  0.00     0.037 A 
HETATM   27  C   UNL     1      39.780 -14.856   0.937  1.00  0.00     0.068 A 
HETATM   28  C   UNL     1      39.666 -15.799   1.957  1.00  0.00     0.037 A 
HETATM   29  C   UNL     1      40.798 -16.204   2.675  1.00  0.00     0.012 A 
BRANCH  27  30
HETATM   30  O   UNL     1      38.760 -14.379   0.161  1.00  0.00    -0.356 OA
HETATM   31  C   UNL     1      37.541 -14.073   0.824  1.00  0.00     0.210 C 
ENDBRANCH  27  30
ENDBRANCH   2  24
TORSDOF 4
ENDMDL
MODEL 9
REMARK VINA RESULT:      -7.5      2.262      5.314
REMARK  4 active torsions:
REMARK  status: ('A' for Active; 'I' for Inactive)
REMARK    1  A    between atoms: C_3  and  N_4 
REMARK       I    between atoms: N_4  and  C_5 
REMARK    2  A    between atoms: C_5  and  C_6 
REMARK    3  A    between atoms: C_7  and  C_8 
REMARK    4  A    between atoms: C_11  and  O_12 
ROOT
HETATM    1  C   UNL     1      41.049 -14.299   2.493  1.00  0.00     0.062 A 
HETATM    2  C   UNL     1      40.940 -15.325   1.373  1.00  0.00     0.202 A 
HETATM    3  N   UNL     1      41.117 -14.700   0.055  1.00  0.00    -0.083 N 
HETATM    4  C   UNL     1      41.289 -13.356  -0.138  1.00  0.00     0.726 A 
HETATM    5  N   UNL     1      41.316 -12.534   0.927  1.00  0.00    -0.192 N 
HETATM    6  N   UNL     1      41.018 -15.354  -1.122  1.00  0.00    -0.141 NA
HETATM    7  C   UNL     1      41.245 -14.353  -1.986  1.00  0.00     0.162 A 
HETATM    8  C   UNL     1      41.338 -14.564  -3.444  1.00  0.00     0.096 C 
HETATM    9  N   UNL     1      41.396 -13.109  -1.417  1.00  0.00    -0.046 NA
HETATM   10  C   UNL     1      41.230 -12.979   2.240  1.00  0.00     0.037 A 
HETATM   11  C   UNL     1      41.339 -11.914   3.303  1.00  0.00     0.070 C 
HETATM   12  H   UNL     1      41.489 -11.544   0.773  1.00  0.00     0.184 HD
ENDROOT
BRANCH   1  13
HETATM   13  C   UNL     1      41.079 -14.809   3.889  1.00  0.00     0.256 C 
HETATM   14  N   UNL     1      42.315 -15.293   4.261  1.00  0.00    -0.323 N 
HETATM   15  H   UNL     1      43.027 -15.333   3.548  1.00  0.00     0.169 HD
HETATM   16  O   UNL     1      40.051 -14.778   4.555  1.00  0.00    -0.267 OA
BRANCH  14  17
HETATM   17  C   UNL     1      42.697 -15.776   5.538  1.00  0.00     0.041 A 
HETATM   18  C   UNL     1      42.202 -17.027   5.971  1.00  0.00    -0.035 A 
HETATM   19  C   UNL     1      41.285 -17.871   5.127  1.00  0.00     0.050 C 
HETATM   20  C   UNL     1      42.584 -17.523   7.231  1.00  0.00     0.009 A 
HETATM   21  C   UNL     1      43.440 -16.799   8.057  1.00  0.00     0.001 A 
HETATM   22  C   UNL     1      43.929 -15.571   7.631  1.00  0.00     0.002 A 
HETATM   23  C   UNL     1      43.561 -15.066   6.382  1.00  0.00     0.030 A 
ENDBRANCH  14  17
ENDBRANCH   1  13
BRANCH   2  24
HETATM   24  C   UNL     1      41.876 -16.516   1.534  1.00  0.00    -0.028 A 
HETATM   25  C   UNL     1      43.265 -16.321   1.500  1.00  0.00     0.012 A 
HETATM   26  C   UNL     1      44.138 -17.402   1.639  1.00  0.00     0.037 A 
HETATM   27  C   UNL     1      43.646 -18.695   1.821  1.00  0.00     0.068 A 
HETATM   28  C   UNL     1      42.268 -18.901   1.851  1.00  0.00     0.037 A 
HETATM   29  C   UNL     1      41.388 -17.820   1.710  1.00  0.00     0.012 A 
BRANCH  27  30
HETATM   30  O   UNL     1      44.609 -19.658   1.950  1.00  0.00    -0.356 OA
HETATM   31  C   UNL     1      44.535 -20.487   3.102  1.00  0.00     0.210 C 
ENDBRANCH  27  30
ENDBRANCH   2  24
TORSDOF 4
ENDMDL
MODEL 10
REMARK VINA RESULT:      -7.4      2.804      6.034
REMARK  4 active torsions:
REMARK  status: ('A' for Active; 'I' for Inactive)
REMARK    1  A    between atoms: C_3  and  N_4 
REMARK       I    between atoms: N_4  and  C_5 
REMARK    2  A    between atoms: C_5  and  C_6 
REMARK    3  A    between atoms: C_7  and  C_8 
REMARK    4  A    between atoms: C_11  and  O_12 
ROOT
HETATM    1  C   UNL     1      41.437 -16.946   3.099  1.00  0.00     0.062 A 
HETATM    2  C   UNL     1      41.159 -16.370   4.481  1.00  0.00     0.202 A 
HETATM    3  N   UNL     1      42.081 -16.918   5.485  1.00  0.00    -0.083 N 
HETATM    4  C   UNL     1      43.021 -17.876   5.219  1.00  0.00     0.726 A 
HETATM    5  N   UNL     1      43.142 -18.353   3.966  1.00  0.00    -0.192 N 
HETATM    6  N   UNL     1      42.037 -16.630   6.804  1.00  0.00    -0.141 NA
HETATM    7  C   UNL     1      43.053 -17.378   7.259  1.00  0.00     0.162 A 
HETATM    8  C   UNL     1      43.494 -17.351   8.668  1.00  0.00     0.096 C 
HETATM    9  N   UNL     1      43.668 -18.170   6.317  1.00  0.00    -0.046 NA
HETATM   10  C   UNL     1      42.391 -17.889   2.895  1.00  0.00     0.037 A 
HETATM   11  C   UNL     1      42.709 -18.503   1.554  1.00  0.00     0.070 C 
HETATM   12  H   UNL     1      43.874 -19.032   3.772  1.00  0.00     0.184 HD
ENDROOT
BRANCH   1  13
HETATM   13  C   UNL     1      40.710 -16.348   1.948  1.00  0.00     0.256 C 
HETATM   14  N   UNL     1      41.542 -15.688   1.069  1.00  0.00    -0.323 N 
HETATM   15  H   UNL     1      42.513 -15.604   1.328  1.00  0.00     0.169 HD
HETATM   16  O   UNL     1      39.493 -16.467   1.888  1.00  0.00    -0.267 OA
BRANCH  14  17
HETATM   17  C   UNL     1      41.180 -15.079  -0.160  1.00  0.00     0.041 A 
HETATM   18  C   UNL     1      40.862 -13.702  -0.171  1.00  0.00    -0.035 A 
HETATM   19  C   UNL     1      40.896 -12.852   1.070  1.00  0.00     0.050 C 
HETATM   20  C   UNL     1      40.514 -13.084  -1.387  1.00  0.00     0.009 A 
HETATM   21  C   UNL     1      40.475 -13.809  -2.575  1.00  0.00     0.001 A 
HETATM   22  C   UNL     1      40.790 -15.161  -2.564  1.00  0.00     0.002 A 
HETATM   23  C   UNL     1      41.140 -15.790  -1.366  1.00  0.00     0.030 A 
ENDBRANCH  14  17
ENDBRANCH   1  13
BRANCH   2  24
HETATM   24  C   UNL     1      41.160 -14.847   4.525  1.00  0.00    -0.028 A 
HETATM   25  C   UNL     1      42.365 -14.144   4.374  1.00  0.00     0.012 A 
HETATM   26  C   UNL     1      42.384 -12.749   4.418  1.00  0.00     0.037 A 
HETATM   27  C   UNL     1      41.206 -12.027   4.608  1.00  0.00     0.068 A 
HETATM   28  C   UNL     1      40.003 -12.714   4.764  1.00  0.00     0.037 A 
HETATM   29  C   UNL     1      39.979 -14.114   4.723  1.00  0.00     0.012 A 
BRANCH  27  30
HETATM   30  O   UNL     1      41.367 -10.668   4.624  1.00  0.00    -0.356 OA
HETATM   31  C   UNL     1      41.286 -10.029   5.891  1.00  0.00     0.210 C 
ENDBRANCH  27  30
ENDBRANCH   2  24
TORSDOF 4
ENDMDL
