MODEL 1
REMARK VINA RESULT:      -9.8      0.000      0.000
REMARK  7 active torsions:
REMARK  status: ('A' for Active; 'I' for Inactive)
REMARK    1  A    between atoms: C_3  and  C_4 
REMARK    2  A    between atoms: C_4  and  S_5 
REMARK    3  A    between atoms: S_5  and  C_6 
REMARK    4  A    between atoms: C_6  and  C_7 
REMARK    5  A    between atoms: C_16  and  C_17 
REMARK       I    between atoms: C_17  and  N_18 
REMARK    6  A    between atoms: N_18  and  C_19 
REMARK    7  A    between atoms: C_19  and  C_20 
ROOT
HETATM    1  C   UNL     1      41.122 -16.040   3.309  1.00  0.00     0.162 C 
HETATM    2  N   UNL     1      40.256 -14.868   3.027  1.00  0.00    -0.277 NA
HETATM    3  C   UNL     1      40.103 -14.000   4.126  1.00  0.00     0.036 A 
HETATM    4  C   UNL     1      40.246 -14.442   5.453  1.00  0.00     0.057 A 
HETATM    5  N   UNL     1      40.564 -15.783   5.701  1.00  0.00    -0.324 N 
HETATM    6  C   UNL     1      40.867 -16.667   4.694  1.00  0.00     0.240 C 
HETATM    7  O   UNL     1      41.027 -17.861   4.941  1.00  0.00    -0.271 OA
HETATM    8  C   UNL     1      39.659 -12.696   3.895  1.00  0.00     0.027 A 
HETATM    9  C   UNL     1      39.452 -11.821   4.964  1.00  0.00     0.019 A 
HETATM   10  C   UNL     1      39.665 -12.250   6.281  1.00  0.00     0.034 A 
HETATM   11  C   UNL     1      40.031 -13.578   6.529  1.00  0.00     0.048 A 
HETATM   12  H   UNL     1      39.337 -15.158   2.694  1.00  0.00     0.128 HD
HETATM   13  H   UNL     1      40.514 -16.164   6.637  1.00  0.00     0.169 HD
ENDROOT
BRANCH  10  14
HETATM   14  C   UNL     1      39.480 -11.263   7.382  1.00  0.00     0.252 C 
HETATM   15  N   UNL     1      39.981 -11.626   8.613  1.00  0.00    -0.353 N 
HETATM   16  H   UNL     1      40.634 -12.396   8.658  1.00  0.00     0.163 HD
HETATM   17  O   UNL     1      38.951 -10.181   7.157  1.00  0.00    -0.268 OA
BRANCH  15  18
HETATM   18  C   UNL     1      40.069 -10.662   9.688  1.00  0.00     0.163 C 
BRANCH  18  19
HETATM   19  C   UNL     1      41.400 -10.734  10.392  1.00  0.00    -0.019 A 
HETATM   20  C   UNL     1      41.542 -11.191  11.713  1.00  0.00     0.042 A 
HETATM   21 CL   UNL     1      40.180 -11.694  12.653  1.00  0.00    -0.084 Cl
HETATM   22  C   UNL     1      42.801 -11.242  12.320  1.00  0.00     0.024 A 
HETATM   23  C   UNL     1      43.935 -10.840  11.615  1.00  0.00     0.002 A 
HETATM   24  C   UNL     1      43.811 -10.383  10.307  1.00  0.00     0.001 A 
HETATM   25  C   UNL     1      42.555 -10.327   9.701  1.00  0.00     0.010 A 
ENDBRANCH  18  19
ENDBRANCH  15  18
ENDBRANCH  10  14
BRANCH   1  26
HETATM   26  C   UNL     1      40.995 -17.117   2.217  1.00  0.00     0.103 C 
BRANCH  26  27
HETATM   27  S   UNL     1      42.544 -17.536   1.326  1.00  0.00    -0.162 SA
BRANCH  27  28
HETATM   28  C   UNL     1      43.626 -17.898   2.746  1.00  0.00     0.112 C 
BRANCH  28  29
HETATM   29  C   UNL     1      43.933 -19.374   2.864  1.00  0.00    -0.043 A 
HETATM   30  C   UNL     1      44.518 -19.932   4.023  1.00  0.00    -0.055 A 
HETATM   31  C   UNL     1      44.865 -19.098   5.228  1.00  0.00     0.049 C 
HETATM   32  C   UNL     1      44.739 -21.319   4.079  1.00  0.00     0.007 A 
HETATM   33  C   UNL     1      44.417 -22.141   3.000  1.00  0.00     0.001 A 
HETATM   34  C   UNL     1      43.869 -21.589   1.847  1.00  0.00     0.001 A 
HETATM   35  C   UNL     1      43.630 -20.217   1.779  1.00  0.00     0.008 A 
ENDBRANCH  28  29
ENDBRANCH  27  28
ENDBRANCH  26  27
ENDBRANCH   1  26
TORSDOF 7
ENDMDL
MODEL 2
REMARK VINA RESULT:      -9.7      5.335      8.732
REMARK  7 active torsions:
REMARK  status: ('A' for Active; 'I' for Inactive)
REMARK    1  A    between atoms: C_3  and  C_4 
REMARK    2  A    between atoms: C_4  and  S_5 
REMARK    3  A    between atoms: S_5  and  C_6 
REMARK    4  A    between atoms: C_6  and  C_7 
REMARK    5  A    between atoms: C_16  and  C_17 
REMARK       I    between atoms: C_17  and  N_18 
REMARK    6  A    between atoms: N_18  and  C_19 
REMARK    7  A    between atoms: C_19  and  C_20 
ROOT
HETATM    1  C   UNL     1      43.265 -16.990   5.230  1.00  0.00     0.162 C 
HETATM    2  N   UNL     1      42.149 -17.332   4.315  1.00  0.00    -0.277 NA
HETATM    3  C   UNL     1      42.041 -16.471   3.205  1.00  0.00     0.036 A 
HETATM    4  C   UNL     1      42.520 -15.149   3.237  1.00  0.00     0.057 A 
HETATM    5  N   UNL     1      43.136 -14.667   4.399  1.00  0.00    -0.324 N 
HETATM    6  C   UNL     1      43.408 -15.474   5.477  1.00  0.00     0.240 C 
HETATM    7  O   UNL     1      43.843 -14.992   6.521  1.00  0.00    -0.271 OA
HETATM    8  C   UNL     1      41.314 -16.896   2.092  1.00  0.00     0.027 A 
HETATM    9  C   UNL     1      41.147 -16.052   0.992  1.00  0.00     0.019 A 
HETATM   10  C   UNL     1      41.689 -14.759   1.004  1.00  0.00     0.034 A 
HETATM   11  C   UNL     1      42.349 -14.293   2.147  1.00  0.00     0.048 A 
HETATM   12  H   UNL     1      41.257 -17.358   4.811  1.00  0.00     0.128 HD
HETATM   13  H   UNL     1      43.342 -13.683   4.507  1.00  0.00     0.169 HD
ENDROOT
BRANCH  10  14
HETATM   14  C   UNL     1      41.527 -13.917  -0.214  1.00  0.00     0.252 C 
HETATM   15  N   UNL     1      41.811 -14.527  -1.416  1.00  0.00    -0.353 N 
HETATM   16  H   UNL     1      41.877 -15.535  -1.440  1.00  0.00     0.163 HD
HETATM   17  O   UNL     1      41.116 -12.767  -0.118  1.00  0.00    -0.268 OA
BRANCH  15  18
HETATM   18  C   UNL     1      41.469 -13.889  -2.669  1.00  0.00     0.163 C 
BRANCH  18  19
HETATM   19  C   UNL     1      40.101 -14.303  -3.148  1.00  0.00    -0.019 A 
HETATM   20  C   UNL     1      39.006 -13.424  -3.185  1.00  0.00     0.042 A 
HETATM   21 CL   UNL     1      39.139 -11.783  -2.658  1.00  0.00    -0.084 Cl
HETATM   22  C   UNL     1      37.757 -13.858  -3.643  1.00  0.00     0.024 A 
HETATM   23  C   UNL     1      37.587 -15.173  -4.072  1.00  0.00     0.002 A 
HETATM   24  C   UNL     1      38.661 -16.057  -4.040  1.00  0.00     0.001 A 
HETATM   25  C   UNL     1      39.906 -15.628  -3.579  1.00  0.00     0.010 A 
ENDBRANCH  18  19
ENDBRANCH  15  18
ENDBRANCH  10  14
BRANCH   1  26
HETATM   26  C   UNL     1      43.145 -17.728   6.575  1.00  0.00     0.103 C 
BRANCH  26  27
HETATM   27  S   UNL     1      43.658 -19.491   6.565  1.00  0.00    -0.162 SA
BRANCH  27  28
HETATM   28  C   UNL     1      44.954 -19.426   5.287  1.00  0.00     0.112 C 
BRANCH  28  29
HETATM   29  C   UNL     1      44.597 -20.255   4.074  1.00  0.00    -0.043 A 
HETATM   30  C   UNL     1      44.757 -21.659   4.045  1.00  0.00    -0.055 A 
HETATM   31  C   UNL     1      45.284 -22.430   5.227  1.00  0.00     0.049 C 
HETATM   32  C   UNL     1      44.367 -22.370   2.898  1.00  0.00     0.007 A 
HETATM   33  C   UNL     1      43.854 -21.708   1.783  1.00  0.00     0.001 A 
HETATM   34  C   UNL     1      43.723 -20.323   1.798  1.00  0.00     0.001 A 
HETATM   35  C   UNL     1      44.092 -19.603   2.934  1.00  0.00     0.008 A 
ENDBRANCH  28  29
ENDBRANCH  27  28
ENDBRANCH  26  27
ENDBRANCH   1  26
TORSDOF 7
ENDMDL
MODEL 3
REMARK VINA RESULT:      -9.7      3.779      9.786
REMARK  7 active torsions:
REMARK  status: ('A' for Active; 'I' for Inactive)
REMARK    1  A    between atoms: C_3  and  C_4 
REMARK    2  A    between atoms: C_4  and  S_5 
REMARK    3  A    between atoms: S_5  and  C_6 
REMARK    4  A    between atoms: C_6  and  C_7 
REMARK    5  A    between atoms: C_16  and  C_17 
REMARK       I    between atoms: C_17  and  N_18 
REMARK    6  A    between atoms: N_18  and  C_19 
REMARK    7  A    between atoms: C_19  and  C_20 
ROOT
HETATM    1  C   UNL     1      40.691 -11.819   5.969  1.00  0.00     0.162 C 
HETATM    2  N   UNL     1      41.582 -12.897   6.466  1.00  0.00    -0.277 NA
HETATM    3  C   UNL     1      41.791 -13.934   5.536  1.00  0.00     0.036 A 
HETATM    4  C   UNL     1      40.859 -14.228   4.523  1.00  0.00     0.057 A 
HETATM    5  N   UNL     1      39.690 -13.463   4.421  1.00  0.00    -0.324 N 
HETATM    6  C   UNL     1      39.468 -12.350   5.194  1.00  0.00     0.240 C 
HETATM    7  O   UNL     1      38.383 -11.774   5.156  1.00  0.00    -0.271 OA
HETATM    8  C   UNL     1      42.886 -14.782   5.709  1.00  0.00     0.027 A 
HETATM    9  C   UNL     1      43.099 -15.849   4.833  1.00  0.00     0.019 A 
HETATM   10  C   UNL     1      42.203 -16.092   3.784  1.00  0.00     0.034 A 
HETATM   11  C   UNL     1      41.058 -15.298   3.649  1.00  0.00     0.048 A 
HETATM   12  H   UNL     1      41.235 -13.292   7.341  1.00  0.00     0.128 HD
HETATM   13  H   UNL     1      38.935 -13.750   3.813  1.00  0.00     0.169 HD
ENDROOT
BRANCH  10  14
HETATM   14  C   UNL     1      42.503 -17.211   2.846  1.00  0.00     0.252 C 
HETATM   15  N   UNL     1      43.737 -17.806   2.987  1.00  0.00    -0.353 N 
HETATM   16  H   UNL     1      44.261 -17.632   3.834  1.00  0.00     0.163 HD
HETATM   17  O   UNL     1      41.658 -17.584   2.042  1.00  0.00    -0.268 OA
BRANCH  15  18
HETATM   18  C   UNL     1      44.045 -19.041   2.299  1.00  0.00     0.163 C 
BRANCH  18  19
HETATM   19  C   UNL     1      44.284 -20.172   3.266  1.00  0.00    -0.019 A 
HETATM   20  C   UNL     1      44.389 -21.514   2.862  1.00  0.00     0.042 A 
HETATM   21 CL   UNL     1      44.231 -21.979   1.205  1.00  0.00    -0.084 Cl
HETATM   22  C   UNL     1      44.616 -22.526   3.800  1.00  0.00     0.024 A 
HETATM   23  C   UNL     1      44.742 -22.213   5.153  1.00  0.00     0.002 A 
HETATM   24  C   UNL     1      44.638 -20.889   5.570  1.00  0.00     0.001 A 
HETATM   25  C   UNL     1      44.409 -19.878   4.636  1.00  0.00     0.010 A 
ENDBRANCH  18  19
ENDBRANCH  15  18
ENDBRANCH  10  14
BRANCH   1  26
HETATM   26  C   UNL     1      40.225 -10.896   7.109  1.00  0.00     0.103 C 
BRANCH  26  27
HETATM   27  S   UNL     1      41.480  -9.714   7.740  1.00  0.00    -0.162 SA
BRANCH  27  28
HETATM   28  C   UNL     1      41.687 -10.358   9.431  1.00  0.00     0.112 C 
BRANCH  28  29
HETATM   29  C   UNL     1      43.108 -10.797   9.702  1.00  0.00    -0.043 A 
HETATM   30  C   UNL     1      43.805 -10.417  10.870  1.00  0.00    -0.055 A 
HETATM   31  C   UNL     1      43.177  -9.557  11.935  1.00  0.00     0.049 C 
HETATM   32  C   UNL     1      45.110 -10.894  11.075  1.00  0.00     0.007 A 
HETATM   33  C   UNL     1      45.732 -11.710  10.131  1.00  0.00     0.001 A 
HETATM   34  C   UNL     1      45.059 -12.062   8.966  1.00  0.00     0.001 A 
HETATM   35  C   UNL     1      43.757 -11.608   8.753  1.00  0.00     0.008 A 
ENDBRANCH  28  29
ENDBRANCH  27  28
ENDBRANCH  26  27
ENDBRANCH   1  26
TORSDOF 7
ENDMDL
MODEL 4
REMARK VINA RESULT:      -9.3      2.682      3.383
REMARK  7 active torsions:
REMARK  status: ('A' for Active; 'I' for Inactive)
REMARK    1  A    between atoms: C_3  and  C_4 
REMARK    2  A    between atoms: C_4  and  S_5 
REMARK    3  A    between atoms: S_5  and  C_6 
REMARK    4  A    between atoms: C_6  and  C_7 
REMARK    5  A    between atoms: C_16  and  C_17 
REMARK       I    between atoms: C_17  and  N_18 
REMARK    6  A    between atoms: N_18  and  C_19 
REMARK    7  A    between atoms: C_19  and  C_20 
ROOT
HETATM    1  C   UNL     1      42.183 -15.243   4.102  1.00  0.00     0.162 C 
HETATM    2  N   UNL     1      43.553 -15.124   4.659  1.00  0.00    -0.277 NA
HETATM    3  C   UNL     1      43.639 -14.269   5.776  1.00  0.00     0.036 A 
HETATM    4  C   UNL     1      42.720 -13.227   5.990  1.00  0.00     0.057 A 
HETATM    5  N   UNL     1      41.675 -13.031   5.078  1.00  0.00    -0.324 N 
HETATM    6  C   UNL     1      41.433 -13.898   4.040  1.00  0.00     0.240 C 
HETATM    7  O   UNL     1      40.580 -13.632   3.194  1.00  0.00    -0.271 OA
HETATM    8  C   UNL     1      44.748 -14.372   6.617  1.00  0.00     0.027 A 
HETATM    9  C   UNL     1      44.890 -13.510   7.708  1.00  0.00     0.019 A 
HETATM   10  C   UNL     1      43.931 -12.518   7.954  1.00  0.00     0.034 A 
HETATM   11  C   UNL     1      42.858 -12.353   7.071  1.00  0.00     0.048 A 
HETATM   12  H   UNL     1      44.218 -14.820   3.947  1.00  0.00     0.128 HD
HETATM   13  H   UNL     1      41.101 -12.200   5.116  1.00  0.00     0.169 HD
ENDROOT
BRANCH  10  14
HETATM   14  C   UNL     1      44.102 -11.659   9.159  1.00  0.00     0.252 C 
HETATM   15  N   UNL     1      43.141 -11.789  10.139  1.00  0.00    -0.353 N 
HETATM   16  H   UNL     1      42.531 -12.594  10.109  1.00  0.00     0.163 HD
HETATM   17  O   UNL     1      45.078 -10.926   9.260  1.00  0.00    -0.268 OA
BRANCH  15  18
HETATM   18  C   UNL     1      43.327 -11.187  11.441  1.00  0.00     0.163 C 
BRANCH  18  19
HETATM   19  C   UNL     1      42.071 -10.505  11.922  1.00  0.00    -0.019 A 
HETATM   20  C   UNL     1      42.048  -9.636  13.026  1.00  0.00     0.042 A 
HETATM   21 CL   UNL     1      43.473  -9.293  13.943  1.00  0.00    -0.084 Cl
HETATM   22  C   UNL     1      40.856  -9.026  13.429  1.00  0.00     0.024 A 
HETATM   23  C   UNL     1      39.672  -9.272  12.734  1.00  0.00     0.002 A 
HETATM   24  C   UNL     1      39.678 -10.132  11.640  1.00  0.00     0.001 A 
HETATM   25  C   UNL     1      40.865 -10.745  11.238  1.00  0.00     0.010 A 
ENDBRANCH  18  19
ENDBRANCH  15  18
ENDBRANCH  10  14
BRANCH   1  26
HETATM   26  C   UNL     1      42.190 -15.902   2.711  1.00  0.00     0.103 C 
BRANCH  26  27
HETATM   27  S   UNL     1      42.053 -17.733   2.696  1.00  0.00    -0.162 SA
BRANCH  27  28
HETATM   28  C   UNL     1      43.808 -18.170   2.481  1.00  0.00     0.112 C 
BRANCH  28  29
HETATM   29  C   UNL     1      44.075 -19.623   2.805  1.00  0.00    -0.043 A 
HETATM   30  C   UNL     1      44.579 -20.036   4.058  1.00  0.00    -0.055 A 
HETATM   31  C   UNL     1      44.875 -19.059   5.165  1.00  0.00     0.049 C 
HETATM   32  C   UNL     1      44.765 -21.407   4.304  1.00  0.00     0.007 A 
HETATM   33  C   UNL     1      44.488 -22.356   3.321  1.00  0.00     0.001 A 
HETATM   34  C   UNL     1      44.020 -21.949   2.076  1.00  0.00     0.001 A 
HETATM   35  C   UNL     1      43.815 -20.594   1.820  1.00  0.00     0.008 A 
ENDBRANCH  28  29
ENDBRANCH  27  28
ENDBRANCH  26  27
ENDBRANCH   1  26
TORSDOF 7
ENDMDL
MODEL 5
REMARK VINA RESULT:      -9.3      1.268      1.998
REMARK  7 active torsions:
REMARK  status: ('A' for Active; 'I' for Inactive)
REMARK    1  A    between atoms: C_3  and  C_4 
REMARK    2  A    between atoms: C_4  and  S_5 
REMARK    3  A    between atoms: S_5  and  C_6 
REMARK    4  A    between atoms: C_6  and  C_7 
REMARK    5  A    between atoms: C_16  and  C_17 
REMARK       I    between atoms: C_17  and  N_18 
REMARK    6  A    between atoms: N_18  and  C_19 
REMARK    7  A    between atoms: C_19  and  C_20 
ROOT
HETATM    1  C   UNL     1      42.116 -15.610   3.140  1.00  0.00     0.162 C 
HETATM    2  N   UNL     1      41.660 -14.238   2.806  1.00  0.00    -0.277 NA
HETATM    3  C   UNL     1      41.153 -13.524   3.910  1.00  0.00     0.036 A 
HETATM    4  C   UNL     1      40.606 -14.174   5.031  1.00  0.00     0.057 A 
HETATM    5  N   UNL     1      40.571 -15.573   5.067  1.00  0.00    -0.324 N 
HETATM    6  C   UNL     1      41.165 -16.350   4.102  1.00  0.00     0.240 C 
HETATM    7  O   UNL     1      41.014 -17.570   4.106  1.00  0.00    -0.271 OA
HETATM    8  C   UNL     1      41.064 -12.133   3.828  1.00  0.00     0.027 A 
HETATM    9  C   UNL     1      40.525 -11.396   4.885  1.00  0.00     0.019 A 
HETATM   10  C   UNL     1      40.045 -12.048   6.029  1.00  0.00     0.034 A 
HETATM   11  C   UNL     1      40.055 -13.446   6.088  1.00  0.00     0.048 A 
HETATM   12  H   UNL     1      40.963 -14.249   2.061  1.00  0.00     0.128 HD
HETATM   13  H   UNL     1      40.043 -16.061   5.778  1.00  0.00     0.169 HD
ENDROOT
BRANCH  10  14
HETATM   14  C   UNL     1      39.527 -11.214   7.149  1.00  0.00     0.252 C 
HETATM   15  N   UNL     1      39.803 -11.666   8.421  1.00  0.00    -0.353 N 
HETATM   16  H   UNL     1      40.515 -12.374   8.536  1.00  0.00     0.163 HD
HETATM   17  O   UNL     1      38.936 -10.166   6.916  1.00  0.00    -0.268 OA
BRANCH  15  18
HETATM   18  C   UNL     1      39.558 -10.827   9.574  1.00  0.00     0.163 C 
BRANCH  18  19
HETATM   19  C   UNL     1      40.652 -10.960  10.602  1.00  0.00    -0.019 A 
HETATM   20  C   UNL     1      42.008 -10.737  10.308  1.00  0.00     0.042 A 
HETATM   21 CL   UNL     1      42.534 -10.305   8.719  1.00  0.00    -0.084 Cl
HETATM   22  C   UNL     1      42.985 -10.870  11.300  1.00  0.00     0.024 A 
HETATM   23  C   UNL     1      42.621 -11.226  12.599  1.00  0.00     0.002 A 
HETATM   24  C   UNL     1      41.283 -11.453  12.905  1.00  0.00     0.001 A 
HETATM   25  C   UNL     1      40.307 -11.324  11.916  1.00  0.00     0.010 A 
ENDBRANCH  18  19
ENDBRANCH  15  18
ENDBRANCH  10  14
BRANCH   1  26
HETATM   26  C   UNL     1      42.342 -16.457   1.875  1.00  0.00     0.103 C 
BRANCH  26  27
HETATM   27  S   UNL     1      43.991 -17.253   1.734  1.00  0.00    -0.162 SA
BRANCH  27  28
HETATM   28  C   UNL     1      43.482 -18.998   1.629  1.00  0.00     0.112 C 
BRANCH  28  29
HETATM   29  C   UNL     1      43.958 -19.801   2.818  1.00  0.00    -0.043 A 
HETATM   30  C   UNL     1      44.230 -21.185   2.734  1.00  0.00    -0.055 A 
HETATM   31  C   UNL     1      44.076 -21.956   1.449  1.00  0.00     0.049 C 
HETATM   32  C   UNL     1      44.708 -21.860   3.869  1.00  0.00     0.007 A 
HETATM   33  C   UNL     1      44.887 -21.191   5.079  1.00  0.00     0.001 A 
HETATM   34  C   UNL     1      44.592 -19.835   5.172  1.00  0.00     0.001 A 
HETATM   35  C   UNL     1      44.130 -19.146   4.051  1.00  0.00     0.008 A 
ENDBRANCH  28  29
ENDBRANCH  27  28
ENDBRANCH  26  27
ENDBRANCH   1  26
TORSDOF 7
ENDMDL
MODEL 6
REMARK VINA RESULT:      -9.3      4.939      8.394
REMARK  7 active torsions:
REMARK  status: ('A' for Active; 'I' for Inactive)
REMARK    1  A    between atoms: C_3  and  C_4 
REMARK    2  A    between atoms: C_4  and  S_5 
REMARK    3  A    between atoms: S_5  and  C_6 
REMARK    4  A    between atoms: C_6  and  C_7 
REMARK    5  A    between atoms: C_16  and  C_17 
REMARK       I    between atoms: C_17  and  N_18 
REMARK    6  A    between atoms: N_18  and  C_19 
REMARK    7  A    between atoms: C_19  and  C_20 
ROOT
HETATM    1  C   UNL     1      43.202 -16.346   5.469  1.00  0.00     0.162 C 
HETATM    2  N   UNL     1      41.999 -16.957   4.853  1.00  0.00    -0.277 NA
HETATM    3  C   UNL     1      41.387 -16.146   3.877  1.00  0.00     0.036 A 
HETATM    4  C   UNL     1      41.519 -14.746   3.881  1.00  0.00     0.057 A 
HETATM    5  N   UNL     1      42.289 -14.129   4.875  1.00  0.00    -0.324 N 
HETATM    6  C   UNL     1      43.031 -14.846   5.782  1.00  0.00     0.240 C 
HETATM    7  O   UNL     1      43.601 -14.274   6.709  1.00  0.00    -0.271 OA
HETATM    8  C   UNL     1      40.513 -16.738   2.963  1.00  0.00     0.027 A 
HETATM    9  C   UNL     1      39.854 -15.958   2.009  1.00  0.00     0.019 A 
HETATM   10  C   UNL     1      40.045 -14.570   1.976  1.00  0.00     0.034 A 
HETATM   11  C   UNL     1      40.855 -13.957   2.939  1.00  0.00     0.048 A 
HETATM   12  H   UNL     1      41.309 -17.214   5.561  1.00  0.00     0.128 HD
HETATM   13  H   UNL     1      42.270 -13.126   4.998  1.00  0.00     0.169 HD
ENDROOT
BRANCH  10  14
HETATM   14  C   UNL     1      39.359 -13.790   0.908  1.00  0.00     0.252 C 
HETATM   15  N   UNL     1      40.153 -13.356  -0.132  1.00  0.00    -0.353 N 
HETATM   16  H   UNL     1      41.068 -13.771  -0.243  1.00  0.00     0.163 HD
HETATM   17  O   UNL     1      38.149 -13.607   0.959  1.00  0.00    -0.268 OA
BRANCH  15  18
HETATM   18  C   UNL     1      39.563 -12.799  -1.329  1.00  0.00     0.163 C 
BRANCH  18  19
HETATM   19  C   UNL     1      39.205 -13.874  -2.324  1.00  0.00    -0.019 A 
HETATM   20  C   UNL     1      40.162 -14.545  -3.103  1.00  0.00     0.042 A 
HETATM   21 CL   UNL     1      41.847 -14.170  -2.993  1.00  0.00    -0.084 Cl
HETATM   22  C   UNL     1      39.777 -15.538  -4.009  1.00  0.00     0.024 A 
HETATM   23  C   UNL     1      38.432 -15.876  -4.148  1.00  0.00     0.002 A 
HETATM   24  C   UNL     1      37.470 -15.220  -3.386  1.00  0.00     0.001 A 
HETATM   25  C   UNL     1      37.852 -14.226  -2.484  1.00  0.00     0.010 A 
ENDBRANCH  18  19
ENDBRANCH  15  18
ENDBRANCH  10  14
BRANCH   1  26
HETATM   26  C   UNL     1      43.635 -17.098   6.740  1.00  0.00     0.103 C 
BRANCH  26  27
HETATM   27  S   UNL     1      43.936 -18.898   6.538  1.00  0.00    -0.162 SA
BRANCH  27  28
HETATM   28  C   UNL     1      44.991 -18.868   5.054  1.00  0.00     0.112 C 
BRANCH  28  29
HETATM   29  C   UNL     1      44.676 -20.007   4.110  1.00  0.00    -0.043 A 
HETATM   30  C   UNL     1      44.204 -19.789   2.796  1.00  0.00    -0.055 A 
HETATM   31  C   UNL     1      43.992 -18.406   2.239  1.00  0.00     0.049 C 
HETATM   32  C   UNL     1      43.970 -20.894   1.961  1.00  0.00     0.007 A 
HETATM   33  C   UNL     1      44.168 -22.195   2.419  1.00  0.00     0.001 A 
HETATM   34  C   UNL     1      44.605 -22.413   3.722  1.00  0.00     0.001 A 
HETATM   35  C   UNL     1      44.856 -21.328   4.561  1.00  0.00     0.008 A 
ENDBRANCH  28  29
ENDBRANCH  27  28
ENDBRANCH  26  27
ENDBRANCH   1  26
TORSDOF 7
ENDMDL
MODEL 7
REMARK VINA RESULT:      -9.2      3.756     10.257
REMARK  7 active torsions:
REMARK  status: ('A' for Active; 'I' for Inactive)
REMARK    1  A    between atoms: C_3  and  C_4 
REMARK    2  A    between atoms: C_4  and  S_5 
REMARK    3  A    between atoms: S_5  and  C_6 
REMARK    4  A    between atoms: C_6  and  C_7 
REMARK    5  A    between atoms: C_16  and  C_17 
REMARK       I    between atoms: C_17  and  N_18 
REMARK    6  A    between atoms: N_18  and  C_19 
REMARK    7  A    between atoms: C_19  and  C_20 
ROOT
HETATM    1  C   UNL     1      40.747 -11.570   5.838  1.00  0.00     0.162 C 
HETATM    2  N   UNL     1      41.656 -12.625   6.348  1.00  0.00    -0.277 NA
HETATM    3  C   UNL     1      41.831 -13.702   5.458  1.00  0.00     0.036 A 
HETATM    4  C   UNL     1      40.863 -14.040   4.495  1.00  0.00     0.057 A 
HETATM    5  N   UNL     1      39.691 -13.279   4.402  1.00  0.00    -0.324 N 
HETATM    6  C   UNL     1      39.497 -12.132   5.132  1.00  0.00     0.240 C 
HETATM    7  O   UNL     1      38.411 -11.557   5.109  1.00  0.00    -0.271 OA
HETATM    8  C   UNL     1      42.932 -14.544   5.628  1.00  0.00     0.027 A 
HETATM    9  C   UNL     1      43.113 -15.649   4.793  1.00  0.00     0.019 A 
HETATM   10  C   UNL     1      42.179 -15.937   3.789  1.00  0.00     0.034 A 
HETATM   11  C   UNL     1      41.030 -15.148   3.662  1.00  0.00     0.048 A 
HETATM   12  H   UNL     1      41.342 -12.980   7.252  1.00  0.00     0.128 HD
HETATM   13  H   UNL     1      38.913 -13.592   3.836  1.00  0.00     0.169 HD
ENDROOT
BRANCH  10  14
HETATM   14  C   UNL     1      42.444 -17.096   2.892  1.00  0.00     0.252 C 
HETATM   15  N   UNL     1      43.698 -17.661   2.984  1.00  0.00    -0.353 N 
HETATM   16  H   UNL     1      44.269 -17.434   3.786  1.00  0.00     0.163 HD
HETATM   17  O   UNL     1      41.559 -17.526   2.162  1.00  0.00    -0.268 OA
BRANCH  15  18
HETATM   18  C   UNL     1      43.989 -18.923   2.340  1.00  0.00     0.163 C 
BRANCH  18  19
HETATM   19  C   UNL     1      44.237 -20.017   3.348  1.00  0.00    -0.019 A 
HETATM   20  C   UNL     1      44.396 -21.366   2.988  1.00  0.00     0.042 A 
HETATM   21 CL   UNL     1      44.299 -21.885   1.342  1.00  0.00    -0.084 Cl
HETATM   22  C   UNL     1      44.628 -22.342   3.962  1.00  0.00     0.024 A 
HETATM   23  C   UNL     1      44.706 -21.985   5.308  1.00  0.00     0.002 A 
HETATM   24  C   UNL     1      44.548 -20.654   5.681  1.00  0.00     0.001 A 
HETATM   25  C   UNL     1      44.313 -19.679   4.711  1.00  0.00     0.010 A 
ENDBRANCH  18  19
ENDBRANCH  15  18
ENDBRANCH  10  14
BRANCH   1  26
HETATM   26  C   UNL     1      40.324 -10.596   6.952  1.00  0.00     0.103 C 
BRANCH  26  27
HETATM   27  S   UNL     1      41.666 -10.032   8.070  1.00  0.00    -0.162 SA
BRANCH  27  28
HETATM   28  C   UNL     1      41.165 -10.876   9.603  1.00  0.00     0.112 C 
BRANCH  28  29
HETATM   29  C   UNL     1      41.895 -10.339  10.813  1.00  0.00    -0.043 A 
HETATM   30  C   UNL     1      43.195 -10.770  11.162  1.00  0.00    -0.055 A 
HETATM   31  C   UNL     1      43.949 -11.787  10.348  1.00  0.00     0.049 C 
HETATM   32  C   UNL     1      43.830 -10.198  12.278  1.00  0.00     0.007 A 
HETATM   33  C   UNL     1      43.185  -9.237  13.055  1.00  0.00     0.001 A 
HETATM   34  C   UNL     1      41.895  -8.832  12.730  1.00  0.00     0.001 A 
HETATM   35  C   UNL     1      41.255  -9.379  11.618  1.00  0.00     0.008 A 
ENDBRANCH  28  29
ENDBRANCH  27  28
ENDBRANCH  26  27
ENDBRANCH   1  26
TORSDOF 7
ENDMDL
MODEL 8
REMARK VINA RESULT:      -9.1      6.259     10.145
REMARK  7 active torsions:
REMARK  status: ('A' for Active; 'I' for Inactive)
REMARK    1  A    between atoms: C_3  and  C_4 
REMARK    2  A    between atoms: C_4  and  S_5 
REMARK    3  A    between atoms: S_5  and  C_6 
REMARK    4  A    between atoms: C_6  and  C_7 
REMARK    5  A    between atoms: C_16  and  C_17 
REMARK       I    between atoms: C_17  and  N_18 
REMARK    6  A    between atoms: N_18  and  C_19 
REMARK    7  A    between atoms: C_19  and  C_20 
ROOT
HETATM    1  C   UNL     1      40.081 -13.362  -2.249  1.00  0.00     0.162 C 
HETATM    2  N   UNL     1      39.194 -13.710  -1.112  1.00  0.00    -0.277 NA
HETATM    3  C   UNL     1      39.816 -14.506  -0.130  1.00  0.00     0.036 A 
HETATM    4  C   UNL     1      40.906 -15.343  -0.429  1.00  0.00     0.057 A 
HETATM    5  N   UNL     1      41.405 -15.383  -1.737  1.00  0.00    -0.324 N 
HETATM    6  C   UNL     1      40.953 -14.542  -2.724  1.00  0.00     0.240 C 
HETATM    7  O   UNL     1      41.332 -14.685  -3.885  1.00  0.00    -0.271 OA
HETATM    8  C   UNL     1      39.246 -14.573   1.142  1.00  0.00     0.027 A 
HETATM    9  C   UNL     1      39.809 -15.388   2.127  1.00  0.00     0.019 A 
HETATM   10  C   UNL     1      40.938 -16.165   1.841  1.00  0.00     0.034 A 
HETATM   11  C   UNL     1      41.470 -16.169   0.546  1.00  0.00     0.048 A 
HETATM   12  H   UNL     1      38.342 -14.172  -1.433  1.00  0.00     0.128 HD
HETATM   13  H   UNL     1      42.075 -16.088  -2.015  1.00  0.00     0.169 HD
ENDROOT
BRANCH  10  14
HETATM   14  C   UNL     1      41.531 -16.978   2.940  1.00  0.00     0.252 C 
HETATM   15  N   UNL     1      42.744 -17.573   2.669  1.00  0.00    -0.353 N 
HETATM   16  H   UNL     1      43.269 -17.252   1.867  1.00  0.00     0.163 HD
HETATM   17  O   UNL     1      40.968 -17.049   4.026  1.00  0.00    -0.268 OA
BRANCH  15  18
HETATM   18  C   UNL     1      43.520 -18.185   3.726  1.00  0.00     0.163 C 
BRANCH  18  19
HETATM   19  C   UNL     1      43.869 -19.615   3.402  1.00  0.00    -0.019 A 
HETATM   20  C   UNL     1      44.402 -20.505   4.350  1.00  0.00     0.042 A 
HETATM   21 CL   UNL     1      44.721 -20.016   5.978  1.00  0.00    -0.084 Cl
HETATM   22  C   UNL     1      44.706 -21.824   3.999  1.00  0.00     0.024 A 
HETATM   23  C   UNL     1      44.480 -22.273   2.698  1.00  0.00     0.002 A 
HETATM   24  C   UNL     1      43.955 -21.404   1.747  1.00  0.00     0.001 A 
HETATM   25  C   UNL     1      43.655 -20.086   2.094  1.00  0.00     0.010 A 
ENDBRANCH  18  19
ENDBRANCH  15  18
ENDBRANCH  10  14
BRANCH   1  26
HETATM   26  C   UNL     1      39.286 -12.790  -3.436  1.00  0.00     0.103 C 
BRANCH  26  27
HETATM   27  S   UNL     1      39.614 -11.029  -3.840  1.00  0.00    -0.162 SA
BRANCH  27  28
HETATM   28  C   UNL     1      41.391 -11.128  -4.224  1.00  0.00     0.112 C 
BRANCH  28  29
HETATM   29  C   UNL     1      42.229 -10.338  -3.244  1.00  0.00    -0.043 A 
HETATM   30  C   UNL     1      42.470  -8.955  -3.401  1.00  0.00    -0.055 A 
HETATM   31  C   UNL     1      41.900  -8.166  -4.550  1.00  0.00     0.049 C 
HETATM   32  C   UNL     1      43.225  -8.277  -2.429  1.00  0.00     0.007 A 
HETATM   33  C   UNL     1      43.760  -8.954  -1.334  1.00  0.00     0.001 A 
HETATM   34  C   UNL     1      43.548 -10.321  -1.193  1.00  0.00     0.001 A 
HETATM   35  C   UNL     1      42.790 -11.008  -2.141  1.00  0.00     0.008 A 
ENDBRANCH  28  29
ENDBRANCH  27  28
ENDBRANCH  26  27
ENDBRANCH   1  26
TORSDOF 7
ENDMDL
MODEL 9
REMARK VINA RESULT:      -9.0      1.475      2.320
REMARK  7 active torsions:
REMARK  status: ('A' for Active; 'I' for Inactive)
REMARK    1  A    between atoms: C_3  and  C_4 
REMARK    2  A    between atoms: C_4  and  S_5 
REMARK    3  A    between atoms: S_5  and  C_6 
REMARK    4  A    between atoms: C_6  and  C_7 
REMARK    5  A    between atoms: C_16  and  C_17 
REMARK       I    between atoms: C_17  and  N_18 
REMARK    6  A    between atoms: N_18  and  C_19 
REMARK    7  A    between atoms: C_19  and  C_20 
ROOT
HETATM    1  C   UNL     1      40.393 -15.626   1.828  1.00  0.00     0.162 C 
HETATM    2  N   UNL     1      40.711 -15.894   3.252  1.00  0.00    -0.277 NA
HETATM    3  C   UNL     1      40.435 -14.810   4.108  1.00  0.00     0.036 A 
HETATM    4  C   UNL     1      40.418 -13.481   3.648  1.00  0.00     0.057 A 
HETATM    5  N   UNL     1      40.671 -13.217   2.296  1.00  0.00    -0.324 N 
HETATM    6  C   UNL     1      40.813 -14.217   1.365  1.00  0.00     0.240 C 
HETATM    7  O   UNL     1      41.147 -13.950   0.212  1.00  0.00    -0.271 OA
HETATM    8  C   UNL     1      40.312 -15.049   5.478  1.00  0.00     0.027 A 
HETATM    9  C   UNL     1      40.084 -13.992   6.363  1.00  0.00     0.019 A 
HETATM   10  C   UNL     1      39.999 -12.677   5.886  1.00  0.00     0.034 A 
HETATM   11  C   UNL     1      40.201 -12.416   4.526  1.00  0.00     0.048 A 
HETATM   12  H   UNL     1      41.685 -16.177   3.368  1.00  0.00     0.128 HD
HETATM   13  H   UNL     1      40.824 -12.271   1.972  1.00  0.00     0.169 HD
ENDROOT
BRANCH  10  14
HETATM   14  C   UNL     1      39.703 -11.592   6.863  1.00  0.00     0.252 C 
HETATM   15  N   UNL     1      40.197 -11.770   8.137  1.00  0.00    -0.353 N 
HETATM   16  H   UNL     1      40.908 -12.473   8.282  1.00  0.00     0.163 HD
HETATM   17  O   UNL     1      39.095 -10.590   6.505  1.00  0.00    -0.268 OA
BRANCH  15  18
HETATM   18  C   UNL     1      40.175 -10.687   9.096  1.00  0.00     0.163 C 
BRANCH  18  19
HETATM   19  C   UNL     1      41.430 -10.659   9.931  1.00  0.00    -0.019 A 
HETATM   20  C   UNL     1      41.413 -10.654  11.336  1.00  0.00     0.042 A 
HETATM   21 CL   UNL     1      39.932 -10.659  12.227  1.00  0.00    -0.084 Cl
HETATM   22  C   UNL     1      42.607 -10.632  12.064  1.00  0.00     0.024 A 
HETATM   23  C   UNL     1      43.833 -10.617  11.399  1.00  0.00     0.002 A 
HETATM   24  C   UNL     1      43.867 -10.619  10.008  1.00  0.00     0.001 A 
HETATM   25  C   UNL     1      42.677 -10.637   9.280  1.00  0.00     0.010 A 
ENDBRANCH  18  19
ENDBRANCH  15  18
ENDBRANCH  10  14
BRANCH   1  26
HETATM   26  C   UNL     1      41.011 -16.686   0.899  1.00  0.00     0.103 C 
BRANCH  26  27
HETATM   27  S   UNL     1      42.792 -17.041   1.168  1.00  0.00    -0.162 SA
BRANCH  27  28
HETATM   28  C   UNL     1      42.693 -18.812   1.581  1.00  0.00     0.112 C 
BRANCH  28  29
HETATM   29  C   UNL     1      43.492 -19.152   2.818  1.00  0.00    -0.043 A 
HETATM   30  C   UNL     1      44.128 -20.403   2.986  1.00  0.00    -0.055 A 
HETATM   31  C   UNL     1      44.065 -21.482   1.937  1.00  0.00     0.049 C 
HETATM   32  C   UNL     1      44.888 -20.635   4.145  1.00  0.00     0.007 A 
HETATM   33  C   UNL     1      44.996 -19.664   5.139  1.00  0.00     0.001 A 
HETATM   34  C   UNL     1      44.347 -18.443   4.989  1.00  0.00     0.001 A 
HETATM   35  C   UNL     1      43.600 -18.189   3.839  1.00  0.00     0.008 A 
ENDBRANCH  28  29
ENDBRANCH  27  28
ENDBRANCH  26  27
ENDBRANCH   1  26
TORSDOF 7
ENDMDL
MODEL 10
REMARK VINA RESULT:      -8.9      4.660      7.344
REMARK  7 active torsions:
REMARK  status: ('A' for Active; 'I' for Inactive)
REMARK    1  A    between atoms: C_3  and  C_4 
REMARK    2  A    between atoms: C_4  and  S_5 
REMARK    3  A    between atoms: S_5  and  C_6 
REMARK    4  A    between atoms: C_6  and  C_7 
REMARK    5  A    between atoms: C_16  and  C_17 
REMARK       I    between atoms: C_17  and  N_18 
REMARK    6  A    between atoms: N_18  and  C_19 
REMARK    7  A    between atoms: C_19  and  C_20 
ROOT
HETATM    1  C   UNL     1      43.386 -16.496   6.112  1.00  0.00     0.162 C 
HETATM    2  N   UNL     1      42.007 -16.448   5.567  1.00  0.00    -0.277 NA
HETATM    3  C   UNL     1      41.752 -15.315   4.769  1.00  0.00     0.036 A 
HETATM    4  C   UNL     1      42.469 -14.115   4.925  1.00  0.00     0.057 A 
HETATM    5  N   UNL     1      43.478 -14.037   5.893  1.00  0.00    -0.324 N 
HETATM    6  C   UNL     1      43.888 -15.129   6.618  1.00  0.00     0.240 C 
HETATM    7  O   UNL     1      44.695 -14.998   7.537  1.00  0.00    -0.271 OA
HETATM    8  C   UNL     1      40.664 -15.340   3.895  1.00  0.00     0.027 A 
HETATM    9  C   UNL     1      40.353 -14.219   3.121  1.00  0.00     0.019 A 
HETATM   10  C   UNL     1      41.116 -13.050   3.233  1.00  0.00     0.034 A 
HETATM   11  C   UNL     1      42.159 -12.986   4.165  1.00  0.00     0.048 A 
HETATM   12  H   UNL     1      41.312 -16.502   6.312  1.00  0.00     0.128 HD
HETATM   13  H   UNL     1      43.896 -13.149   6.136  1.00  0.00     0.169 HD
ENDROOT
BRANCH  10  14
HETATM   14  C   UNL     1      40.776 -11.899   2.349  1.00  0.00     0.252 C 
HETATM   15  N   UNL     1      41.797 -11.417   1.560  1.00  0.00    -0.353 N 
HETATM   16  H   UNL     1      42.622 -11.987   1.440  1.00  0.00     0.163 HD
HETATM   17  O   UNL     1      39.630 -11.466   2.316  1.00  0.00    -0.268 OA
BRANCH  15  18
HETATM   18  C   UNL     1      41.528 -10.467   0.502  1.00  0.00     0.163 C 
BRANCH  18  19
HETATM   19  C   UNL     1      41.615 -11.111  -0.858  1.00  0.00    -0.019 A 
HETATM   20  C   UNL     1      42.692 -10.900  -1.736  1.00  0.00     0.042 A 
HETATM   21 CL   UNL     1      44.007  -9.855  -1.327  1.00  0.00    -0.084 Cl
HETATM   22  C   UNL     1      42.726 -11.525  -2.987  1.00  0.00     0.024 A 
HETATM   23  C   UNL     1      41.688 -12.371  -3.376  1.00  0.00     0.002 A 
HETATM   24  C   UNL     1      40.614 -12.589  -2.520  1.00  0.00     0.001 A 
HETATM   25  C   UNL     1      40.576 -11.963  -1.273  1.00  0.00     0.010 A 
ENDBRANCH  18  19
ENDBRANCH  15  18
ENDBRANCH  10  14
BRANCH   1  26
HETATM   26  C   UNL     1      43.520 -17.547   7.228  1.00  0.00     0.103 C 
BRANCH  26  27
HETATM   27  S   UNL     1      43.775 -19.277   6.666  1.00  0.00    -0.162 SA
BRANCH  27  28
HETATM   28  C   UNL     1      44.803 -18.974   5.194  1.00  0.00     0.112 C 
BRANCH  28  29
HETATM   29  C   UNL     1      44.473 -19.924   4.066  1.00  0.00    -0.043 A 
HETATM   30  C   UNL     1      43.838 -19.496   2.879  1.00  0.00    -0.055 A 
HETATM   31  C   UNL     1      43.455 -18.058   2.649  1.00  0.00     0.049 C 
HETATM   32  C   UNL     1      43.598 -20.427   1.855  1.00  0.00     0.007 A 
HETATM   33  C   UNL     1      43.951 -21.767   2.007  1.00  0.00     0.001 A 
HETATM   34  C   UNL     1      44.550 -22.198   3.186  1.00  0.00     0.001 A 
HETATM   35  C   UNL     1      44.808 -21.284   4.207  1.00  0.00     0.008 A 
ENDBRANCH  28  29
ENDBRANCH  27  28
ENDBRANCH  26  27
ENDBRANCH   1  26
TORSDOF 7
ENDMDL
