MODEL 1
REMARK VINA RESULT:      -8.9      0.000      0.000
REMARK  7 active torsions:
REMARK  status: ('A' for Active; 'I' for Inactive)
REMARK    1  A    between atoms: O_2  and  C_3 
REMARK    2  A    between atoms: C_4  and  N_5 
REMARK    3  A    between atoms: N_5  and  C_6 
REMARK    4  A    between atoms: C_8  and  N_9 
REMARK    5  A    between atoms: C_11  and  C_12 
REMARK    6  A    between atoms: C_12  and  N_13 
REMARK    7  A    between atoms: N_17  and  C_18 
ROOT
HETATM    1  C   UNL     1      42.958 -16.985   4.335  1.00  0.00     0.731 A 
HETATM    2  N   UNL     1      42.073 -17.098   5.319  1.00  0.00    -0.031 NA
HETATM    3  C   UNL     1      41.021 -16.299   5.267  1.00  0.00     0.219 A 
HETATM    4  N   UNL     1      40.831 -15.353   4.356  1.00  0.00    -0.200 NA
HETATM    5  C   UNL     1      41.790 -15.284   3.431  1.00  0.00     0.174 A 
HETATM    6  N   UNL     1      42.858 -16.065   3.377  1.00  0.00    -0.045 NA
ENDROOT
BRANCH   5   7
HETATM    7  C   UNL     1      41.779 -14.056   2.542  1.00  0.00     0.316 C 
BRANCH   7   8
HETATM    8  N   UNL     1      41.871 -14.397   1.043  1.00  0.00    -0.061 N 
HETATM    9  H   UNL     1      42.869 -14.635   0.917  1.00  0.00     0.280 HD
HETATM   10  C   UNL     1      41.068 -15.638   0.669  1.00  0.00     0.255 C 
HETATM   11  C   UNL     1      41.313 -15.997  -0.818  1.00  0.00     0.152 C 
HETATM   12  N   UNL     1      41.047 -14.850  -1.715  1.00  0.00    -0.364 N 
HETATM   13  C   UNL     1      41.697 -13.573  -1.332  1.00  0.00     0.152 C 
HETATM   14  C   UNL     1      41.512 -13.217   0.163  1.00  0.00     0.255 C 
BRANCH  12  15
HETATM   15  C   UNL     1      39.870 -14.854  -2.433  1.00  0.00     0.102 A 
HETATM   16  N   UNL     1      39.660 -15.879  -3.279  1.00  0.00    -0.352 N 
HETATM   17  H   UNL     1      40.407 -16.562  -3.376  1.00  0.00     0.166 HD
HETATM   18  C   UNL     1      38.567 -16.007  -4.047  1.00  0.00     0.089 A 
HETATM   19  C   UNL     1      37.570 -15.048  -3.994  1.00  0.00     0.017 A 
HETATM   20  C   UNL     1      37.738 -13.957  -3.152  1.00  0.00     0.005 A 
HETATM   21  C   UNL     1      38.893 -13.853  -2.376  1.00  0.00     0.048 A 
ENDBRANCH  12  15
ENDBRANCH   7   8
ENDBRANCH   5   7
BRANCH   3  22
HETATM   22  N   UNL     1      40.080 -16.413   6.267  1.00  0.00    -0.270 NA
HETATM   23  H   UNL     1      40.522 -16.741   7.120  1.00  0.00     0.127 HD
HETATM   24  H   UNL     1      39.277 -16.956   5.976  1.00  0.00     0.127 HD
ENDBRANCH   3  22
BRANCH   1  25
HETATM   25  N   UNL     1      44.076 -17.801   4.393  1.00  0.00    -0.185 N 
HETATM   26  H   UNL     1      44.913 -17.320   4.702  1.00  0.00     0.184 HD
BRANCH  25  27
HETATM   27  C   UNL     1      44.239 -19.191   4.239  1.00  0.00     0.084 A 
HETATM   28  C   UNL     1      44.586 -19.969   5.368  1.00  0.00     0.095 A 
HETATM   29  C   UNL     1      44.764 -21.351   5.244  1.00  0.00     0.041 A 
HETATM   30  C   UNL     1      44.632 -21.965   3.998  1.00  0.00     0.026 A 
HETATM   31  C   UNL     1      44.326 -21.199   2.879  1.00  0.00     0.036 A 
HETATM   32  C   UNL     1      44.136 -19.822   2.993  1.00  0.00     0.056 A 
HETATM   33 CL   UNL     1      44.177 -21.948   1.337  1.00  0.00    -0.084 Cl
BRANCH  28  34
HETATM   34  O   UNL     1      44.716 -19.268   6.545  1.00  0.00    -0.354 OA
HETATM   35  C   UNL     1      43.737 -19.523   7.548  1.00  0.00     0.210 C 
ENDBRANCH  28  34
ENDBRANCH  25  27
ENDBRANCH   1  25
TORSDOF 7
ENDMDL
MODEL 2
REMARK VINA RESULT:      -8.4      5.825      8.878
REMARK  7 active torsions:
REMARK  status: ('A' for Active; 'I' for Inactive)
REMARK    1  A    between atoms: O_2  and  C_3 
REMARK    2  A    between atoms: C_4  and  N_5 
REMARK    3  A    between atoms: N_5  and  C_6 
REMARK    4  A    between atoms: C_8  and  N_9 
REMARK    5  A    between atoms: C_11  and  C_12 
REMARK    6  A    between atoms: C_12  and  N_13 
REMARK    7  A    between atoms: N_17  and  C_18 
ROOT
HETATM    1  C   UNL     1      41.670 -10.977   7.321  1.00  0.00     0.731 A 
HETATM    2  N   UNL     1      40.489 -10.527   6.914  1.00  0.00    -0.031 NA
HETATM    3  C   UNL     1      39.927 -11.161   5.900  1.00  0.00     0.219 A 
HETATM    4  N   UNL     1      40.489 -12.154   5.221  1.00  0.00    -0.200 NA
HETATM    5  C   UNL     1      41.692 -12.513   5.673  1.00  0.00     0.174 A 
HETATM    6  N   UNL     1      42.317 -11.965   6.705  1.00  0.00    -0.045 NA
ENDROOT
BRANCH   5   7
HETATM    7  C   UNL     1      42.499 -13.433   4.778  1.00  0.00     0.316 C 
BRANCH   7   8
HETATM    8  N   UNL     1      42.245 -14.925   5.062  1.00  0.00    -0.061 N 
HETATM    9  H   UNL     1      41.505 -14.905   5.784  1.00  0.00     0.280 HD
HETATM   10  C   UNL     1      41.672 -15.667   3.859  1.00  0.00     0.255 C 
HETATM   11  C   UNL     1      41.320 -17.122   4.256  1.00  0.00     0.152 C 
HETATM   12  N   UNL     1      42.471 -17.824   4.867  1.00  0.00    -0.364 N 
HETATM   13  C   UNL     1      43.158 -17.095   5.961  1.00  0.00     0.152 C 
HETATM   14  C   UNL     1      43.474 -15.621   5.610  1.00  0.00     0.255 C 
BRANCH  12  15
HETATM   15  C   UNL     1      43.154 -18.737   4.090  1.00  0.00     0.102 A 
HETATM   16  N   UNL     1      44.111 -19.470   4.688  1.00  0.00    -0.352 N 
HETATM   17  H   UNL     1      44.307 -19.269   5.665  1.00  0.00     0.166 HD
HETATM   18  C   UNL     1      44.860 -20.386   4.055  1.00  0.00     0.089 A 
HETATM   19  C   UNL     1      44.667 -20.621   2.704  1.00  0.00     0.017 A 
HETATM   20  C   UNL     1      43.704 -19.882   2.029  1.00  0.00     0.005 A 
HETATM   21  C   UNL     1      42.952 -18.931   2.719  1.00  0.00     0.048 A 
ENDBRANCH  12  15
ENDBRANCH   7   8
ENDBRANCH   5   7
BRANCH   3  22
HETATM   22  N   UNL     1      38.693 -10.723   5.474  1.00  0.00    -0.270 NA
HETATM   23  H   UNL     1      38.803 -10.112   4.669  1.00  0.00     0.127 HD
HETATM   24  H   UNL     1      38.146 -10.327   6.227  1.00  0.00     0.127 HD
ENDBRANCH   3  22
BRANCH   1  25
HETATM   25  N   UNL     1      42.278 -10.305   8.368  1.00  0.00    -0.185 N 
HETATM   26  H   UNL     1      42.513  -9.343   8.149  1.00  0.00     0.184 HD
BRANCH  25  27
HETATM   27  C   UNL     1      42.503 -10.656   9.713  1.00  0.00     0.084 A 
HETATM   28  C   UNL     1      43.831 -10.864  10.153  1.00  0.00     0.095 A 
HETATM   29  C   UNL     1      44.084 -11.223  11.482  1.00  0.00     0.041 A 
HETATM   30  C   UNL     1      43.025 -11.410  12.371  1.00  0.00     0.026 A 
HETATM   31  C   UNL     1      41.717 -11.241  11.934  1.00  0.00     0.036 A 
HETATM   32  C   UNL     1      41.453 -10.873  10.614  1.00  0.00     0.056 A 
HETATM   33 CL   UNL     1      40.406 -11.485  13.021  1.00  0.00    -0.084 Cl
BRANCH  28  34
HETATM   34  O   UNL     1      44.801 -10.680   9.196  1.00  0.00    -0.354 OA
HETATM   35  C   UNL     1      45.611 -11.810   8.886  1.00  0.00     0.210 C 
ENDBRANCH  28  34
ENDBRANCH  25  27
ENDBRANCH   1  25
TORSDOF 7
ENDMDL
MODEL 3
REMARK VINA RESULT:      -8.3      6.608      8.904
REMARK  7 active torsions:
REMARK  status: ('A' for Active; 'I' for Inactive)
REMARK    1  A    between atoms: O_2  and  C_3 
REMARK    2  A    between atoms: C_4  and  N_5 
REMARK    3  A    between atoms: N_5  and  C_6 
REMARK    4  A    between atoms: C_8  and  N_9 
REMARK    5  A    between atoms: C_11  and  C_12 
REMARK    6  A    between atoms: C_12  and  N_13 
REMARK    7  A    between atoms: N_17  and  C_18 
ROOT
HETATM    1  C   UNL     1      44.702 -11.453   9.277  1.00  0.00     0.731 A 
HETATM    2  N   UNL     1      45.954 -11.091   9.023  1.00  0.00    -0.031 NA
HETATM    3  C   UNL     1      46.607 -11.800   8.118  1.00  0.00     0.219 A 
HETATM    4  N   UNL     1      46.130 -12.879   7.511  1.00  0.00    -0.200 NA
HETATM    5  C   UNL     1      44.881 -13.193   7.857  1.00  0.00     0.174 A 
HETATM    6  N   UNL     1      44.134 -12.523   8.723  1.00  0.00    -0.045 NA
ENDROOT
BRANCH   5   7
HETATM    7  C   UNL     1      44.387 -14.559   7.423  1.00  0.00     0.316 C 
BRANCH   7   8
HETATM    8  N   UNL     1      43.128 -14.492   6.538  1.00  0.00    -0.061 N 
HETATM    9  H   UNL     1      42.498 -13.870   7.072  1.00  0.00     0.280 HD
HETATM   10  C   UNL     1      43.386 -13.815   5.196  1.00  0.00     0.255 C 
HETATM   11  C   UNL     1      42.056 -13.663   4.417  1.00  0.00     0.152 C 
HETATM   12  N   UNL     1      41.343 -14.954   4.281  1.00  0.00    -0.364 N 
HETATM   13  C   UNL     1      41.174 -15.727   5.536  1.00  0.00     0.152 C 
HETATM   14  C   UNL     1      42.478 -15.849   6.360  1.00  0.00     0.255 C 
BRANCH  12  15
HETATM   15  C   UNL     1      41.398 -15.594   3.061  1.00  0.00     0.102 A 
HETATM   16  N   UNL     1      41.827 -14.881   2.003  1.00  0.00    -0.352 N 
HETATM   17  H   UNL     1      42.036 -13.898   2.159  1.00  0.00     0.166 HD
HETATM   18  C   UNL     1      41.920 -15.369   0.757  1.00  0.00     0.089 A 
HETATM   19  C   UNL     1      41.564 -16.684   0.502  1.00  0.00     0.017 A 
HETATM   20  C   UNL     1      41.098 -17.464   1.552  1.00  0.00     0.005 A 
HETATM   21  C   UNL     1      41.005 -16.917   2.832  1.00  0.00     0.048 A 
ENDBRANCH  12  15
ENDBRANCH   7   8
ENDBRANCH   5   7
BRANCH   3  22
HETATM   22  N   UNL     1      47.901 -11.429   7.824  1.00  0.00    -0.270 NA
HETATM   23  H   UNL     1      47.898 -10.696   7.121  1.00  0.00     0.127 HD
HETATM   24  H   UNL     1      48.484 -12.223   7.597  1.00  0.00     0.127 HD
ENDBRANCH   3  22
BRANCH   1  25
HETATM   25  N   UNL     1      44.018 -10.732  10.241  1.00  0.00    -0.185 N 
HETATM   26  H   UNL     1      44.603 -10.082  10.753  1.00  0.00     0.184 HD
BRANCH  25  27
HETATM   27  C   UNL     1      42.647 -10.631  10.548  1.00  0.00     0.084 A 
HETATM   28  C   UNL     1      42.252 -10.556  11.904  1.00  0.00     0.095 A 
HETATM   29  C   UNL     1      40.897 -10.464  12.239  1.00  0.00     0.041 A 
HETATM   30  C   UNL     1      39.925 -10.477  11.237  1.00  0.00     0.026 A 
HETATM   31  C   UNL     1      40.307 -10.585   9.905  1.00  0.00     0.036 A 
HETATM   32  C   UNL     1      41.655 -10.668   9.559  1.00  0.00     0.056 A 
HETATM   33 CL   UNL     1      39.113 -10.618   8.667  1.00  0.00    -0.084 Cl
BRANCH  28  34
HETATM   34  O   UNL     1      43.282 -10.575  12.815  1.00  0.00    -0.354 OA
HETATM   35  C   UNL     1      43.342  -9.482  13.728  1.00  0.00     0.210 C 
ENDBRANCH  28  34
ENDBRANCH  25  27
ENDBRANCH   1  25
TORSDOF 7
ENDMDL
MODEL 4
REMARK VINA RESULT:      -8.3      1.930      2.779
REMARK  7 active torsions:
REMARK  status: ('A' for Active; 'I' for Inactive)
REMARK    1  A    between atoms: O_2  and  C_3 
REMARK    2  A    between atoms: C_4  and  N_5 
REMARK    3  A    between atoms: N_5  and  C_6 
REMARK    4  A    between atoms: C_8  and  N_9 
REMARK    5  A    between atoms: C_11  and  C_12 
REMARK    6  A    between atoms: C_12  and  N_13 
REMARK    7  A    between atoms: N_17  and  C_18 
ROOT
HETATM    1  C   UNL     1      42.624 -16.641   4.456  1.00  0.00     0.731 A 
HETATM    2  N   UNL     1      41.901 -17.136   5.453  1.00  0.00    -0.031 NA
HETATM    3  C   UNL     1      40.832 -16.447   5.812  1.00  0.00     0.219 A 
HETATM    4  N   UNL     1      40.480 -15.273   5.303  1.00  0.00    -0.200 NA
HETATM    5  C   UNL     1      41.286 -14.832   4.336  1.00  0.00     0.174 A 
HETATM    6  N   UNL     1      42.356 -15.469   3.882  1.00  0.00    -0.045 NA
ENDROOT
BRANCH   5   7
HETATM    7  C   UNL     1      41.107 -13.386   3.919  1.00  0.00     0.316 C 
BRANCH   7   8
HETATM    8  N   UNL     1      40.194 -13.222   2.689  1.00  0.00    -0.061 N 
HETATM    9  H   UNL     1      39.509 -12.512   2.998  1.00  0.00     0.280 HD
HETATM   10  C   UNL     1      40.924 -12.640   1.484  1.00  0.00     0.255 C 
HETATM   11  C   UNL     1      39.921 -12.380   0.334  1.00  0.00     0.152 C 
HETATM   12  N   UNL     1      39.136 -13.590  -0.001  1.00  0.00    -0.364 N 
HETATM   13  C   UNL     1      38.504 -14.282   1.149  1.00  0.00     0.152 C 
HETATM   14  C   UNL     1      39.473 -14.507   2.335  1.00  0.00     0.255 C 
BRANCH  12  15
HETATM   15  C   UNL     1      39.482 -14.287  -1.139  1.00  0.00     0.102 A 
HETATM   16  N   UNL     1      38.551 -14.407  -2.103  1.00  0.00    -0.352 N 
HETATM   17  H   UNL     1      37.630 -14.020  -1.911  1.00  0.00     0.166 HD
HETATM   18  C   UNL     1      38.745 -15.066  -3.256  1.00  0.00     0.089 A 
HETATM   19  C   UNL     1      39.965 -15.672  -3.508  1.00  0.00     0.017 A 
HETATM   20  C   UNL     1      40.959 -15.596  -2.542  1.00  0.00     0.005 A 
HETATM   21  C   UNL     1      40.717 -14.911  -1.351  1.00  0.00     0.048 A 
ENDBRANCH  12  15
ENDBRANCH   7   8
ENDBRANCH   5   7
BRANCH   3  22
HETATM   22  N   UNL     1      40.055 -16.953   6.831  1.00  0.00    -0.270 NA
HETATM   23  H   UNL     1      40.098 -17.967   6.826  1.00  0.00     0.127 HD
HETATM   24  H   UNL     1      39.117 -16.574   6.822  1.00  0.00     0.127 HD
ENDBRANCH   3  22
BRANCH   1  25
HETATM   25  N   UNL     1      43.761 -17.342   4.089  1.00  0.00    -0.185 N 
HETATM   26  H   UNL     1      44.624 -16.846   4.283  1.00  0.00     0.184 HD
BRANCH  25  27
HETATM   27  C   UNL     1      43.950 -18.660   3.630  1.00  0.00     0.084 A 
HETATM   28  C   UNL     1      43.592 -18.980   2.300  1.00  0.00     0.095 A 
HETATM   29  C   UNL     1      43.760 -20.284   1.819  1.00  0.00     0.041 A 
HETATM   30  C   UNL     1      44.252 -21.283   2.661  1.00  0.00     0.026 A 
HETATM   31  C   UNL     1      44.572 -20.980   3.979  1.00  0.00     0.036 A 
HETATM   32  C   UNL     1      44.418 -19.683   4.466  1.00  0.00     0.056 A 
HETATM   33 CL   UNL     1      45.164 -22.210   5.026  1.00  0.00    -0.084 Cl
BRANCH  28  34
HETATM   34  O   UNL     1      43.094 -17.934   1.559  1.00  0.00    -0.354 OA
HETATM   35  C   UNL     1      41.697 -17.959   1.283  1.00  0.00     0.210 C 
ENDBRANCH  28  34
ENDBRANCH  25  27
ENDBRANCH   1  25
TORSDOF 7
ENDMDL
MODEL 5
REMARK VINA RESULT:      -8.3      2.249      2.828
REMARK  7 active torsions:
REMARK  status: ('A' for Active; 'I' for Inactive)
REMARK    1  A    between atoms: O_2  and  C_3 
REMARK    2  A    between atoms: C_4  and  N_5 
REMARK    3  A    between atoms: N_5  and  C_6 
REMARK    4  A    between atoms: C_8  and  N_9 
REMARK    5  A    between atoms: C_11  and  C_12 
REMARK    6  A    between atoms: C_12  and  N_13 
REMARK    7  A    between atoms: N_17  and  C_18 
ROOT
HETATM    1  C   UNL     1      43.655 -16.133   6.125  1.00  0.00     0.731 A 
HETATM    2  N   UNL     1      44.508 -15.474   6.901  1.00  0.00    -0.031 NA
HETATM    3  C   UNL     1      44.306 -14.175   7.038  1.00  0.00     0.219 A 
HETATM    4  N   UNL     1      43.370 -13.481   6.402  1.00  0.00    -0.200 NA
HETATM    5  C   UNL     1      42.586 -14.217   5.613  1.00  0.00     0.174 A 
HETATM    6  N   UNL     1      42.685 -15.527   5.442  1.00  0.00    -0.045 NA
ENDROOT
BRANCH   5   7
HETATM    7  C   UNL     1      41.695 -13.455   4.652  1.00  0.00     0.316 C 
BRANCH   7   8
HETATM    8  N   UNL     1      41.290 -14.285   3.418  1.00  0.00    -0.061 N 
HETATM    9  H   UNL     1      41.393 -15.259   3.747  1.00  0.00     0.280 HD
HETATM   10  C   UNL     1      39.826 -14.098   3.036  1.00  0.00     0.255 C 
HETATM   11  C   UNL     1      39.457 -15.057   1.878  1.00  0.00     0.152 C 
HETATM   12  N   UNL     1      40.374 -14.912   0.724  1.00  0.00    -0.364 N 
HETATM   13  C   UNL     1      41.821 -14.954   1.048  1.00  0.00     0.152 C 
HETATM   14  C   UNL     1      42.208 -14.043   2.238  1.00  0.00     0.255 C 
BRANCH  12  15
HETATM   15  C   UNL     1      39.917 -14.219  -0.377  1.00  0.00     0.102 A 
HETATM   16  N   UNL     1      38.609 -14.318  -0.677  1.00  0.00    -0.352 N 
HETATM   17  H   UNL     1      38.046 -14.940  -0.102  1.00  0.00     0.166 HD
HETATM   18  C   UNL     1      38.030 -13.709  -1.723  1.00  0.00     0.089 A 
HETATM   19  C   UNL     1      38.792 -12.921  -2.570  1.00  0.00     0.017 A 
HETATM   20  C   UNL     1      40.152 -12.795  -2.322  1.00  0.00     0.005 A 
HETATM   21  C   UNL     1      40.720 -13.452  -1.229  1.00  0.00     0.048 A 
ENDBRANCH  12  15
ENDBRANCH   7   8
ENDBRANCH   5   7
BRANCH   3  22
HETATM   22  N   UNL     1      45.167 -13.475   7.854  1.00  0.00    -0.270 NA
HETATM   23  H   UNL     1      44.920 -13.628   8.827  1.00  0.00     0.127 HD
HETATM   24  H   UNL     1      45.238 -12.501   7.590  1.00  0.00     0.127 HD
ENDBRANCH   3  22
BRANCH   1  25
HETATM   25  N   UNL     1      43.872 -17.490   5.956  1.00  0.00    -0.185 N 
HETATM   26  H   UNL     1      43.835 -18.018   6.821  1.00  0.00     0.184 HD
BRANCH  25  27
HETATM   27  C   UNL     1      43.994 -18.290   4.803  1.00  0.00     0.084 A 
HETATM   28  C   UNL     1      44.367 -19.646   4.947  1.00  0.00     0.095 A 
HETATM   29  C   UNL     1      44.505 -20.463   3.819  1.00  0.00     0.041 A 
HETATM   30  C   UNL     1      44.306 -19.934   2.543  1.00  0.00     0.026 A 
HETATM   31  C   UNL     1      43.973 -18.593   2.395  1.00  0.00     0.036 A 
HETATM   32  C   UNL     1      43.823 -17.772   3.513  1.00  0.00     0.056 A 
HETATM   33 CL   UNL     1      43.741 -17.931   0.824  1.00  0.00    -0.084 Cl
BRANCH  28  34
HETATM   34  O   UNL     1      44.564 -20.066   6.242  1.00  0.00    -0.354 OA
HETATM   35  C   UNL     1      43.734 -21.130   6.698  1.00  0.00     0.210 C 
ENDBRANCH  28  34
ENDBRANCH  25  27
ENDBRANCH   1  25
TORSDOF 7
ENDMDL
MODEL 6
REMARK VINA RESULT:      -8.2      6.667      8.885
REMARK  7 active torsions:
REMARK  status: ('A' for Active; 'I' for Inactive)
REMARK    1  A    between atoms: O_2  and  C_3 
REMARK    2  A    between atoms: C_4  and  N_5 
REMARK    3  A    between atoms: N_5  and  C_6 
REMARK    4  A    between atoms: C_8  and  N_9 
REMARK    5  A    between atoms: C_11  and  C_12 
REMARK    6  A    between atoms: C_12  and  N_13 
REMARK    7  A    between atoms: N_17  and  C_18 
ROOT
HETATM    1  C   UNL     1      44.648 -12.588   9.212  1.00  0.00     0.731 A 
HETATM    2  N   UNL     1      45.766 -11.884   9.077  1.00  0.00    -0.031 NA
HETATM    3  C   UNL     1      46.489 -12.118   7.996  1.00  0.00     0.219 A 
HETATM    4  N   UNL     1      46.219 -13.048   7.089  1.00  0.00    -0.200 NA
HETATM    5  C   UNL     1      45.101 -13.735   7.327  1.00  0.00     0.174 A 
HETATM    6  N   UNL     1      44.291 -13.547   8.359  1.00  0.00    -0.045 NA
ENDROOT
BRANCH   5   7
HETATM    7  C   UNL     1      44.891 -14.986   6.497  1.00  0.00     0.316 C 
BRANCH   7   8
HETATM    8  N   UNL     1      43.503 -15.042   5.831  1.00  0.00    -0.061 N 
HETATM    9  H   UNL     1      42.859 -14.828   6.612  1.00  0.00     0.280 HD
HETATM   10  C   UNL     1      43.306 -13.953   4.782  1.00  0.00     0.255 C 
HETATM   11  C   UNL     1      41.851 -13.986   4.254  1.00  0.00     0.152 C 
HETATM   12  N   UNL     1      41.470 -15.330   3.763  1.00  0.00    -0.364 N 
HETATM   13  C   UNL     1      41.757 -16.454   4.688  1.00  0.00     0.152 C 
HETATM   14  C   UNL     1      43.190 -16.415   5.272  1.00  0.00     0.255 C 
BRANCH  12  15
HETATM   15  C   UNL     1      41.434 -15.531   2.399  1.00  0.00     0.102 A 
HETATM   16  N   UNL     1      41.424 -14.441   1.609  1.00  0.00    -0.352 N 
HETATM   17  H   UNL     1      41.392 -13.535   2.069  1.00  0.00     0.166 HD
HETATM   18  C   UNL     1      41.379 -14.486   0.269  1.00  0.00     0.089 A 
HETATM   19  C   UNL     1      41.341 -15.709  -0.380  1.00  0.00     0.017 A 
HETATM   20  C   UNL     1      41.331 -16.869   0.383  1.00  0.00     0.005 A 
HETATM   21  C   UNL     1      41.368 -16.782   1.776  1.00  0.00     0.048 A 
ENDBRANCH  12  15
ENDBRANCH   7   8
ENDBRANCH   5   7
BRANCH   3  22
HETATM   22  N   UNL     1      47.643 -11.385   7.825  1.00  0.00    -0.270 NA
HETATM   23  H   UNL     1      48.421 -12.007   7.627  1.00  0.00     0.127 HD
HETATM   24  H   UNL     1      47.806 -10.744   8.591  1.00  0.00     0.127 HD
ENDBRANCH   3  22
BRANCH   1  25
HETATM   25  N   UNL     1      43.895 -12.368  10.353  1.00  0.00    -0.185 N 
HETATM   26  H   UNL     1      43.838 -13.175  10.964  1.00  0.00     0.184 HD
BRANCH  25  27
HETATM   27  C   UNL     1      43.314 -11.203  10.891  1.00  0.00     0.084 A 
HETATM   28  C   UNL     1      42.519 -10.385  10.055  1.00  0.00     0.095 A 
HETATM   29  C   UNL     1      41.937  -9.217  10.560  1.00  0.00     0.041 A 
HETATM   30  C   UNL     1      42.165  -8.836  11.883  1.00  0.00     0.026 A 
HETATM   31  C   UNL     1      42.974  -9.619  12.699  1.00  0.00     0.036 A 
HETATM   32  C   UNL     1      43.551 -10.790  12.209  1.00  0.00     0.056 A 
HETATM   33 CL   UNL     1      43.271  -9.147  14.326  1.00  0.00    -0.084 Cl
BRANCH  28  34
HETATM   34  O   UNL     1      42.375 -10.832   8.763  1.00  0.00    -0.354 OA
HETATM   35  C   UNL     1      41.562 -10.039   7.903  1.00  0.00     0.210 C 
ENDBRANCH  28  34
ENDBRANCH  25  27
ENDBRANCH   1  25
TORSDOF 7
ENDMDL
MODEL 7
REMARK VINA RESULT:      -8.2      1.663      2.296
REMARK  7 active torsions:
REMARK  status: ('A' for Active; 'I' for Inactive)
REMARK    1  A    between atoms: O_2  and  C_3 
REMARK    2  A    between atoms: C_4  and  N_5 
REMARK    3  A    between atoms: N_5  and  C_6 
REMARK    4  A    between atoms: C_8  and  N_9 
REMARK    5  A    between atoms: C_11  and  C_12 
REMARK    6  A    between atoms: C_12  and  N_13 
REMARK    7  A    between atoms: N_17  and  C_18 
ROOT
HETATM    1  C   UNL     1      40.952 -16.134   5.008  1.00  0.00     0.731 A 
HETATM    2  N   UNL     1      40.474 -15.418   6.019  1.00  0.00    -0.031 NA
HETATM    3  C   UNL     1      40.236 -14.140   5.782  1.00  0.00     0.219 A 
HETATM    4  N   UNL     1      40.510 -13.515   4.644  1.00  0.00    -0.200 NA
HETATM    5  C   UNL     1      41.026 -14.302   3.699  1.00  0.00     0.174 A 
HETATM    6  N   UNL     1      41.263 -15.600   3.828  1.00  0.00    -0.045 NA
ENDROOT
BRANCH   5   7
HETATM    7  C   UNL     1      41.619 -13.603   2.492  1.00  0.00     0.316 C 
BRANCH   7   8
HETATM    8  N   UNL     1      40.571 -13.264   1.416  1.00  0.00    -0.061 N 
HETATM    9  H   UNL     1      40.181 -12.364   1.743  1.00  0.00     0.280 HD
HETATM   10  C   UNL     1      41.192 -13.008   0.047  1.00  0.00     0.255 C 
HETATM   11  C   UNL     1      40.100 -12.544  -0.949  1.00  0.00     0.152 C 
HETATM   12  N   UNL     1      38.962 -13.491  -1.003  1.00  0.00    -0.364 N 
HETATM   13  C   UNL     1      38.394 -13.884   0.309  1.00  0.00     0.152 C 
HETATM   14  C   UNL     1      39.470 -14.302   1.341  1.00  0.00     0.255 C 
BRANCH  12  15
HETATM   15  C   UNL     1      38.880 -14.336  -2.090  1.00  0.00     0.102 A 
HETATM   16  N   UNL     1      39.933 -15.136  -2.338  1.00  0.00    -0.352 N 
HETATM   17  H   UNL     1      40.748 -15.030  -1.738  1.00  0.00     0.166 HD
HETATM   18  C   UNL     1      39.996 -15.998  -3.364  1.00  0.00     0.089 A 
HETATM   19  C   UNL     1      38.932 -16.103  -4.243  1.00  0.00     0.017 A 
HETATM   20  C   UNL     1      37.823 -15.290  -4.048  1.00  0.00     0.005 A 
HETATM   21  C   UNL     1      37.799 -14.398  -2.976  1.00  0.00     0.048 A 
ENDBRANCH  12  15
ENDBRANCH   7   8
ENDBRANCH   5   7
BRANCH   3  22
HETATM   22  N   UNL     1      39.721 -13.382   6.812  1.00  0.00    -0.270 NA
HETATM   23  H   UNL     1      40.142 -12.458   6.803  1.00  0.00     0.127 HD
HETATM   24  H   UNL     1      39.778 -13.858   7.702  1.00  0.00     0.127 HD
ENDBRANCH   3  22
BRANCH   1  25
HETATM   25  N   UNL     1      41.227 -17.469   5.252  1.00  0.00    -0.185 N 
HETATM   26  H   UNL     1      40.399 -18.030   5.420  1.00  0.00     0.184 HD
BRANCH  25  27
HETATM   27  C   UNL     1      42.418 -18.218   5.174  1.00  0.00     0.084 A 
HETATM   28  C   UNL     1      43.181 -18.416   6.348  1.00  0.00     0.095 A 
HETATM   29  C   UNL     1      44.373 -19.148   6.298  1.00  0.00     0.041 A 
HETATM   30  C   UNL     1      44.832 -19.657   5.083  1.00  0.00     0.026 A 
HETATM   31  C   UNL     1      44.103 -19.435   3.921  1.00  0.00     0.036 A 
HETATM   32  C   UNL     1      42.909 -18.716   3.960  1.00  0.00     0.056 A 
HETATM   33 CL   UNL     1      44.671 -20.047   2.417  1.00  0.00    -0.084 Cl
BRANCH  28  34
HETATM   34  O   UNL     1      42.657 -17.854   7.489  1.00  0.00    -0.354 OA
HETATM   35  C   UNL     1      43.450 -16.858   8.128  1.00  0.00     0.210 C 
ENDBRANCH  28  34
ENDBRANCH  25  27
ENDBRANCH   1  25
TORSDOF 7
ENDMDL
MODEL 8
REMARK VINA RESULT:      -8.2      5.353      9.119
REMARK  7 active torsions:
REMARK  status: ('A' for Active; 'I' for Inactive)
REMARK    1  A    between atoms: O_2  and  C_3 
REMARK    2  A    between atoms: C_4  and  N_5 
REMARK    3  A    between atoms: N_5  and  C_6 
REMARK    4  A    between atoms: C_8  and  N_9 
REMARK    5  A    between atoms: C_11  and  C_12 
REMARK    6  A    between atoms: C_12  and  N_13 
REMARK    7  A    between atoms: N_17  and  C_18 
ROOT
HETATM    1  C   UNL     1      42.827 -16.419   6.029  1.00  0.00     0.731 A 
HETATM    2  N   UNL     1      42.830 -17.201   7.103  1.00  0.00    -0.031 NA
HETATM    3  C   UNL     1      43.496 -16.762   8.156  1.00  0.00     0.219 A 
HETATM    4  N   UNL     1      44.215 -15.647   8.189  1.00  0.00    -0.200 NA
HETATM    5  C   UNL     1      44.189 -14.946   7.055  1.00  0.00     0.174 A 
HETATM    6  N   UNL     1      43.520 -15.283   5.962  1.00  0.00    -0.045 NA
ENDROOT
BRANCH   5   7
HETATM    7  C   UNL     1      45.205 -13.828   6.933  1.00  0.00     0.316 C 
BRANCH   7   8
HETATM    8  N   UNL     1      44.775 -12.540   7.662  1.00  0.00    -0.061 N 
HETATM    9  H   UNL     1      45.102 -11.792   7.029  1.00  0.00     0.280 HD
HETATM   10  C   UNL     1      43.260 -12.400   7.768  1.00  0.00     0.255 C 
HETATM   11  C   UNL     1      42.900 -11.028   8.389  1.00  0.00     0.152 C 
HETATM   12  N   UNL     1      43.588 -10.807   9.681  1.00  0.00    -0.364 N 
HETATM   13  C   UNL     1      45.050 -11.054   9.677  1.00  0.00     0.152 C 
HETATM   14  C   UNL     1      45.442 -12.397   9.014  1.00  0.00     0.255 C 
BRANCH  12  15
HETATM   15  C   UNL     1      42.850 -10.955  10.837  1.00  0.00     0.102 A 
HETATM   16  N   UNL     1      41.544 -11.250  10.708  1.00  0.00    -0.352 N 
HETATM   17  H   UNL     1      41.168 -11.295   9.764  1.00  0.00     0.166 HD
HETATM   18  C   UNL     1      40.705 -11.412  11.743  1.00  0.00     0.089 A 
HETATM   19  C   UNL     1      41.174 -11.276  13.039  1.00  0.00     0.017 A 
HETATM   20  C   UNL     1      42.511 -10.954  13.234  1.00  0.00     0.005 A 
HETATM   21  C   UNL     1      43.350 -10.784  12.133  1.00  0.00     0.048 A 
ENDBRANCH  12  15
ENDBRANCH   7   8
ENDBRANCH   5   7
BRANCH   3  22
HETATM   22  N   UNL     1      43.496 -17.548   9.288  1.00  0.00    -0.270 NA
HETATM   23  H   UNL     1      42.958 -18.394   9.120  1.00  0.00     0.127 HD
HETATM   24  H   UNL     1      43.217 -17.033  10.112  1.00  0.00     0.127 HD
ENDBRANCH   3  22
BRANCH   1  25
HETATM   25  N   UNL     1      42.152 -16.880   4.911  1.00  0.00    -0.185 N 
HETATM   26  H   UNL     1      41.168 -16.635   4.902  1.00  0.00     0.184 HD
BRANCH  25  27
HETATM   27  C   UNL     1      42.598 -17.499   3.728  1.00  0.00     0.084 A 
HETATM   28  C   UNL     1      42.203 -16.959   2.482  1.00  0.00     0.095 A 
HETATM   29  C   UNL     1      42.623 -17.558   1.289  1.00  0.00     0.041 A 
HETATM   30  C   UNL     1      43.409 -18.711   1.323  1.00  0.00     0.026 A 
HETATM   31  C   UNL     1      43.771 -19.265   2.545  1.00  0.00     0.036 A 
HETATM   32  C   UNL     1      43.366 -18.670   3.740  1.00  0.00     0.056 A 
HETATM   33 CL   UNL     1      44.727 -20.694   2.594  1.00  0.00    -0.084 Cl
BRANCH  28  34
HETATM   34  O   UNL     1      41.410 -15.838   2.554  1.00  0.00    -0.354 OA
HETATM   35  C   UNL     1      40.152 -15.904   1.887  1.00  0.00     0.210 C 
ENDBRANCH  28  34
ENDBRANCH  25  27
ENDBRANCH   1  25
TORSDOF 7
ENDMDL
MODEL 9
REMARK VINA RESULT:      -8.2      6.148      8.620
REMARK  7 active torsions:
REMARK  status: ('A' for Active; 'I' for Inactive)
REMARK    1  A    between atoms: O_2  and  C_3 
REMARK    2  A    between atoms: C_4  and  N_5 
REMARK    3  A    between atoms: N_5  and  C_6 
REMARK    4  A    between atoms: C_8  and  N_9 
REMARK    5  A    between atoms: C_11  and  C_12 
REMARK    6  A    between atoms: C_12  and  N_13 
REMARK    7  A    between atoms: N_17  and  C_18 
ROOT
HETATM    1  C   UNL     1      41.254 -10.586   7.558  1.00  0.00     0.731 A 
HETATM    2  N   UNL     1      40.366  -9.599   7.515  1.00  0.00    -0.031 NA
HETATM    3  C   UNL     1      39.317  -9.777   6.730  1.00  0.00     0.219 A 
HETATM    4  N   UNL     1      39.133 -10.824   5.936  1.00  0.00    -0.200 NA
HETATM    5  C   UNL     1      40.094 -11.745   6.013  1.00  0.00     0.174 A 
HETATM    6  N   UNL     1      41.160 -11.675   6.797  1.00  0.00    -0.045 NA
ENDROOT
BRANCH   5   7
HETATM    7  C   UNL     1      40.089 -12.813   4.937  1.00  0.00     0.316 C 
BRANCH   7   8
HETATM    8  N   UNL     1      41.433 -13.558   4.822  1.00  0.00    -0.061 N 
HETATM    9  H   UNL     1      42.045 -13.041   5.475  1.00  0.00     0.280 HD
HETATM   10  C   UNL     1      41.356 -14.994   5.329  1.00  0.00     0.255 C 
HETATM   11  C   UNL     1      42.765 -15.637   5.309  1.00  0.00     0.152 C 
HETATM   12  N   UNL     1      43.402 -15.532   3.976  1.00  0.00    -0.364 N 
HETATM   13  C   UNL     1      43.393 -14.180   3.367  1.00  0.00     0.152 C 
HETATM   14  C   UNL     1      42.007 -13.493   3.422  1.00  0.00     0.255 C 
BRANCH  12  15
HETATM   15  C   UNL     1      43.429 -16.662   3.185  1.00  0.00     0.102 A 
HETATM   16  N   UNL     1      43.190 -17.844   3.781  1.00  0.00    -0.352 N 
HETATM   17  H   UNL     1      43.054 -17.838   4.789  1.00  0.00     0.166 HD
HETATM   18  C   UNL     1      43.195 -19.023   3.139  1.00  0.00     0.089 A 
HETATM   19  C   UNL     1      43.457 -19.067   1.780  1.00  0.00     0.017 A 
HETATM   20  C   UNL     1      43.728 -17.879   1.114  1.00  0.00     0.005 A 
HETATM   21  C   UNL     1      43.724 -16.674   1.818  1.00  0.00     0.048 A 
ENDBRANCH  12  15
ENDBRANCH   7   8
ENDBRANCH   5   7
BRANCH   3  22
HETATM   22  N   UNL     1      38.374  -8.774   6.685  1.00  0.00    -0.270 NA
HETATM   23  H   UNL     1      38.605  -8.116   5.947  1.00  0.00     0.127 HD
HETATM   24  H   UNL     1      38.222  -8.350   7.591  1.00  0.00     0.127 HD
ENDBRANCH   3  22
BRANCH   1  25
HETATM   25  N   UNL     1      42.368 -10.400   8.359  1.00  0.00    -0.185 N 
HETATM   26  H   UNL     1      43.109  -9.874   7.908  1.00  0.00     0.184 HD
BRANCH  25  27
HETATM   27  C   UNL     1      42.612 -10.679   9.718  1.00  0.00     0.084 A 
HETATM   28  C   UNL     1      43.948 -10.814  10.160  1.00  0.00     0.095 A 
HETATM   29  C   UNL     1      44.221 -11.100  11.502  1.00  0.00     0.041 A 
HETATM   30  C   UNL     1      43.173 -11.286  12.406  1.00  0.00     0.026 A 
HETATM   31  C   UNL     1      41.857 -11.189  11.968  1.00  0.00     0.036 A 
HETATM   32  C   UNL     1      41.575 -10.894  10.634  1.00  0.00     0.056 A 
HETATM   33 CL   UNL     1      40.561 -11.431  13.073  1.00  0.00    -0.084 Cl
BRANCH  28  34
HETATM   34  O   UNL     1      44.907 -10.638   9.190  1.00  0.00    -0.354 OA
HETATM   35  C   UNL     1      45.755 -11.752   8.924  1.00  0.00     0.210 C 
ENDBRANCH  28  34
ENDBRANCH  25  27
ENDBRANCH   1  25
TORSDOF 7
ENDMDL
MODEL 10
REMARK VINA RESULT:      -8.1      2.003      2.551
REMARK  7 active torsions:
REMARK  status: ('A' for Active; 'I' for Inactive)
REMARK    1  A    between atoms: O_2  and  C_3 
REMARK    2  A    between atoms: C_4  and  N_5 
REMARK    3  A    between atoms: N_5  and  C_6 
REMARK    4  A    between atoms: C_8  and  N_9 
REMARK    5  A    between atoms: C_11  and  C_12 
REMARK    6  A    between atoms: C_12  and  N_13 
REMARK    7  A    between atoms: N_17  and  C_18 
ROOT
HETATM    1  C   UNL     1      42.774 -16.973   4.089  1.00  0.00     0.731 A 
HETATM    2  N   UNL     1      42.522 -16.250   5.173  1.00  0.00    -0.031 NA
HETATM    3  C   UNL     1      41.423 -15.517   5.159  1.00  0.00     0.219 A 
HETATM    4  N   UNL     1      40.606 -15.396   4.120  1.00  0.00    -0.200 NA
HETATM    5  C   UNL     1      40.958 -16.124   3.059  1.00  0.00     0.174 A 
HETATM    6  N   UNL     1      42.017 -16.918   2.993  1.00  0.00    -0.045 NA
ENDROOT
BRANCH   5   7
HETATM    7  C   UNL     1      40.239 -15.813   1.762  1.00  0.00     0.316 C 
BRANCH   7   8
HETATM    8  N   UNL     1      40.343 -14.331   1.355  1.00  0.00    -0.061 N 
HETATM    9  H   UNL     1      40.138 -13.831   2.236  1.00  0.00     0.280 HD
HETATM   10  C   UNL     1      41.754 -13.932   0.936  1.00  0.00     0.255 C 
HETATM   11  C   UNL     1      41.814 -12.408   0.670  1.00  0.00     0.152 C 
HETATM   12  N   UNL     1      40.783 -11.973  -0.300  1.00  0.00    -0.364 N 
HETATM   13  C   UNL     1      39.404 -12.440  -0.020  1.00  0.00     0.152 C 
HETATM   14  C   UNL     1      39.323 -13.952   0.302  1.00  0.00     0.255 C 
BRANCH  12  15
HETATM   15  C   UNL     1      41.188 -11.702  -1.591  1.00  0.00     0.102 A 
HETATM   16  N   UNL     1      40.439 -12.196  -2.594  1.00  0.00    -0.352 N 
HETATM   17  H   UNL     1      39.648 -12.782  -2.339  1.00  0.00     0.166 HD
HETATM   18  C   UNL     1      40.718 -12.021  -3.895  1.00  0.00     0.089 A 
HETATM   19  C   UNL     1      41.835 -11.293  -4.269  1.00  0.00     0.017 A 
HETATM   20  C   UNL     1      42.656 -10.773  -3.277  1.00  0.00     0.005 A 
HETATM   21  C   UNL     1      42.339 -10.985  -1.935  1.00  0.00     0.048 A 
ENDBRANCH  12  15
ENDBRANCH   7   8
ENDBRANCH   5   7
BRANCH   3  22
HETATM   22  N   UNL     1      41.132 -14.774   6.282  1.00  0.00    -0.270 NA
HETATM   23  H   UNL     1      41.592 -13.870   6.226  1.00  0.00     0.127 HD
HETATM   24  H   UNL     1      41.316 -15.285   7.136  1.00  0.00     0.127 HD
ENDBRANCH   3  22
BRANCH   1  25
HETATM   25  N   UNL     1      43.936 -17.726   4.084  1.00  0.00    -0.185 N 
HETATM   26  H   UNL     1      44.773 -17.182   4.265  1.00  0.00     0.184 HD
BRANCH  25  27
HETATM   27  C   UNL     1      44.161 -19.115   4.016  1.00  0.00     0.084 A 
HETATM   28  C   UNL     1      44.575 -19.799   5.183  1.00  0.00     0.095 A 
HETATM   29  C   UNL     1      44.815 -21.177   5.143  1.00  0.00     0.041 A 
HETATM   30  C   UNL     1      44.678 -21.878   3.944  1.00  0.00     0.026 A 
HETATM   31  C   UNL     1      44.306 -21.203   2.787  1.00  0.00     0.036 A 
HETATM   32  C   UNL     1      44.054 -19.831   2.818  1.00  0.00     0.056 A 
HETATM   33 CL   UNL     1      44.150 -22.058   1.303  1.00  0.00    -0.084 Cl
BRANCH  28  34
HETATM   34  O   UNL     1      44.704 -19.017   6.307  1.00  0.00    -0.354 OA
HETATM   35  C   UNL     1      43.771 -19.254   7.356  1.00  0.00     0.210 C 
ENDBRANCH  28  34
ENDBRANCH  25  27
ENDBRANCH   1  25
TORSDOF 7
ENDMDL
