MODEL 1
REMARK VINA RESULT:      -9.1      0.000      0.000
REMARK  7 active torsions:
REMARK  status: ('A' for Active; 'I' for Inactive)
REMARK    1  A    between atoms: C_6  and  O_7 
REMARK    2  A    between atoms: O_7  and  C_8 
REMARK    3  A    between atoms: C_8  and  C_9 
REMARK       I    between atoms: C_9  and  N_10 
REMARK    4  A    between atoms: N_10  and  C_11 
REMARK    5  A    between atoms: C_14  and  N_15 
REMARK    6  A    between atoms: N_18  and  C_20 
REMARK    7  A    between atoms: C_20  and  C_21 
ROOT
HETATM    1  C   UNL     1      39.990 -11.711   6.466  1.00  0.00     0.034 A 
HETATM    2  C   UNL     1      41.362 -11.733   6.215  1.00  0.00     0.032 A 
HETATM    3  C   UNL     1      41.946 -12.810   5.529  1.00  0.00     0.031 A 
HETATM    4  C   UNL     1      41.183 -13.900   5.087  1.00  0.00     0.030 A 
HETATM    5  C   UNL     1      39.802 -13.831   5.293  1.00  0.00     0.031 A 
HETATM    6  C   UNL     1      39.211 -12.754   5.967  1.00  0.00     0.032 A 
ENDROOT
BRANCH   1   7
HETATM    7  N   UNL     1      39.484 -10.672   7.272  1.00  0.00    -0.325 N 
HETATM    8  C   UNL     1      39.299 -10.693   8.644  1.00  0.00     0.246 C 
HETATM    9  O   UNL     1      39.377 -11.681   9.370  1.00  0.00    -0.271 OA
HETATM   10  H   UNL     1      39.281  -9.782   6.825  1.00  0.00     0.169 HD
BRANCH   8  11
HETATM   11  C   UNL     1      39.084  -9.306   9.251  1.00  0.00     0.278 C 
BRANCH  11  12
HETATM   12  O   UNL     1      40.266  -8.511   9.269  1.00  0.00    -0.342 OA
BRANCH  12  13
HETATM   13  C   UNL     1      41.085  -8.739  10.347  1.00  0.00     0.069 A 
HETATM   14  C   UNL     1      42.222  -9.551  10.334  1.00  0.00     0.044 A 
HETATM   15  C   UNL     1      43.003  -9.730  11.491  1.00  0.00    -0.053 A 
HETATM   16  C   UNL     1      42.616  -9.100  12.688  1.00  0.00    -0.056 A 
HETATM   17  C   UNL     1      44.205 -10.634  11.425  1.00  0.00     0.049 C 
HETATM   18  C   UNL     1      43.395  -9.282  13.962  1.00  0.00     0.049 C 
HETATM   19  C   UNL     1      41.494  -8.257  12.683  1.00  0.00     0.010 A 
HETATM   20  C   UNL     1      40.741  -8.074  11.520  1.00  0.00     0.037 A 
ENDBRANCH  12  13
ENDBRANCH  11  12
ENDBRANCH   8  11
ENDBRANCH   1   7
BRANCH   4  21
HETATM   21  N   UNL     1      41.813 -15.023   4.562  1.00  0.00    -0.378 N 
HETATM   22  C   UNL     1      43.195 -14.917   4.079  1.00  0.00     0.150 C 
HETATM   23  C   UNL     1      43.403 -15.929   2.935  1.00  0.00     0.255 C 
HETATM   24  N   UNL     1      43.027 -17.352   3.369  1.00  0.00    -0.064 N 
HETATM   25  H   UNL     1      43.710 -17.632   4.081  1.00  0.00     0.280 HD
HETATM   26  C   UNL     1      41.631 -17.405   4.003  1.00  0.00     0.255 C 
HETATM   27  C   UNL     1      41.452 -16.339   5.105  1.00  0.00     0.150 C 
BRANCH  24  28
HETATM   28  C   UNL     1      43.119 -18.345   2.231  1.00  0.00     0.273 C 
BRANCH  28  29
HETATM   29  C   UNL     1      43.687 -19.681   2.622  1.00  0.00    -0.033 A 
HETATM   30  C   UNL     1      43.557 -20.794   1.778  1.00  0.00     0.009 A 
HETATM   31  C   UNL     1      44.067 -22.033   2.163  1.00  0.00     0.001 A 
HETATM   32  C   UNL     1      44.709 -22.176   3.391  1.00  0.00     0.000 A 
HETATM   33  C   UNL     1      44.847 -21.079   4.237  1.00  0.00     0.001 A 
HETATM   34  C   UNL     1      44.341 -19.837   3.857  1.00  0.00     0.009 A 
ENDBRANCH  28  29
ENDBRANCH  24  28
ENDBRANCH   4  21
TORSDOF 7
ENDMDL
MODEL 2
REMARK VINA RESULT:      -8.8      2.607     10.940
REMARK  7 active torsions:
REMARK  status: ('A' for Active; 'I' for Inactive)
REMARK    1  A    between atoms: C_6  and  O_7 
REMARK    2  A    between atoms: O_7  and  C_8 
REMARK    3  A    between atoms: C_8  and  C_9 
REMARK       I    between atoms: C_9  and  N_10 
REMARK    4  A    between atoms: N_10  and  C_11 
REMARK    5  A    between atoms: C_14  and  N_15 
REMARK    6  A    between atoms: N_18  and  C_20 
REMARK    7  A    between atoms: C_20  and  C_21 
ROOT
HETATM    1  C   UNL     1      41.174 -14.385   4.559  1.00  0.00     0.034 A 
HETATM    2  C   UNL     1      40.093 -14.353   5.441  1.00  0.00     0.032 A 
HETATM    3  C   UNL     1      39.862 -13.228   6.248  1.00  0.00     0.031 A 
HETATM    4  C   UNL     1      40.707 -12.110   6.211  1.00  0.00     0.030 A 
HETATM    5  C   UNL     1      41.747 -12.134   5.278  1.00  0.00     0.031 A 
HETATM    6  C   UNL     1      41.977 -13.250   4.461  1.00  0.00     0.032 A 
ENDROOT
BRANCH   1   7
HETATM    7  N   UNL     1      41.432 -15.588   3.875  1.00  0.00    -0.325 N 
HETATM    8  C   UNL     1      40.821 -16.038   2.718  1.00  0.00     0.246 C 
HETATM    9  O   UNL     1      39.826 -15.551   2.187  1.00  0.00    -0.271 OA
HETATM   10  H   UNL     1      42.186 -16.176   4.219  1.00  0.00     0.169 HD
BRANCH   8  11
HETATM   11  C   UNL     1      41.571 -17.186   2.039  1.00  0.00     0.278 C 
BRANCH  11  12
HETATM   12  O   UNL     1      42.977 -17.151   2.269  1.00  0.00    -0.342 OA
BRANCH  12  13
HETATM   13  C   UNL     1      43.495 -18.316   2.780  1.00  0.00     0.069 A 
HETATM   14  C   UNL     1      43.642 -19.510   2.068  1.00  0.00     0.044 A 
HETATM   15  C   UNL     1      44.183 -20.659   2.675  1.00  0.00    -0.053 A 
HETATM   16  C   UNL     1      44.556 -20.611   4.031  1.00  0.00    -0.056 A 
HETATM   17  C   UNL     1      44.297 -21.923   1.867  1.00  0.00     0.049 C 
HETATM   18  C   UNL     1      45.108 -21.818   4.739  1.00  0.00     0.049 C 
HETATM   19  C   UNL     1      44.440 -19.398   4.728  1.00  0.00     0.010 A 
HETATM   20  C   UNL     1      43.920 -18.260   4.104  1.00  0.00     0.037 A 
ENDBRANCH  12  13
ENDBRANCH  11  12
ENDBRANCH   8  11
ENDBRANCH   1   7
BRANCH   4  21
HETATM   21  N   UNL     1      40.548 -11.086   7.138  1.00  0.00    -0.378 N 
HETATM   22  C   UNL     1      40.827  -9.700   6.742  1.00  0.00     0.150 C 
HETATM   23  C   UNL     1      41.318  -8.917   7.976  1.00  0.00     0.255 C 
HETATM   24  N   UNL     1      40.321  -9.019   9.138  1.00  0.00    -0.064 N 
HETATM   25  H   UNL     1      39.474  -8.521   8.842  1.00  0.00     0.280 HD
HETATM   26  C   UNL     1      39.938 -10.475   9.435  1.00  0.00     0.255 C 
HETATM   27  C   UNL     1      39.505 -11.233   8.162  1.00  0.00     0.150 C 
BRANCH  24  28
HETATM   28  C   UNL     1      40.832  -8.349  10.395  1.00  0.00     0.273 C 
BRANCH  28  29
HETATM   29  C   UNL     1      41.538  -9.276  11.345  1.00  0.00    -0.033 A 
HETATM   30  C   UNL     1      40.870  -9.814  12.456  1.00  0.00     0.009 A 
HETATM   31  C   UNL     1      41.544 -10.653  13.343  1.00  0.00     0.001 A 
HETATM   32  C   UNL     1      42.886 -10.963  13.135  1.00  0.00     0.000 A 
HETATM   33  C   UNL     1      43.560 -10.437  12.036  1.00  0.00     0.001 A 
HETATM   34  C   UNL     1      42.891  -9.599  11.143  1.00  0.00     0.009 A 
ENDBRANCH  28  29
ENDBRANCH  24  28
ENDBRANCH   4  21
TORSDOF 7
ENDMDL
MODEL 3
REMARK VINA RESULT:      -8.3      5.704      9.879
REMARK  7 active torsions:
REMARK  status: ('A' for Active; 'I' for Inactive)
REMARK    1  A    between atoms: C_6  and  O_7 
REMARK    2  A    between atoms: O_7  and  C_8 
REMARK    3  A    between atoms: C_8  and  C_9 
REMARK       I    between atoms: C_9  and  N_10 
REMARK    4  A    between atoms: N_10  and  C_11 
REMARK    5  A    between atoms: C_14  and  N_15 
REMARK    6  A    between atoms: N_18  and  C_20 
REMARK    7  A    between atoms: C_20  and  C_21 
ROOT
HETATM    1  C   UNL     1      42.577 -15.948   4.639  1.00  0.00     0.034 A 
HETATM    2  C   UNL     1      42.659 -14.562   4.507  1.00  0.00     0.032 A 
HETATM    3  C   UNL     1      41.819 -13.878   3.615  1.00  0.00     0.031 A 
HETATM    4  C   UNL     1      40.885 -14.556   2.818  1.00  0.00     0.030 A 
HETATM    5  C   UNL     1      40.775 -15.935   3.008  1.00  0.00     0.031 A 
HETATM    6  C   UNL     1      41.602 -16.624   3.906  1.00  0.00     0.032 A 
ENDROOT
BRANCH   1   7
HETATM    7  N   UNL     1      43.533 -16.591   5.450  1.00  0.00    -0.325 N 
HETATM    8  C   UNL     1      43.293 -17.341   6.589  1.00  0.00     0.246 C 
HETATM    9  O   UNL     1      42.224 -17.427   7.188  1.00  0.00    -0.271 OA
HETATM   10  H   UNL     1      44.504 -16.563   5.151  1.00  0.00     0.169 HD
BRANCH   8  11
HETATM   11  C   UNL     1      44.488 -18.194   7.019  1.00  0.00     0.278 C 
BRANCH  11  12
HETATM   12  O   UNL     1      44.241 -19.594   6.928  1.00  0.00    -0.342 OA
BRANCH  12  13
HETATM   13  C   UNL     1      44.307 -20.098   5.652  1.00  0.00     0.069 A 
HETATM   14  C   UNL     1      44.113 -19.356   4.484  1.00  0.00     0.044 A 
HETATM   15  C   UNL     1      44.198 -19.959   3.215  1.00  0.00    -0.053 A 
HETATM   16  C   UNL     1      44.456 -21.339   3.124  1.00  0.00    -0.056 A 
HETATM   17  C   UNL     1      43.956 -19.116   1.992  1.00  0.00     0.049 C 
HETATM   18  C   UNL     1      44.525 -22.042   1.795  1.00  0.00     0.049 C 
HETATM   19  C   UNL     1      44.687 -22.069   4.300  1.00  0.00     0.010 A 
HETATM   20  C   UNL     1      44.620 -21.451   5.552  1.00  0.00     0.037 A 
ENDBRANCH  12  13
ENDBRANCH  11  12
ENDBRANCH   8  11
ENDBRANCH   1   7
BRANCH   4  21
HETATM   21  N   UNL     1      40.189 -13.871   1.827  1.00  0.00    -0.378 N 
HETATM   22  C   UNL     1      38.750 -14.109   1.659  1.00  0.00     0.150 C 
HETATM   23  C   UNL     1      38.380 -13.900   0.177  1.00  0.00     0.255 C 
HETATM   24  N   UNL     1      38.823 -12.519  -0.323  1.00  0.00    -0.064 N 
HETATM   25  H   UNL     1      38.254 -11.829   0.180  1.00  0.00     0.280 HD
HETATM   26  C   UNL     1      40.297 -12.242  -0.004  1.00  0.00     0.255 C 
HETATM   27  C   UNL     1      40.633 -12.516   1.478  1.00  0.00     0.150 C 
BRANCH  24  28
HETATM   28  C   UNL     1      38.567 -12.333  -1.803  1.00  0.00     0.273 C 
BRANCH  28  29
HETATM   29  C   UNL     1      38.742 -13.583  -2.621  1.00  0.00    -0.033 A 
HETATM   30  C   UNL     1      37.635 -14.245  -3.170  1.00  0.00     0.009 A 
HETATM   31  C   UNL     1      37.810 -15.417  -3.907  1.00  0.00     0.001 A 
HETATM   32  C   UNL     1      39.086 -15.940  -4.100  1.00  0.00     0.000 A 
HETATM   33  C   UNL     1      40.194 -15.292  -3.561  1.00  0.00     0.001 A 
HETATM   34  C   UNL     1      40.026 -14.119  -2.826  1.00  0.00     0.009 A 
ENDBRANCH  28  29
ENDBRANCH  24  28
ENDBRANCH   4  21
TORSDOF 7
ENDMDL
MODEL 4
REMARK VINA RESULT:      -8.3      2.842     10.963
REMARK  7 active torsions:
REMARK  status: ('A' for Active; 'I' for Inactive)
REMARK    1  A    between atoms: C_6  and  O_7 
REMARK    2  A    between atoms: O_7  and  C_8 
REMARK    3  A    between atoms: C_8  and  C_9 
REMARK       I    between atoms: C_9  and  N_10 
REMARK    4  A    between atoms: N_10  and  C_11 
REMARK    5  A    between atoms: C_14  and  N_15 
REMARK    6  A    between atoms: N_18  and  C_20 
REMARK    7  A    between atoms: C_20  and  C_21 
ROOT
HETATM    1  C   UNL     1      40.290 -12.685   3.475  1.00  0.00     0.034 A 
HETATM    2  C   UNL     1      40.288 -13.520   4.592  1.00  0.00     0.032 A 
HETATM    3  C   UNL     1      40.282 -12.981   5.888  1.00  0.00     0.031 A 
HETATM    4  C   UNL     1      40.293 -11.596   6.108  1.00  0.00     0.030 A 
HETATM    5  C   UNL     1      40.232 -10.776   4.979  1.00  0.00     0.031 A 
HETATM    6  C   UNL     1      40.226 -11.307   3.682  1.00  0.00     0.032 A 
ENDROOT
BRANCH   1   7
HETATM    7  N   UNL     1      40.429 -13.280   2.206  1.00  0.00    -0.325 N 
HETATM    8  C   UNL     1      41.606 -13.501   1.512  1.00  0.00     0.246 C 
HETATM    9  O   UNL     1      42.714 -13.056   1.803  1.00  0.00    -0.271 OA
HETATM   10  H   UNL     1      39.592 -13.647   1.761  1.00  0.00     0.169 HD
BRANCH   8  11
HETATM   11  C   UNL     1      41.452 -14.481   0.348  1.00  0.00     0.278 C 
BRANCH  11  12
HETATM   12  O   UNL     1      40.797 -15.692   0.716  1.00  0.00    -0.342 OA
BRANCH  12  13
HETATM   13  C   UNL     1      41.570 -16.548   1.462  1.00  0.00     0.069 A 
HETATM   14  C   UNL     1      41.319 -16.908   2.789  1.00  0.00     0.044 A 
HETATM   15  C   UNL     1      42.169 -17.793   3.477  1.00  0.00    -0.053 A 
HETATM   16  C   UNL     1      43.306 -18.304   2.825  1.00  0.00    -0.056 A 
HETATM   17  C   UNL     1      41.863 -18.127   4.913  1.00  0.00     0.049 C 
HETATM   18  C   UNL     1      44.267 -19.228   3.523  1.00  0.00     0.049 C 
HETATM   19  C   UNL     1      43.530 -17.967   1.481  1.00  0.00     0.010 A 
HETATM   20  C   UNL     1      42.665 -17.103   0.805  1.00  0.00     0.037 A 
ENDBRANCH  12  13
ENDBRANCH  11  12
ENDBRANCH   8  11
ENDBRANCH   1   7
BRANCH   4  21
HETATM   21  N   UNL     1      40.456 -11.098   7.397  1.00  0.00    -0.378 N 
HETATM   22  C   UNL     1      39.476 -11.442   8.435  1.00  0.00     0.150 C 
HETATM   23  C   UNL     1      39.394 -10.282   9.447  1.00  0.00     0.255 C 
HETATM   24  N   UNL     1      40.776  -9.936  10.017  1.00  0.00    -0.064 N 
HETATM   25  H   UNL     1      41.071 -10.742  10.579  1.00  0.00     0.280 HD
HETATM   26  C   UNL     1      41.814  -9.724   8.908  1.00  0.00     0.255 C 
HETATM   27  C   UNL     1      41.822 -10.883   7.889  1.00  0.00     0.150 C 
BRANCH  24  28
HETATM   28  C   UNL     1      40.736  -8.730  10.930  1.00  0.00     0.273 C 
BRANCH  28  29
HETATM   29  C   UNL     1      41.425  -8.933  12.251  1.00  0.00    -0.033 A 
HETATM   30  C   UNL     1      42.805  -9.174  12.314  1.00  0.00     0.009 A 
HETATM   31  C   UNL     1      43.428  -9.385  13.544  1.00  0.00     0.001 A 
HETATM   32  C   UNL     1      42.683  -9.359  14.721  1.00  0.00     0.000 A 
HETATM   33  C   UNL     1      41.312  -9.120  14.673  1.00  0.00     0.001 A 
HETATM   34  C   UNL     1      40.684  -8.907  13.446  1.00  0.00     0.009 A 
ENDBRANCH  28  29
ENDBRANCH  24  28
ENDBRANCH   4  21
TORSDOF 7
ENDMDL
MODEL 5
REMARK VINA RESULT:      -8.3      2.805     10.766
REMARK  7 active torsions:
REMARK  status: ('A' for Active; 'I' for Inactive)
REMARK    1  A    between atoms: C_6  and  O_7 
REMARK    2  A    between atoms: O_7  and  C_8 
REMARK    3  A    between atoms: C_8  and  C_9 
REMARK       I    between atoms: C_9  and  N_10 
REMARK    4  A    between atoms: N_10  and  C_11 
REMARK    5  A    between atoms: C_14  and  N_15 
REMARK    6  A    between atoms: N_18  and  C_20 
REMARK    7  A    between atoms: C_20  and  C_21 
ROOT
HETATM    1  C   UNL     1      40.951 -14.903   4.360  1.00  0.00     0.034 A 
HETATM    2  C   UNL     1      42.150 -14.419   4.885  1.00  0.00     0.032 A 
HETATM    3  C   UNL     1      42.153 -13.360   5.805  1.00  0.00     0.031 A 
HETATM    4  C   UNL     1      40.963 -12.743   6.219  1.00  0.00     0.030 A 
HETATM    5  C   UNL     1      39.769 -13.281   5.732  1.00  0.00     0.031 A 
HETATM    6  C   UNL     1      39.759 -14.346   4.820  1.00  0.00     0.032 A 
ENDROOT
BRANCH   1   7
HETATM    7  N   UNL     1      41.020 -15.875   3.344  1.00  0.00    -0.325 N 
HETATM    8  C   UNL     1      41.481 -15.700   2.050  1.00  0.00     0.246 C 
HETATM    9  O   UNL     1      41.742 -14.627   1.513  1.00  0.00    -0.271 OA
HETATM   10  H   UNL     1      40.764 -16.830   3.583  1.00  0.00     0.169 HD
BRANCH   8  11
HETATM   11  C   UNL     1      41.764 -17.015   1.321  1.00  0.00     0.278 C 
BRANCH  11  12
HETATM   12  O   UNL     1      43.153 -17.324   1.240  1.00  0.00    -0.342 OA
BRANCH  12  13
HETATM   13  C   UNL     1      43.582 -18.245   2.165  1.00  0.00     0.069 A 
HETATM   14  C   UNL     1      43.950 -17.950   3.480  1.00  0.00     0.044 A 
HETATM   15  C   UNL     1      44.381 -18.961   4.360  1.00  0.00    -0.053 A 
HETATM   16  C   UNL     1      44.467 -20.287   3.897  1.00  0.00    -0.056 A 
HETATM   17  C   UNL     1      44.788 -18.582   5.758  1.00  0.00     0.049 C 
HETATM   18  C   UNL     1      44.952 -21.401   4.784  1.00  0.00     0.049 C 
HETATM   19  C   UNL     1      44.059 -20.580   2.587  1.00  0.00     0.010 A 
HETATM   20  C   UNL     1      43.614 -19.567   1.732  1.00  0.00     0.037 A 
ENDBRANCH  12  13
ENDBRANCH  11  12
ENDBRANCH   8  11
ENDBRANCH   1   7
BRANCH   4  21
HETATM   21  N   UNL     1      41.011 -11.593   6.999  1.00  0.00    -0.378 N 
HETATM   22  C   UNL     1      42.312 -11.027   7.375  1.00  0.00     0.150 C 
HETATM   23  C   UNL     1      42.175 -10.322   8.739  1.00  0.00     0.255 C 
HETATM   24  N   UNL     1      41.050  -9.279   8.721  1.00  0.00    -0.064 N 
HETATM   25  H   UNL     1      41.350  -8.535   8.081  1.00  0.00     0.280 HD
HETATM   26  C   UNL     1      39.737  -9.865   8.187  1.00  0.00     0.255 C 
HETATM   27  C   UNL     1      39.933 -10.607   6.847  1.00  0.00     0.150 C 
BRANCH  24  28
HETATM   28  C   UNL     1      40.825  -8.652  10.080  1.00  0.00     0.273 C 
BRANCH  28  29
HETATM   29  C   UNL     1      41.467  -9.397  11.217  1.00  0.00    -0.033 A 
HETATM   30  C   UNL     1      40.820 -10.486  11.820  1.00  0.00     0.009 A 
HETATM   31  C   UNL     1      41.416 -11.153  12.891  1.00  0.00     0.001 A 
HETATM   32  C   UNL     1      42.657 -10.742  13.370  1.00  0.00     0.000 A 
HETATM   33  C   UNL     1      43.310  -9.664  12.780  1.00  0.00     0.001 A 
HETATM   34  C   UNL     1      42.721  -8.994  11.708  1.00  0.00     0.009 A 
ENDBRANCH  28  29
ENDBRANCH  24  28
ENDBRANCH   4  21
TORSDOF 7
ENDMDL
MODEL 6
REMARK VINA RESULT:      -8.2      7.908     12.301
REMARK  7 active torsions:
REMARK  status: ('A' for Active; 'I' for Inactive)
REMARK    1  A    between atoms: C_6  and  O_7 
REMARK    2  A    between atoms: O_7  and  C_8 
REMARK    3  A    between atoms: C_8  and  C_9 
REMARK       I    between atoms: C_9  and  N_10 
REMARK    4  A    between atoms: N_10  and  C_11 
REMARK    5  A    between atoms: C_14  and  N_15 
REMARK    6  A    between atoms: N_18  and  C_20 
REMARK    7  A    between atoms: C_20  and  C_21 
ROOT
HETATM    1  C   UNL     1      41.074 -15.144  -0.728  1.00  0.00     0.034 A 
HETATM    2  C   UNL     1      40.207 -14.137  -0.304  1.00  0.00     0.032 A 
HETATM    3  C   UNL     1      39.251 -13.601  -1.180  1.00  0.00     0.031 A 
HETATM    4  C   UNL     1      39.140 -14.041  -2.507  1.00  0.00     0.030 A 
HETATM    5  C   UNL     1      39.975 -15.092  -2.896  1.00  0.00     0.031 A 
HETATM    6  C   UNL     1      40.925 -15.640  -2.023  1.00  0.00     0.032 A 
ENDROOT
BRANCH   1   7
HETATM    7  N   UNL     1      42.097 -15.548   0.151  1.00  0.00    -0.325 N 
HETATM    8  C   UNL     1      42.171 -16.737   0.856  1.00  0.00     0.246 C 
HETATM    9  O   UNL     1      41.273 -17.567   0.973  1.00  0.00    -0.271 OA
HETATM   10  H   UNL     1      42.907 -14.941   0.247  1.00  0.00     0.169 HD
BRANCH   8  11
HETATM   11  C   UNL     1      43.562 -17.023   1.426  1.00  0.00     0.278 C 
BRANCH  11  12
HETATM   12  O   UNL     1      43.565 -17.195   2.840  1.00  0.00    -0.342 OA
BRANCH  12  13
HETATM   13  C   UNL     1      43.924 -18.454   3.256  1.00  0.00     0.069 A 
HETATM   14  C   UNL     1      44.028 -19.574   2.427  1.00  0.00     0.044 A 
HETATM   15  C   UNL     1      44.401 -20.829   2.943  1.00  0.00    -0.053 A 
HETATM   16  C   UNL     1      44.648 -20.963   4.322  1.00  0.00    -0.056 A 
HETATM   17  C   UNL     1      44.475 -22.007   2.008  1.00  0.00     0.049 C 
HETATM   18  C   UNL     1      45.019 -22.287   4.931  1.00  0.00     0.049 C 
HETATM   19  C   UNL     1      44.578 -19.824   5.140  1.00  0.00     0.010 A 
HETATM   20  C   UNL     1      44.226 -18.581   4.609  1.00  0.00     0.037 A 
ENDBRANCH  12  13
ENDBRANCH  11  12
ENDBRANCH   8  11
ENDBRANCH   1   7
BRANCH   4  21
HETATM   21  N   UNL     1      38.300 -13.375  -3.393  1.00  0.00    -0.378 N 
HETATM   22  C   UNL     1      38.760 -12.138  -4.036  1.00  0.00     0.150 C 
HETATM   23  C   UNL     1      37.541 -11.235  -4.310  1.00  0.00     0.255 C 
HETATM   24  N   UNL     1      36.468 -11.972  -5.124  1.00  0.00    -0.064 N 
HETATM   25  H   UNL     1      36.871 -12.143  -6.052  1.00  0.00     0.280 HD
HETATM   26  C   UNL     1      36.113 -13.329  -4.504  1.00  0.00     0.255 C 
HETATM   27  C   UNL     1      37.367 -14.175  -4.197  1.00  0.00     0.150 C 
BRANCH  24  28
HETATM   28  C   UNL     1      35.218 -11.142  -5.313  1.00  0.00     0.273 C 
BRANCH  28  29
HETATM   29  C   UNL     1      34.158 -11.376  -4.271  1.00  0.00    -0.033 A 
HETATM   30  C   UNL     1      33.075 -12.230  -4.525  1.00  0.00     0.009 A 
HETATM   31  C   UNL     1      32.087 -12.419  -3.559  1.00  0.00     0.001 A 
HETATM   32  C   UNL     1      32.168 -11.760  -2.334  1.00  0.00     0.000 A 
HETATM   33  C   UNL     1      33.238 -10.911  -2.069  1.00  0.00     0.001 A 
HETATM   34  C   UNL     1      34.231 -10.719  -3.030  1.00  0.00     0.009 A 
ENDBRANCH  28  29
ENDBRANCH  24  28
ENDBRANCH   4  21
TORSDOF 7
ENDMDL
MODEL 7
REMARK VINA RESULT:      -7.8      6.069     10.312
REMARK  7 active torsions:
REMARK  status: ('A' for Active; 'I' for Inactive)
REMARK    1  A    between atoms: C_6  and  O_7 
REMARK    2  A    between atoms: O_7  and  C_8 
REMARK    3  A    between atoms: C_8  and  C_9 
REMARK       I    between atoms: C_9  and  N_10 
REMARK    4  A    between atoms: N_10  and  C_11 
REMARK    5  A    between atoms: C_14  and  N_15 
REMARK    6  A    between atoms: N_18  and  C_20 
REMARK    7  A    between atoms: C_20  and  C_21 
ROOT
HETATM    1  C   UNL     1      42.000 -15.660   3.459  1.00  0.00     0.034 A 
HETATM    2  C   UNL     1      41.603 -16.645   2.555  1.00  0.00     0.032 A 
HETATM    3  C   UNL     1      41.065 -16.296   1.307  1.00  0.00     0.031 A 
HETATM    4  C   UNL     1      40.892 -14.956   0.929  1.00  0.00     0.030 A 
HETATM    5  C   UNL     1      41.352 -13.984   1.821  1.00  0.00     0.031 A 
HETATM    6  C   UNL     1      41.902 -14.326   3.065  1.00  0.00     0.032 A 
ENDROOT
BRANCH   1   7
HETATM    7  N   UNL     1      42.409 -16.068   4.743  1.00  0.00    -0.325 N 
HETATM    8  C   UNL     1      41.600 -16.305   5.841  1.00  0.00     0.246 C 
HETATM    9  O   UNL     1      40.406 -16.030   5.935  1.00  0.00    -0.271 OA
HETATM   10  H   UNL     1      43.394 -16.273   4.884  1.00  0.00     0.169 HD
BRANCH   8  11
HETATM   11  C   UNL     1      42.301 -17.077   6.960  1.00  0.00     0.278 C 
BRANCH  11  12
HETATM   12  O   UNL     1      43.680 -17.320   6.695  1.00  0.00    -0.342 OA
BRANCH  12  13
HETATM   13  C   UNL     1      43.947 -18.566   6.182  1.00  0.00     0.069 A 
HETATM   14  C   UNL     1      44.347 -18.825   4.869  1.00  0.00     0.044 A 
HETATM   15  C   UNL     1      44.597 -20.138   4.429  1.00  0.00    -0.053 A 
HETATM   16  C   UNL     1      44.414 -21.211   5.321  1.00  0.00    -0.056 A 
HETATM   17  C   UNL     1      45.003 -20.360   2.997  1.00  0.00     0.049 C 
HETATM   18  C   UNL     1      44.635 -22.636   4.895  1.00  0.00     0.049 C 
HETATM   19  C   UNL     1      44.048 -20.939   6.649  1.00  0.00     0.010 A 
HETATM   20  C   UNL     1      43.824 -19.627   7.075  1.00  0.00     0.037 A 
ENDBRANCH  12  13
ENDBRANCH  11  12
ENDBRANCH   8  11
ENDBRANCH   1   7
BRANCH   4  21
HETATM   21  N   UNL     1      40.204 -14.646  -0.239  1.00  0.00    -0.378 N 
HETATM   22  C   UNL     1      39.058 -13.730  -0.182  1.00  0.00     0.150 C 
HETATM   23  C   UNL     1      38.061 -14.109  -1.295  1.00  0.00     0.255 C 
HETATM   24  N   UNL     1      38.740 -14.136  -2.671  1.00  0.00    -0.064 N 
HETATM   25  H   UNL     1      39.004 -13.168  -2.886  1.00  0.00     0.280 HD
HETATM   26  C   UNL     1      40.016 -14.986  -2.661  1.00  0.00     0.255 C 
HETATM   27  C   UNL     1      40.959 -14.608  -1.498  1.00  0.00     0.150 C 
BRANCH  24  28
HETATM   28  C   UNL     1      37.807 -14.610  -3.763  1.00  0.00     0.273 C 
BRANCH  28  29
HETATM   29  C   UNL     1      36.769 -13.601  -4.170  1.00  0.00    -0.033 A 
HETATM   30  C   UNL     1      35.531 -14.010  -4.689  1.00  0.00     0.009 A 
HETATM   31  C   UNL     1      34.587 -13.063  -5.085  1.00  0.00     0.001 A 
HETATM   32  C   UNL     1      34.866 -11.703  -4.969  1.00  0.00     0.000 A 
HETATM   33  C   UNL     1      36.090 -11.284  -4.455  1.00  0.00     0.001 A 
HETATM   34  C   UNL     1      37.037 -12.226  -4.055  1.00  0.00     0.009 A 
ENDBRANCH  28  29
ENDBRANCH  24  28
ENDBRANCH   4  21
TORSDOF 7
ENDMDL
MODEL 8
REMARK VINA RESULT:      -7.7      6.537     11.874
REMARK  7 active torsions:
REMARK  status: ('A' for Active; 'I' for Inactive)
REMARK    1  A    between atoms: C_6  and  O_7 
REMARK    2  A    between atoms: O_7  and  C_8 
REMARK    3  A    between atoms: C_8  and  C_9 
REMARK       I    between atoms: C_9  and  N_10 
REMARK    4  A    between atoms: N_10  and  C_11 
REMARK    5  A    between atoms: C_14  and  N_15 
REMARK    6  A    between atoms: N_18  and  C_20 
REMARK    7  A    between atoms: C_20  and  C_21 
ROOT
HETATM    1  C   UNL     1      40.122 -14.246   1.578  1.00  0.00     0.034 A 
HETATM    2  C   UNL     1      39.802 -13.394   2.635  1.00  0.00     0.032 A 
HETATM    3  C   UNL     1      38.750 -12.473   2.519  1.00  0.00     0.031 A 
HETATM    4  C   UNL     1      37.994 -12.365   1.342  1.00  0.00     0.030 A 
HETATM    5  C   UNL     1      38.287 -13.268   0.317  1.00  0.00     0.031 A 
HETATM    6  C   UNL     1      39.331 -14.198   0.431  1.00  0.00     0.032 A 
ENDROOT
BRANCH   1   7
HETATM    7  N   UNL     1      41.269 -15.054   1.704  1.00  0.00    -0.325 N 
HETATM    8  C   UNL     1      41.309 -16.427   1.873  1.00  0.00     0.246 C 
HETATM    9  O   UNL     1      40.351 -17.156   2.119  1.00  0.00    -0.271 OA
HETATM   10  H   UNL     1      42.176 -14.606   1.604  1.00  0.00     0.169 HD
BRANCH   8  11
HETATM   11  C   UNL     1      42.690 -17.032   1.610  1.00  0.00     0.278 C 
BRANCH  11  12
HETATM   12  O   UNL     1      43.517 -17.068   2.770  1.00  0.00    -0.342 OA
BRANCH  12  13
HETATM   13  C   UNL     1      43.875 -18.331   3.171  1.00  0.00     0.069 A 
HETATM   14  C   UNL     1      43.923 -19.454   2.340  1.00  0.00     0.044 A 
HETATM   15  C   UNL     1      44.301 -20.715   2.840  1.00  0.00    -0.053 A 
HETATM   16  C   UNL     1      44.609 -20.850   4.206  1.00  0.00    -0.056 A 
HETATM   17  C   UNL     1      44.312 -21.894   1.905  1.00  0.00     0.049 C 
HETATM   18  C   UNL     1      44.987 -22.179   4.801  1.00  0.00     0.049 C 
HETATM   19  C   UNL     1      44.595 -19.710   5.025  1.00  0.00     0.010 A 
HETATM   20  C   UNL     1      44.238 -18.462   4.509  1.00  0.00     0.037 A 
ENDBRANCH  12  13
ENDBRANCH  11  12
ENDBRANCH   8  11
ENDBRANCH   1   7
BRANCH   4  21
HETATM   21  N   UNL     1      37.073 -11.334   1.199  1.00  0.00    -0.378 N 
HETATM   22  C   UNL     1      37.450  -9.967   1.583  1.00  0.00     0.150 C 
HETATM   23  C   UNL     1      36.191  -9.216   2.058  1.00  0.00     0.255 C 
HETATM   24  N   UNL     1      35.080  -9.258   0.999  1.00  0.00    -0.064 N 
HETATM   25  H   UNL     1      35.416  -8.708   0.200  1.00  0.00     0.280 HD
HETATM   26  C   UNL     1      34.808 -10.686   0.513  1.00  0.00     0.255 C 
HETATM   27  C   UNL     1      36.103 -11.417   0.099  1.00  0.00     0.150 C 
BRANCH  24  28
HETATM   28  C   UNL     1      33.797  -8.620   1.486  1.00  0.00     0.273 C 
BRANCH  28  29
HETATM   29  C   UNL     1      32.745  -9.604   1.920  1.00  0.00    -0.033 A 
HETATM   30  C   UNL     1      32.816 -10.227   3.174  1.00  0.00     0.009 A 
HETATM   31  C   UNL     1      31.847 -11.156   3.554  1.00  0.00     0.001 A 
HETATM   32  C   UNL     1      30.801 -11.472   2.689  1.00  0.00     0.000 A 
HETATM   33  C   UNL     1      30.719 -10.859   1.442  1.00  0.00     0.001 A 
HETATM   34  C   UNL     1      31.683  -9.928   1.058  1.00  0.00     0.009 A 
ENDBRANCH  28  29
ENDBRANCH  24  28
ENDBRANCH   4  21
TORSDOF 7
ENDMDL
MODEL 9
REMARK VINA RESULT:      -7.6      4.760     11.358
REMARK  7 active torsions:
REMARK  status: ('A' for Active; 'I' for Inactive)
REMARK    1  A    between atoms: C_6  and  O_7 
REMARK    2  A    between atoms: O_7  and  C_8 
REMARK    3  A    between atoms: C_8  and  C_9 
REMARK       I    between atoms: C_9  and  N_10 
REMARK    4  A    between atoms: N_10  and  C_11 
REMARK    5  A    between atoms: C_14  and  N_15 
REMARK    6  A    between atoms: N_18  and  C_20 
REMARK    7  A    between atoms: C_20  and  C_21 
ROOT
HETATM    1  C   UNL     1      40.431 -14.794   4.673  1.00  0.00     0.034 A 
HETATM    2  C   UNL     1      39.953 -13.984   5.704  1.00  0.00     0.032 A 
HETATM    3  C   UNL     1      39.260 -12.798   5.419  1.00  0.00     0.031 A 
HETATM    4  C   UNL     1      39.035 -12.376   4.101  1.00  0.00     0.030 A 
HETATM    5  C   UNL     1      39.466 -13.230   3.082  1.00  0.00     0.031 A 
HETATM    6  C   UNL     1      40.149 -14.422   3.359  1.00  0.00     0.032 A 
ENDROOT
BRANCH   1   7
HETATM    7  N   UNL     1      41.232 -15.899   5.019  1.00  0.00    -0.325 N 
HETATM    8  C   UNL     1      42.589 -15.896   5.287  1.00  0.00     0.246 C 
HETATM    9  O   UNL     1      43.364 -14.961   5.097  1.00  0.00    -0.271 OA
HETATM   10  H   UNL     1      40.770 -16.796   5.148  1.00  0.00     0.169 HD
BRANCH   8  11
HETATM   11  C   UNL     1      43.077 -17.171   5.978  1.00  0.00     0.278 C 
BRANCH  11  12
HETATM   12  O   UNL     1      44.372 -17.583   5.549  1.00  0.00    -0.342 OA
BRANCH  12  13
HETATM   13  C   UNL     1      44.372 -18.682   4.727  1.00  0.00     0.069 A 
HETATM   14  C   UNL     1      44.717 -19.978   5.119  1.00  0.00     0.044 A 
HETATM   15  C   UNL     1      44.690 -21.048   4.204  1.00  0.00    -0.053 A 
HETATM   16  C   UNL     1      44.335 -20.801   2.865  1.00  0.00    -0.056 A 
HETATM   17  C   UNL     1      45.094 -22.419   4.676  1.00  0.00     0.049 C 
HETATM   18  C   UNL     1      44.321 -21.900   1.838  1.00  0.00     0.049 C 
HETATM   19  C   UNL     1      43.954 -19.504   2.489  1.00  0.00     0.010 A 
HETATM   20  C   UNL     1      43.966 -18.457   3.414  1.00  0.00     0.037 A 
ENDBRANCH  12  13
ENDBRANCH  11  12
ENDBRANCH   8  11
ENDBRANCH   1   7
BRANCH   4  21
HETATM   21  N   UNL     1      38.495 -11.118   3.855  1.00  0.00    -0.378 N 
HETATM   22  C   UNL     1      38.985  -9.960   4.613  1.00  0.00     0.150 C 
HETATM   23  C   UNL     1      37.841  -8.938   4.758  1.00  0.00     0.255 C 
HETATM   24  N   UNL     1      37.252  -8.557   3.392  1.00  0.00    -0.064 N 
HETATM   25  H   UNL     1      37.986  -8.045   2.890  1.00  0.00     0.280 HD
HETATM   26  C   UNL     1      36.883  -9.794   2.565  1.00  0.00     0.255 C 
HETATM   27  C   UNL     1      38.041 -10.813   2.493  1.00  0.00     0.150 C 
BRANCH  24  28
HETATM   28  C   UNL     1      36.057  -7.638   3.518  1.00  0.00     0.273 C 
BRANCH  28  29
HETATM   29  C   UNL     1      34.761  -8.346   3.800  1.00  0.00    -0.033 A 
HETATM   30  C   UNL     1      34.391  -8.676   5.113  1.00  0.00     0.009 A 
HETATM   31  C   UNL     1      33.198  -9.355   5.358  1.00  0.00     0.001 A 
HETATM   32  C   UNL     1      32.364  -9.712   4.302  1.00  0.00     0.000 A 
HETATM   33  C   UNL     1      32.718  -9.390   2.994  1.00  0.00     0.001 A 
HETATM   34  C   UNL     1      33.909  -8.710   2.742  1.00  0.00     0.009 A 
ENDBRANCH  28  29
ENDBRANCH  24  28
ENDBRANCH   4  21
TORSDOF 7
ENDMDL
MODEL 10
REMARK VINA RESULT:      -7.6      8.135     11.457
REMARK  7 active torsions:
REMARK  status: ('A' for Active; 'I' for Inactive)
REMARK    1  A    between atoms: C_6  and  O_7 
REMARK    2  A    between atoms: O_7  and  C_8 
REMARK    3  A    between atoms: C_8  and  C_9 
REMARK       I    between atoms: C_9  and  N_10 
REMARK    4  A    between atoms: N_10  and  C_11 
REMARK    5  A    between atoms: C_14  and  N_15 
REMARK    6  A    between atoms: N_18  and  C_20 
REMARK    7  A    between atoms: C_20  and  C_21 
ROOT
HETATM    1  C   UNL     1      38.651 -13.798  -2.971  1.00  0.00     0.034 A 
HETATM    2  C   UNL     1      38.310 -13.409  -1.675  1.00  0.00     0.032 A 
HETATM    3  C   UNL     1      39.034 -13.886  -0.572  1.00  0.00     0.031 A 
HETATM    4  C   UNL     1      40.109 -14.773  -0.726  1.00  0.00     0.030 A 
HETATM    5  C   UNL     1      40.476 -15.102  -2.033  1.00  0.00     0.031 A 
HETATM    6  C   UNL     1      39.763 -14.621  -3.141  1.00  0.00     0.032 A 
ENDROOT
BRANCH   1   7
HETATM    7  N   UNL     1      37.808 -13.394  -4.024  1.00  0.00    -0.325 N 
HETATM    8  C   UNL     1      36.651 -14.021  -4.455  1.00  0.00     0.246 C 
HETATM    9  O   UNL     1      36.257 -15.132  -4.111  1.00  0.00    -0.271 OA
HETATM   10  H   UNL     1      38.022 -12.518  -4.493  1.00  0.00     0.169 HD
BRANCH   8  11
HETATM   11  C   UNL     1      35.785 -13.144  -5.362  1.00  0.00     0.278 C 
BRANCH  11  12
HETATM   12  O   UNL     1      34.389 -13.381  -5.204  1.00  0.00    -0.342 OA
BRANCH  12  13
HETATM   13  C   UNL     1      33.773 -12.551  -4.299  1.00  0.00     0.069 A 
HETATM   14  C   UNL     1      32.497 -12.751  -3.766  1.00  0.00     0.044 A 
HETATM   15  C   UNL     1      31.943 -11.844  -2.843  1.00  0.00    -0.053 A 
HETATM   16  C   UNL     1      32.678 -10.703  -2.472  1.00  0.00    -0.056 A 
HETATM   17  C   UNL     1      30.555 -12.096  -2.319  1.00  0.00     0.049 C 
HETATM   18  C   UNL     1      32.123  -9.684  -1.515  1.00  0.00     0.049 C 
HETATM   19  C   UNL     1      33.974 -10.530  -2.984  1.00  0.00     0.010 A 
HETATM   20  C   UNL     1      34.517 -11.451  -3.884  1.00  0.00     0.037 A 
ENDBRANCH  12  13
ENDBRANCH  11  12
ENDBRANCH   8  11
ENDBRANCH   1   7
BRANCH   4  21
HETATM   21  N   UNL     1      40.697 -15.355   0.393  1.00  0.00    -0.378 N 
HETATM   22  C   UNL     1      41.743 -16.369   0.215  1.00  0.00     0.150 C 
HETATM   23  C   UNL     1      41.692 -17.352   1.401  1.00  0.00     0.255 C 
HETATM   24  N   UNL     1      41.792 -16.616   2.745  1.00  0.00    -0.064 N 
HETATM   25  H   UNL     1      42.735 -16.215   2.789  1.00  0.00     0.280 HD
HETATM   26  C   UNL     1      40.780 -15.467   2.842  1.00  0.00     0.255 C 
HETATM   27  C   UNL     1      40.831 -14.541   1.608  1.00  0.00     0.150 C 
BRANCH  24  28
HETATM   28  C   UNL     1      41.635 -17.550   3.925  1.00  0.00     0.273 C 
BRANCH  28  29
HETATM   29  C   UNL     1      42.879 -17.713   4.753  1.00  0.00    -0.033 A 
HETATM   30  C   UNL     1      43.700 -18.841   4.605  1.00  0.00     0.009 A 
HETATM   31  C   UNL     1      44.839 -18.991   5.396  1.00  0.00     0.001 A 
HETATM   32  C   UNL     1      45.169 -18.023   6.342  1.00  0.00     0.000 A 
HETATM   33  C   UNL     1      44.363 -16.898   6.497  1.00  0.00     0.001 A 
HETATM   34  C   UNL     1      43.225 -16.740   5.708  1.00  0.00     0.009 A 
ENDBRANCH  28  29
ENDBRANCH  24  28
ENDBRANCH   4  21
TORSDOF 7
ENDMDL
