MODEL 1
REMARK VINA RESULT:      -8.2      0.000      0.000
REMARK  6 active torsions:
REMARK  status: ('A' for Active; 'I' for Inactive)
REMARK    1  A    between atoms: C_3  and  C_4 
REMARK       I    between atoms: C_4  and  N_5 
REMARK    2  A    between atoms: N_5  and  C_6 
REMARK    3  A    between atoms: C_6  and  C_7 
REMARK    4  A    between atoms: C_7  and  N_8 
REMARK    5  A    between atoms: C_7  and  C_14 
REMARK    6  A    between atoms: C_21  and  C_22 
ROOT
HETATM    1  C   UNL     1      42.899 -14.987   2.772  1.00  0.00     0.272 C 
HETATM    2  N   UNL     1      41.653 -14.936   2.179  1.00  0.00    -0.354 N 
HETATM    3  O   UNL     1      43.598 -13.976   2.859  1.00  0.00    -0.266 OA
HETATM    4  H   UNL     1      41.203 -15.849   2.090  1.00  0.00     0.162 HD
ENDROOT
BRANCH   1   5
HETATM    5  C   UNL     1      43.244 -16.310   3.310  1.00  0.00     0.152 A 
HETATM    6  C   UNL     1      43.551 -17.508   2.597  1.00  0.00     0.003 A 
HETATM    7  C   UNL     1      43.594 -17.689   1.123  1.00  0.00     0.053 C 
HETATM    8  C   UNL     1      43.795 -18.455   3.581  1.00  0.00     0.069 A 
HETATM    9  N   UNL     1      43.621 -17.800   4.772  1.00  0.00    -0.276 N 
HETATM   10  N   UNL     1      43.304 -16.499   4.643  1.00  0.00    -0.168 NA
HETATM   11  H   UNL     1      43.695 -18.195   5.704  1.00  0.00     0.189 HD
BRANCH   8  12
HETATM   12  C   UNL     1      44.132 -19.873   3.521  1.00  0.00    -0.007 A 
HETATM   13  C   UNL     1      43.979 -20.591   2.329  1.00  0.00     0.014 A 
HETATM   14  C   UNL     1      44.291 -21.950   2.274  1.00  0.00     0.001 A 
HETATM   15  C   UNL     1      44.759 -22.606   3.411  1.00  0.00     0.000 A 
HETATM   16  C   UNL     1      44.917 -21.901   4.604  1.00  0.00     0.001 A 
HETATM   17  C   UNL     1      44.604 -20.541   4.660  1.00  0.00     0.014 A 
ENDBRANCH   8  12
ENDBRANCH   1   5
BRANCH   2  18
HETATM   18  C   UNL     1      41.264 -13.832   1.331  1.00  0.00     0.156 C 
BRANCH  18  19
HETATM   19  C   UNL     1      40.080 -14.126   0.360  1.00  0.00     0.209 C 
BRANCH  19  20
HETATM   20  N   UNL     1      40.600 -14.162  -1.092  1.00  0.00    -0.065 N 
HETATM   21  H   UNL     1      41.505 -13.647  -1.051  1.00  0.00     0.280 HD
HETATM   22  C   UNL     1      39.868 -13.424  -2.199  1.00  0.00     0.235 C 
HETATM   23  C   UNL     1      39.596 -14.478  -3.256  1.00  0.00     0.029 C 
HETATM   24  C   UNL     1      40.771 -15.424  -3.117  1.00  0.00     0.029 C 
HETATM   25  C   UNL     1      40.964 -15.532  -1.618  1.00  0.00     0.235 C 
ENDBRANCH  19  20
BRANCH  19  26
HETATM   26  C   UNL     1      38.821 -13.229   0.565  1.00  0.00     0.010 C 
HETATM   27  C   UNL     1      37.530 -14.054   0.654  1.00  0.00     0.011 C 
HETATM   28  C   UNL     1      38.909 -12.372   1.838  1.00  0.00     0.011 C 
ENDBRANCH  19  26
ENDBRANCH  18  19
ENDBRANCH   2  18
TORSDOF 6
ENDMDL
MODEL 2
REMARK VINA RESULT:      -8.2      1.757      2.701
REMARK  6 active torsions:
REMARK  status: ('A' for Active; 'I' for Inactive)
REMARK    1  A    between atoms: C_3  and  C_4 
REMARK       I    between atoms: C_4  and  N_5 
REMARK    2  A    between atoms: N_5  and  C_6 
REMARK    3  A    between atoms: C_6  and  C_7 
REMARK    4  A    between atoms: C_7  and  N_8 
REMARK    5  A    between atoms: C_7  and  C_14 
REMARK    6  A    between atoms: C_21  and  C_22 
ROOT
HETATM    1  C   UNL     1      43.171 -14.810   2.997  1.00  0.00     0.272 C 
HETATM    2  N   UNL     1      41.995 -14.553   2.319  1.00  0.00    -0.354 N 
HETATM    3  O   UNL     1      43.973 -13.904   3.231  1.00  0.00    -0.266 OA
HETATM    4  H   UNL     1      41.451 -15.393   2.111  1.00  0.00     0.162 HD
ENDROOT
BRANCH   1   5
HETATM    5  C   UNL     1      43.311 -16.206   3.432  1.00  0.00     0.152 A 
HETATM    6  C   UNL     1      43.775 -17.329   2.683  1.00  0.00     0.003 A 
HETATM    7  C   UNL     1      44.231 -17.337   1.269  1.00  0.00     0.053 C 
HETATM    8  C   UNL     1      43.701 -18.398   3.563  1.00  0.00     0.069 A 
HETATM    9  N   UNL     1      43.214 -17.878   4.733  1.00  0.00    -0.276 N 
HETATM   10  N   UNL     1      42.983 -16.554   4.692  1.00  0.00    -0.168 NA
HETATM   11  H   UNL     1      43.008 -18.384   5.588  1.00  0.00     0.189 HD
BRANCH   8  12
HETATM   12  C   UNL     1      44.002 -19.819   3.415  1.00  0.00    -0.007 A 
HETATM   13  C   UNL     1      44.593 -20.534   4.462  1.00  0.00     0.014 A 
HETATM   14  C   UNL     1      44.891 -21.891   4.316  1.00  0.00     0.001 A 
HETATM   15  C   UNL     1      44.602 -22.543   3.119  1.00  0.00     0.000 A 
HETATM   16  C   UNL     1      44.012 -21.841   2.069  1.00  0.00     0.001 A 
HETATM   17  C   UNL     1      43.714 -20.485   2.215  1.00  0.00     0.014 A 
ENDBRANCH   8  12
ENDBRANCH   1   5
BRANCH   2  18
HETATM   18  C   UNL     1      41.813 -13.342   1.552  1.00  0.00     0.156 C 
BRANCH  18  19
HETATM   19  C   UNL     1      41.781 -13.534   0.006  1.00  0.00     0.209 C 
BRANCH  19  20
HETATM   20  N   UNL     1      41.760 -12.154  -0.685  1.00  0.00    -0.065 N 
HETATM   21  H   UNL     1      40.892 -12.171  -1.260  1.00  0.00     0.280 HD
HETATM   22  C   UNL     1      42.814 -11.783  -1.715  1.00  0.00     0.235 C 
HETATM   23  C   UNL     1      43.412 -10.484  -1.209  1.00  0.00     0.029 C 
HETATM   24  C   UNL     1      42.254  -9.821  -0.492  1.00  0.00     0.029 C 
HETATM   25  C   UNL     1      41.584 -10.969   0.238  1.00  0.00     0.235 C 
ENDBRANCH  19  20
BRANCH  19  26
HETATM   26  C   UNL     1      40.696 -14.525  -0.514  1.00  0.00     0.010 C 
HETATM   27  C   UNL     1      39.287 -13.919  -0.467  1.00  0.00     0.011 C 
HETATM   28  C   UNL     1      40.954 -14.975  -1.962  1.00  0.00     0.011 C 
ENDBRANCH  19  26
ENDBRANCH  18  19
ENDBRANCH   2  18
TORSDOF 6
ENDMDL
MODEL 3
REMARK VINA RESULT:      -8.0      1.721      2.409
REMARK  6 active torsions:
REMARK  status: ('A' for Active; 'I' for Inactive)
REMARK    1  A    between atoms: C_3  and  C_4 
REMARK       I    between atoms: C_4  and  N_5 
REMARK    2  A    between atoms: N_5  and  C_6 
REMARK    3  A    between atoms: C_6  and  C_7 
REMARK    4  A    between atoms: C_7  and  N_8 
REMARK    5  A    between atoms: C_7  and  C_14 
REMARK    6  A    between atoms: C_21  and  C_22 
ROOT
HETATM    1  C   UNL     1      40.888 -15.268   1.928  1.00  0.00     0.272 C 
HETATM    2  N   UNL     1      39.701 -15.378   1.230  1.00  0.00    -0.354 N 
HETATM    3  O   UNL     1      41.128 -14.268   2.607  1.00  0.00    -0.266 OA
HETATM    4  H   UNL     1      39.650 -16.209   0.638  1.00  0.00     0.162 HD
ENDROOT
BRANCH   1   5
HETATM    5  C   UNL     1      41.754 -16.449   1.813  1.00  0.00     0.152 A 
HETATM    6  C   UNL     1      41.982 -17.481   2.773  1.00  0.00     0.003 A 
HETATM    7  C   UNL     1      41.382 -17.595   4.127  1.00  0.00     0.053 C 
HETATM    8  C   UNL     1      42.883 -18.341   2.162  1.00  0.00     0.069 A 
HETATM    9  N   UNL     1      43.134 -17.795   0.931  1.00  0.00    -0.276 N 
HETATM   10  N   UNL     1      42.457 -16.661   0.683  1.00  0.00    -0.168 NA
HETATM   11  H   UNL     1      43.771 -18.149   0.224  1.00  0.00     0.189 HD
BRANCH   8  12
HETATM   12  C   UNL     1      43.534 -19.567   2.613  1.00  0.00    -0.007 A 
HETATM   13  C   UNL     1      44.241 -19.594   3.821  1.00  0.00     0.014 A 
HETATM   14  C   UNL     1      44.873 -20.763   4.247  1.00  0.00     0.001 A 
HETATM   15  C   UNL     1      44.807 -21.916   3.467  1.00  0.00     0.000 A 
HETATM   16  C   UNL     1      44.105 -21.902   2.263  1.00  0.00     0.001 A 
HETATM   17  C   UNL     1      43.473 -20.732   1.836  1.00  0.00     0.014 A 
ENDBRANCH   8  12
ENDBRANCH   1   5
BRANCH   2  18
HETATM   18  C   UNL     1      38.869 -14.226   0.965  1.00  0.00     0.156 C 
BRANCH  18  19
HETATM   19  C   UNL     1      39.095 -13.549  -0.421  1.00  0.00     0.209 C 
BRANCH  19  20
HETATM   20  N   UNL     1      39.440 -14.626  -1.470  1.00  0.00    -0.065 N 
HETATM   21  H   UNL     1      39.229 -15.526  -0.990  1.00  0.00     0.280 HD
HETATM   22  C   UNL     1      40.874 -14.839  -1.925  1.00  0.00     0.235 C 
HETATM   23  C   UNL     1      40.827 -14.710  -3.435  1.00  0.00     0.029 C 
HETATM   24  C   UNL     1      39.445 -15.220  -3.788  1.00  0.00     0.029 C 
HETATM   25  C   UNL     1      38.563 -14.636  -2.702  1.00  0.00     0.235 C 
ENDBRANCH  19  20
BRANCH  19  26
HETATM   26  C   UNL     1      40.071 -12.333  -0.410  1.00  0.00     0.010 C 
HETATM   27  C   UNL     1      39.811 -11.370  -1.575  1.00  0.00     0.011 C 
HETATM   28  C   UNL     1      39.982 -11.518   0.890  1.00  0.00     0.011 C 
ENDBRANCH  19  26
ENDBRANCH  18  19
ENDBRANCH   2  18
TORSDOF 6
ENDMDL
MODEL 4
REMARK VINA RESULT:      -7.9      1.765      2.674
REMARK  6 active torsions:
REMARK  status: ('A' for Active; 'I' for Inactive)
REMARK    1  A    between atoms: C_3  and  C_4 
REMARK       I    between atoms: C_4  and  N_5 
REMARK    2  A    between atoms: N_5  and  C_6 
REMARK    3  A    between atoms: C_6  and  C_7 
REMARK    4  A    between atoms: C_7  and  N_8 
REMARK    5  A    between atoms: C_7  and  C_14 
REMARK    6  A    between atoms: C_21  and  C_22 
ROOT
HETATM    1  C   UNL     1      40.935 -15.021   1.579  1.00  0.00     0.272 C 
HETATM    2  N   UNL     1      40.231 -15.309   0.426  1.00  0.00    -0.354 N 
HETATM    3  O   UNL     1      41.057 -13.858   1.968  1.00  0.00    -0.266 OA
HETATM    4  H   UNL     1      40.268 -16.295   0.158  1.00  0.00     0.162 HD
ENDROOT
BRANCH   1   5
HETATM    5  C   UNL     1      41.440 -16.211   2.276  1.00  0.00     0.152 A 
HETATM    6  C   UNL     1      42.428 -17.145   1.840  1.00  0.00     0.003 A 
HETATM    7  C   UNL     1      43.182 -17.122   0.560  1.00  0.00     0.053 C 
HETATM    8  C   UNL     1      42.520 -18.070   2.870  1.00  0.00     0.069 A 
HETATM    9  N   UNL     1      41.619 -17.658   3.816  1.00  0.00    -0.276 N 
HETATM   10  N   UNL     1      40.962 -16.529   3.495  1.00  0.00    -0.168 NA
HETATM   11  H   UNL     1      41.403 -18.116   4.695  1.00  0.00     0.189 HD
BRANCH   8  12
HETATM   12  C   UNL     1      43.319 -19.280   3.038  1.00  0.00    -0.007 A 
HETATM   13  C   UNL     1      43.303 -20.284   2.062  1.00  0.00     0.014 A 
HETATM   14  C   UNL     1      44.058 -21.446   2.228  1.00  0.00     0.001 A 
HETATM   15  C   UNL     1      44.836 -21.616   3.372  1.00  0.00     0.000 A 
HETATM   16  C   UNL     1      44.861 -20.623   4.349  1.00  0.00     0.001 A 
HETATM   17  C   UNL     1      44.105 -19.460   4.185  1.00  0.00     0.014 A 
ENDBRANCH   8  12
ENDBRANCH   1   5
BRANCH   2  18
HETATM   18  C   UNL     1      39.927 -14.287  -0.551  1.00  0.00     0.156 C 
BRANCH  18  19
HETATM   19  C   UNL     1      40.449 -14.569  -1.992  1.00  0.00     0.209 C 
BRANCH  19  20
HETATM   20  N   UNL     1      41.655 -13.655  -2.291  1.00  0.00    -0.065 N 
HETATM   21  H   UNL     1      42.458 -14.312  -2.377  1.00  0.00     0.280 HD
HETATM   22  C   UNL     1      42.163 -12.671  -1.251  1.00  0.00     0.235 C 
HETATM   23  C   UNL     1      42.155 -11.325  -1.951  1.00  0.00     0.029 C 
HETATM   24  C   UNL     1      42.433 -11.681  -3.397  1.00  0.00     0.029 C 
HETATM   25  C   UNL     1      41.609 -12.933  -3.619  1.00  0.00     0.235 C 
ENDBRANCH  19  20
BRANCH  19  26
HETATM   26  C   UNL     1      39.355 -14.567  -3.102  1.00  0.00     0.010 C 
HETATM   27  C   UNL     1      39.288 -15.903  -3.853  1.00  0.00     0.011 C 
HETATM   28  C   UNL     1      37.951 -14.281  -2.545  1.00  0.00     0.011 C 
ENDBRANCH  19  26
ENDBRANCH  18  19
ENDBRANCH   2  18
TORSDOF 6
ENDMDL
MODEL 5
REMARK VINA RESULT:      -7.8      1.910      2.554
REMARK  6 active torsions:
REMARK  status: ('A' for Active; 'I' for Inactive)
REMARK    1  A    between atoms: C_3  and  C_4 
REMARK       I    between atoms: C_4  and  N_5 
REMARK    2  A    between atoms: N_5  and  C_6 
REMARK    3  A    between atoms: C_6  and  C_7 
REMARK    4  A    between atoms: C_7  and  N_8 
REMARK    5  A    between atoms: C_7  and  C_14 
REMARK    6  A    between atoms: C_21  and  C_22 
ROOT
HETATM    1  C   UNL     1      41.497 -15.374   1.666  1.00  0.00     0.272 C 
HETATM    2  N   UNL     1      40.469 -15.407   0.744  1.00  0.00    -0.354 N 
HETATM    3  O   UNL     1      41.641 -14.407   2.415  1.00  0.00    -0.266 OA
HETATM    4  H   UNL     1      40.501 -16.218   0.123  1.00  0.00     0.162 HD
ENDROOT
BRANCH   1   5
HETATM    5  C   UNL     1      42.315 -16.595   1.682  1.00  0.00     0.152 A 
HETATM    6  C   UNL     1      42.345 -17.633   2.662  1.00  0.00     0.003 A 
HETATM    7  C   UNL     1      41.538 -17.714   3.907  1.00  0.00     0.053 C 
HETATM    8  C   UNL     1      43.289 -18.535   2.194  1.00  0.00     0.069 A 
HETATM    9  N   UNL     1      43.752 -18.006   1.019  1.00  0.00    -0.276 N 
HETATM   10  N   UNL     1      43.174 -16.843   0.673  1.00  0.00    -0.168 NA
HETATM   11  H   UNL     1      44.474 -18.391   0.418  1.00  0.00     0.189 HD
BRANCH   8  12
HETATM   12  C   UNL     1      43.806 -19.787   2.736  1.00  0.00    -0.007 A 
HETATM   13  C   UNL     1      43.717 -20.973   1.998  1.00  0.00     0.014 A 
HETATM   14  C   UNL     1      44.202 -22.173   2.521  1.00  0.00     0.001 A 
HETATM   15  C   UNL     1      44.780 -22.199   3.788  1.00  0.00     0.000 A 
HETATM   16  C   UNL     1      44.876 -21.024   4.533  1.00  0.00     0.001 A 
HETATM   17  C   UNL     1      44.390 -19.823   4.011  1.00  0.00     0.014 A 
ENDBRANCH   8  12
ENDBRANCH   1   5
BRANCH   2  18
HETATM   18  C   UNL     1      39.759 -14.207   0.361  1.00  0.00     0.156 C 
BRANCH  18  19
HETATM   19  C   UNL     1      39.589 -13.998  -1.175  1.00  0.00     0.209 C 
BRANCH  19  20
HETATM   20  N   UNL     1      40.550 -12.889  -1.652  1.00  0.00    -0.065 N 
HETATM   21  H   UNL     1      39.920 -12.098  -1.903  1.00  0.00     0.280 HD
HETATM   22  C   UNL     1      41.363 -13.059  -2.924  1.00  0.00     0.235 C 
HETATM   23  C   UNL     1      42.802 -12.832  -2.500  1.00  0.00     0.029 C 
HETATM   24  C   UNL     1      42.679 -11.836  -1.365  1.00  0.00     0.029 C 
HETATM   25  C   UNL     1      41.469 -12.325  -0.593  1.00  0.00     0.235 C 
ENDBRANCH  19  20
BRANCH  19  26
HETATM   26  C   UNL     1      38.118 -13.820  -1.658  1.00  0.00     0.010 C 
HETATM   27  C   UNL     1      37.719 -12.342  -1.770  1.00  0.00     0.011 C 
HETATM   28  C   UNL     1      37.865 -14.469  -3.028  1.00  0.00     0.011 C 
ENDBRANCH  19  26
ENDBRANCH  18  19
ENDBRANCH   2  18
TORSDOF 6
ENDMDL
MODEL 6
REMARK VINA RESULT:      -7.7      1.653      2.740
REMARK  6 active torsions:
REMARK  status: ('A' for Active; 'I' for Inactive)
REMARK    1  A    between atoms: C_3  and  C_4 
REMARK       I    between atoms: C_4  and  N_5 
REMARK    2  A    between atoms: N_5  and  C_6 
REMARK    3  A    between atoms: C_6  and  C_7 
REMARK    4  A    between atoms: C_7  and  N_8 
REMARK    5  A    between atoms: C_7  and  C_14 
REMARK    6  A    between atoms: C_21  and  C_22 
ROOT
HETATM    1  C   UNL     1      41.016 -14.635   1.927  1.00  0.00     0.272 C 
HETATM    2  N   UNL     1      41.072 -14.394   0.568  1.00  0.00    -0.354 N 
HETATM    3  O   UNL     1      40.222 -14.023   2.643  1.00  0.00    -0.266 OA
HETATM    4  H   UNL     1      41.823 -14.898   0.093  1.00  0.00     0.162 HD
ENDROOT
BRANCH   1   5
HETATM    5  C   UNL     1      41.929 -15.695   2.377  1.00  0.00     0.152 A 
HETATM    6  C   UNL     1      41.916 -17.082   2.041  1.00  0.00     0.003 A 
HETATM    7  C   UNL     1      40.961 -17.778   1.141  1.00  0.00     0.053 C 
HETATM    8  C   UNL     1      42.985 -17.626   2.739  1.00  0.00     0.069 A 
HETATM    9  N   UNL     1      43.544 -16.582   3.426  1.00  0.00    -0.276 N 
HETATM   10  N   UNL     1      42.941 -15.399   3.217  1.00  0.00    -0.168 NA
HETATM   11  H   UNL     1      44.334 -16.622   4.062  1.00  0.00     0.189 HD
BRANCH   8  12
HETATM   12  C   UNL     1      43.497 -18.988   2.848  1.00  0.00    -0.007 A 
HETATM   13  C   UNL     1      44.226 -19.385   3.975  1.00  0.00     0.014 A 
HETATM   14  C   UNL     1      44.726 -20.685   4.075  1.00  0.00     0.001 A 
HETATM   15  C   UNL     1      44.503 -21.599   3.047  1.00  0.00     0.000 A 
HETATM   16  C   UNL     1      43.778 -21.216   1.920  1.00  0.00     0.001 A 
HETATM   17  C   UNL     1      43.278 -19.915   1.820  1.00  0.00     0.014 A 
ENDBRANCH   8  12
ENDBRANCH   1   5
BRANCH   2  18
HETATM   18  C   UNL     1      40.494 -13.203  -0.013  1.00  0.00     0.156 C 
BRANCH  18  19
HETATM   19  C   UNL     1      40.341 -13.229  -1.564  1.00  0.00     0.209 C 
BRANCH  19  20
HETATM   20  N   UNL     1      39.540 -14.480  -1.982  1.00  0.00    -0.065 N 
HETATM   21  H   UNL     1      39.332 -14.961  -1.083  1.00  0.00     0.280 HD
HETATM   22  C   UNL     1      40.194 -15.589  -2.790  1.00  0.00     0.235 C 
HETATM   23  C   UNL     1      39.308 -15.757  -4.009  1.00  0.00     0.029 C 
HETATM   24  C   UNL     1      37.929 -15.402  -3.492  1.00  0.00     0.029 C 
HETATM   25  C   UNL     1      38.184 -14.209  -2.593  1.00  0.00     0.235 C 
ENDBRANCH  19  20
BRANCH  19  26
HETATM   26  C   UNL     1      41.664 -13.023  -2.362  1.00  0.00     0.010 C 
HETATM   27  C   UNL     1      41.418 -12.412  -3.747  1.00  0.00     0.011 C 
HETATM   28  C   UNL     1      42.658 -12.109  -1.626  1.00  0.00     0.011 C 
ENDBRANCH  19  26
ENDBRANCH  18  19
ENDBRANCH   2  18
TORSDOF 6
ENDMDL
MODEL 7
REMARK VINA RESULT:      -7.5      1.261      2.901
REMARK  6 active torsions:
REMARK  status: ('A' for Active; 'I' for Inactive)
REMARK    1  A    between atoms: C_3  and  C_4 
REMARK       I    between atoms: C_4  and  N_5 
REMARK    2  A    between atoms: N_5  and  C_6 
REMARK    3  A    between atoms: C_6  and  C_7 
REMARK    4  A    between atoms: C_7  and  N_8 
REMARK    5  A    between atoms: C_7  and  C_14 
REMARK    6  A    between atoms: C_21  and  C_22 
ROOT
HETATM    1  C   UNL     1      42.025 -15.131   1.684  1.00  0.00     0.272 C 
HETATM    2  N   UNL     1      41.682 -15.280   0.354  1.00  0.00    -0.354 N 
HETATM    3  O   UNL     1      42.084 -14.012   2.197  1.00  0.00    -0.266 OA
HETATM    4  H   UNL     1      41.748 -16.244   0.020  1.00  0.00     0.162 HD
ENDROOT
BRANCH   1   5
HETATM    5  C   UNL     1      42.239 -16.404   2.386  1.00  0.00     0.152 A 
HETATM    6  C   UNL     1      43.247 -17.389   2.154  1.00  0.00     0.003 A 
HETATM    7  C   UNL     1      44.325 -17.346   1.133  1.00  0.00     0.053 C 
HETATM    8  C   UNL     1      42.991 -18.384   3.086  1.00  0.00     0.069 A 
HETATM    9  N   UNL     1      41.892 -17.959   3.785  1.00  0.00    -0.276 N 
HETATM   10  N   UNL     1      41.424 -16.759   3.398  1.00  0.00    -0.168 NA
HETATM   11  H   UNL     1      41.412 -18.454   4.530  1.00  0.00     0.189 HD
BRANCH   8  12
HETATM   12  C   UNL     1      43.632 -19.666   3.358  1.00  0.00    -0.007 A 
HETATM   13  C   UNL     1      44.233 -19.912   4.598  1.00  0.00     0.014 A 
HETATM   14  C   UNL     1      44.857 -21.135   4.854  1.00  0.00     0.001 A 
HETATM   15  C   UNL     1      44.886 -22.123   3.871  1.00  0.00     0.000 A 
HETATM   16  C   UNL     1      44.290 -21.890   2.633  1.00  0.00     0.001 A 
HETATM   17  C   UNL     1      43.666 -20.666   2.376  1.00  0.00     0.014 A 
ENDBRANCH   8  12
ENDBRANCH   1   5
BRANCH   2  18
HETATM   18  C   UNL     1      41.734 -14.170  -0.570  1.00  0.00     0.156 C 
BRANCH  18  19
HETATM   19  C   UNL     1      40.349 -13.591  -0.990  1.00  0.00     0.209 C 
BRANCH  19  20
HETATM   20  N   UNL     1      39.503 -13.312   0.269  1.00  0.00    -0.065 N 
HETATM   21  H   UNL     1      40.098 -13.648   1.056  1.00  0.00     0.280 HD
HETATM   22  C   UNL     1      38.204 -14.061   0.516  1.00  0.00     0.235 C 
HETATM   23  C   UNL     1      37.161 -12.977   0.711  1.00  0.00     0.029 C 
HETATM   24  C   UNL     1      37.946 -11.844   1.340  1.00  0.00     0.029 C 
HETATM   25  C   UNL     1      39.255 -11.852   0.575  1.00  0.00     0.235 C 
ENDBRANCH  19  20
BRANCH  19  26
HETATM   26  C   UNL     1      39.602 -14.401  -2.093  1.00  0.00     0.010 C 
HETATM   27  C   UNL     1      38.806 -13.495  -3.040  1.00  0.00     0.011 C 
HETATM   28  C   UNL     1      40.559 -15.241  -2.956  1.00  0.00     0.011 C 
ENDBRANCH  19  26
ENDBRANCH  18  19
ENDBRANCH   2  18
TORSDOF 6
ENDMDL
MODEL 8
REMARK VINA RESULT:      -7.5      4.406      6.505
REMARK  6 active torsions:
REMARK  status: ('A' for Active; 'I' for Inactive)
REMARK    1  A    between atoms: C_3  and  C_4 
REMARK       I    between atoms: C_4  and  N_5 
REMARK    2  A    between atoms: N_5  and  C_6 
REMARK    3  A    between atoms: C_6  and  C_7 
REMARK    4  A    between atoms: C_7  and  N_8 
REMARK    5  A    between atoms: C_7  and  C_14 
REMARK    6  A    between atoms: C_21  and  C_22 
ROOT
HETATM    1  C   UNL     1      40.878 -14.370   4.917  1.00  0.00     0.272 C 
HETATM    2  N   UNL     1      40.486 -14.012   6.192  1.00  0.00    -0.354 N 
HETATM    3  O   UNL     1      40.863 -13.547   4.000  1.00  0.00    -0.266 OA
HETATM    4  H   UNL     1      40.460 -14.795   6.848  1.00  0.00     0.162 HD
ENDROOT
BRANCH   1   5
HETATM    5  C   UNL     1      41.346 -15.758   4.810  1.00  0.00     0.152 A 
HETATM    6  C   UNL     1      42.358 -16.293   3.956  1.00  0.00     0.003 A 
HETATM    7  C   UNL     1      43.183 -15.550   2.968  1.00  0.00     0.053 C 
HETATM    8  C   UNL     1      42.394 -17.647   4.253  1.00  0.00     0.069 A 
HETATM    9  N   UNL     1      41.441 -17.837   5.218  1.00  0.00    -0.276 N 
HETATM   10  N   UNL     1      40.801 -16.714   5.588  1.00  0.00    -0.168 NA
HETATM   11  H   UNL     1      41.177 -18.716   5.652  1.00  0.00     0.189 HD
BRANCH   8  12
HETATM   12  C   UNL     1      43.185 -18.751   3.719  1.00  0.00    -0.007 A 
HETATM   13  C   UNL     1      44.187 -19.348   4.492  1.00  0.00     0.014 A 
HETATM   14  C   UNL     1      44.951 -20.397   3.977  1.00  0.00     0.001 A 
HETATM   15  C   UNL     1      44.720 -20.858   2.682  1.00  0.00     0.000 A 
HETATM   16  C   UNL     1      43.724 -20.272   1.903  1.00  0.00     0.001 A 
HETATM   17  C   UNL     1      42.960 -19.222   2.418  1.00  0.00     0.014 A 
ENDBRANCH   8  12
ENDBRANCH   1   5
BRANCH   2  18
HETATM   18  C   UNL     1      39.717 -12.813   6.439  1.00  0.00     0.156 C 
BRANCH  18  19
HETATM   19  C   UNL     1      40.556 -11.543   6.775  1.00  0.00     0.209 C 
BRANCH  19  20
HETATM   20  N   UNL     1      40.577 -11.330   8.303  1.00  0.00    -0.065 N 
HETATM   21  H   UNL     1      40.766 -12.278   8.691  1.00  0.00     0.280 HD
HETATM   22  C   UNL     1      39.315 -10.930   9.050  1.00  0.00     0.235 C 
HETATM   23  C   UNL     1      39.692  -9.670   9.805  1.00  0.00     0.029 C 
HETATM   24  C   UNL     1      41.164  -9.867  10.103  1.00  0.00     0.029 C 
HETATM   25  C   UNL     1      41.708 -10.472   8.824  1.00  0.00     0.235 C 
ENDBRANCH  19  20
BRANCH  19  26
HETATM   26  C   UNL     1      40.183 -10.270   5.958  1.00  0.00     0.010 C 
HETATM   27  C   UNL     1      41.384  -9.699   5.193  1.00  0.00     0.011 C 
HETATM   28  C   UNL     1      39.068 -10.534   4.932  1.00  0.00     0.011 C 
ENDBRANCH  19  26
ENDBRANCH  18  19
ENDBRANCH   2  18
TORSDOF 6
ENDMDL
MODEL 9
REMARK VINA RESULT:      -7.4      2.524      8.571
REMARK  6 active torsions:
REMARK  status: ('A' for Active; 'I' for Inactive)
REMARK    1  A    between atoms: C_3  and  C_4 
REMARK       I    between atoms: C_4  and  N_5 
REMARK    2  A    between atoms: N_5  and  C_6 
REMARK    3  A    between atoms: C_6  and  C_7 
REMARK    4  A    between atoms: C_7  and  N_8 
REMARK    5  A    between atoms: C_7  and  C_14 
REMARK    6  A    between atoms: C_21  and  C_22 
ROOT
HETATM    1  C   UNL     1      40.687 -15.697   1.646  1.00  0.00     0.272 C 
HETATM    2  N   UNL     1      41.728 -16.064   2.475  1.00  0.00    -0.354 N 
HETATM    3  O   UNL     1      39.520 -15.957   1.947  1.00  0.00    -0.266 OA
HETATM    4  H   UNL     1      42.652 -15.872   2.083  1.00  0.00     0.162 HD
ENDROOT
BRANCH   1   5
HETATM    5  C   UNL     1      41.114 -14.948   0.456  1.00  0.00     0.152 A 
HETATM    6  C   UNL     1      41.310 -13.541   0.314  1.00  0.00     0.003 A 
HETATM    7  C   UNL     1      41.125 -12.499   1.357  1.00  0.00     0.053 C 
HETATM    8  C   UNL     1      41.705 -13.370  -1.005  1.00  0.00     0.069 A 
HETATM    9  N   UNL     1      41.715 -14.625  -1.551  1.00  0.00    -0.276 N 
HETATM   10  N   UNL     1      41.379 -15.603  -0.692  1.00  0.00    -0.168 NA
HETATM   11  H   UNL     1      41.933 -14.873  -2.512  1.00  0.00     0.189 HD
BRANCH   8  12
HETATM   12  C   UNL     1      42.032 -12.182  -1.788  1.00  0.00    -0.007 A 
HETATM   13  C   UNL     1      41.453 -11.977  -3.045  1.00  0.00     0.014 A 
HETATM   14  C   UNL     1      41.775 -10.847  -3.799  1.00  0.00     0.001 A 
HETATM   15  C   UNL     1      42.680  -9.912  -3.303  1.00  0.00     0.000 A 
HETATM   16  C   UNL     1      43.263 -10.104  -2.051  1.00  0.00     0.001 A 
HETATM   17  C   UNL     1      42.942 -11.235  -1.296  1.00  0.00     0.014 A 
ENDBRANCH   8  12
ENDBRANCH   1   5
BRANCH   2  18
HETATM   18  C   UNL     1      41.555 -17.056   3.513  1.00  0.00     0.156 C 
BRANCH  18  19
HETATM   19  C   UNL     1      42.599 -18.213   3.506  1.00  0.00     0.209 C 
BRANCH  19  20
HETATM   20  N   UNL     1      43.784 -17.843   4.422  1.00  0.00    -0.065 N 
HETATM   21  H   UNL     1      44.489 -17.432   3.775  1.00  0.00     0.280 HD
HETATM   22  C   UNL     1      44.592 -18.923   5.123  1.00  0.00     0.235 C 
HETATM   23  C   UNL     1      44.547 -18.551   6.593  1.00  0.00     0.029 C 
HETATM   24  C   UNL     1      44.468 -17.039   6.569  1.00  0.00     0.029 C 
HETATM   25  C   UNL     1      43.510 -16.751   5.431  1.00  0.00     0.235 C 
ENDBRANCH  19  20
BRANCH  19  26
HETATM   26  C   UNL     1      43.019 -18.715   2.091  1.00  0.00     0.010 C 
HETATM   27  C   UNL     1      44.222 -17.941   1.535  1.00  0.00     0.011 C 
HETATM   28  C   UNL     1      43.387 -20.207   2.081  1.00  0.00     0.011 C 
ENDBRANCH  19  26
ENDBRANCH  18  19
ENDBRANCH   2  18
TORSDOF 6
ENDMDL
MODEL 10
REMARK VINA RESULT:      -7.4      2.431      3.650
REMARK  6 active torsions:
REMARK  status: ('A' for Active; 'I' for Inactive)
REMARK    1  A    between atoms: C_3  and  C_4 
REMARK       I    between atoms: C_4  and  N_5 
REMARK    2  A    between atoms: N_5  and  C_6 
REMARK    3  A    between atoms: C_6  and  C_7 
REMARK    4  A    between atoms: C_7  and  N_8 
REMARK    5  A    between atoms: C_7  and  C_14 
REMARK    6  A    between atoms: C_21  and  C_22 
ROOT
HETATM    1  C   UNL     1      41.421 -14.727   0.675  1.00  0.00     0.272 C 
HETATM    2  N   UNL     1      41.791 -14.536  -0.641  1.00  0.00    -0.354 N 
HETATM    3  O   UNL     1      40.788 -13.862   1.283  1.00  0.00    -0.266 OA
HETATM    4  H   UNL     1      42.382 -15.282  -1.014  1.00  0.00     0.162 HD
ENDROOT
BRANCH   1   5
HETATM    5  C   UNL     1      41.800 -16.041   1.212  1.00  0.00     0.152 A 
HETATM    6  C   UNL     1      42.732 -16.343   2.250  1.00  0.00     0.003 A 
HETATM    7  C   UNL     1      43.541 -15.377   3.037  1.00  0.00     0.053 C 
HETATM    8  C   UNL     1      42.713 -17.726   2.354  1.00  0.00     0.069 A 
HETATM    9  N   UNL     1      41.817 -18.152   1.410  1.00  0.00    -0.276 N 
HETATM   10  N   UNL     1      41.236 -17.159   0.714  1.00  0.00    -0.168 NA
HETATM   11  H   UNL     1      41.571 -19.112   1.189  1.00  0.00     0.189 HD
BRANCH   8  12
HETATM   12  C   UNL     1      43.450 -18.660   3.199  1.00  0.00    -0.007 A 
HETATM   13  C   UNL     1      43.407 -18.543   4.593  1.00  0.00     0.014 A 
HETATM   14  C   UNL     1      44.121 -19.430   5.401  1.00  0.00     0.001 A 
HETATM   15  C   UNL     1      44.886 -20.441   4.823  1.00  0.00     0.000 A 
HETATM   16  C   UNL     1      44.935 -20.568   3.435  1.00  0.00     0.001 A 
HETATM   17  C   UNL     1      44.222 -19.681   2.626  1.00  0.00     0.014 A 
ENDBRANCH   8  12
ENDBRANCH   1   5
BRANCH   2  18
HETATM   18  C   UNL     1      41.789 -13.222  -1.245  1.00  0.00     0.156 C 
BRANCH  18  19
HETATM   19  C   UNL     1      41.803 -13.208  -2.804  1.00  0.00     0.209 C 
BRANCH  19  20
HETATM   20  N   UNL     1      42.583 -11.973  -3.300  1.00  0.00    -0.065 N 
HETATM   21  H   UNL     1      43.544 -12.333  -3.479  1.00  0.00     0.280 HD
HETATM   22  C   UNL     1      42.855 -10.799  -2.374  1.00  0.00     0.235 C 
HETATM   23  C   UNL     1      42.307  -9.590  -3.106  1.00  0.00     0.029 C 
HETATM   24  C   UNL     1      42.507  -9.944  -4.566  1.00  0.00     0.029 C 
HETATM   25  C   UNL     1      42.133 -11.411  -4.630  1.00  0.00     0.235 C 
ENDBRANCH  19  20
BRANCH  19  26
HETATM   26  C   UNL     1      40.410 -13.396  -3.478  1.00  0.00     0.010 C 
HETATM   27  C   UNL     1      40.038 -14.876  -3.635  1.00  0.00     0.011 C 
HETATM   28  C   UNL     1      39.278 -12.718  -2.691  1.00  0.00     0.011 C 
ENDBRANCH  19  26
ENDBRANCH  18  19
ENDBRANCH   2  18
TORSDOF 6
ENDMDL
