MODEL 1
REMARK VINA RESULT:      -8.0      0.000      0.000
REMARK  5 active torsions:
REMARK  status: ('A' for Active; 'I' for Inactive)
REMARK    1  A    between atoms: C_2  and  C_3 
REMARK       I    between atoms: C_3  and  N_4 
REMARK    2  A    between atoms: N_4  and  C_5 
REMARK    3  A    between atoms: C_7  and  N_8 
REMARK       I    between atoms: N_8  and  C_9 
REMARK       I    between atoms: C_9  and  N_10 
REMARK    4  A    between atoms: N_10  and  C_11 
REMARK    5  A    between atoms: C_11  and  C_12 
ROOT
HETATM    1  N   UNL     1      44.381 -15.944   7.132  1.00  0.00    -0.306 N 
HETATM    2  C   UNL     1      44.404 -14.764   6.492  1.00  0.00     0.321 C 
HETATM    3  N   UNL     1      43.883 -14.527   5.284  1.00  0.00    -0.338 N 
HETATM    4  O   UNL     1      44.886 -13.800   7.095  1.00  0.00    -0.247 OA
HETATM    5  H   UNL     1      44.581 -15.793   8.118  1.00  0.00     0.171 HD
HETATM    6  H   UNL     1      43.999 -13.551   5.048  1.00  0.00     0.164 HD
ENDROOT
BRANCH   1   7
HETATM    7  C   UNL     1      44.262 -17.300   6.786  1.00  0.00     0.077 C 
HETATM    8  C   UNL     1      44.558 -17.847   5.539  1.00  0.00     0.062 C 
HETATM    9  C   UNL     1      44.318 -19.203   5.272  1.00  0.00     0.037 C 
HETATM   10  C   UNL     1      43.910 -20.046   6.314  1.00  0.00     0.032 C 
HETATM   11  C   UNL     1      43.705 -19.534   7.593  1.00  0.00     0.047 C 
HETATM   12  C   UNL     1      43.871 -18.172   7.812  1.00  0.00     0.143 C 
HETATM   13  F   UNL     1      43.643 -17.687   9.044  1.00  0.00    -0.204 F 
BRANCH   9  14
HETATM   14  N   UNL     1      44.408 -19.783   3.988  1.00  0.00    -0.327 N 
HETATM   15  C   UNL     1      43.556 -19.583   2.916  1.00  0.00     0.221 C 
HETATM   16  O   UNL     1      42.682 -18.728   2.825  1.00  0.00    -0.273 OA
HETATM   17  H   UNL     1      45.111 -20.503   3.875  1.00  0.00     0.169 HD
BRANCH  15  18
HETATM   18  C   UNL     1      43.763 -20.598   1.808  1.00  0.00     0.098 C 
HETATM   19  C   UNL     1      44.344 -21.892   2.356  1.00  0.00     0.014 C 
ENDBRANCH  15  18
ENDBRANCH   9  14
ENDBRANCH   1   7
BRANCH   3  20
HETATM   20  C   UNL     1      42.898 -15.234   4.496  1.00  0.00     0.167 C 
BRANCH  20  21
HETATM   21  C   UNL     1      41.524 -14.838   4.924  1.00  0.00     0.009 A 
HETATM   22  C   UNL     1      40.872 -13.594   4.691  1.00  0.00     0.060 A 
HETATM   23  C   UNL     1      41.392 -12.413   3.958  1.00  0.00     0.073 C 
HETATM   24  N   UNL     1      39.660 -13.551   5.257  1.00  0.00    -0.179 NA
HETATM   25  N   UNL     1      39.535 -14.743   5.856  1.00  0.00    -0.282 N 
HETATM   26  H   UNL     1      38.680 -14.932   6.368  1.00  0.00     0.189 HD
HETATM   27  C   UNL     1      40.626 -15.550   5.707  1.00  0.00     0.034 A 
HETATM   28  C   UNL     1      40.702 -16.891   6.335  1.00  0.00     0.070 C 
ENDBRANCH  20  21
ENDBRANCH   3  20
TORSDOF 5
ENDMDL
MODEL 2
REMARK VINA RESULT:      -7.7      1.819      2.065
REMARK  5 active torsions:
REMARK  status: ('A' for Active; 'I' for Inactive)
REMARK    1  A    between atoms: C_2  and  C_3 
REMARK       I    between atoms: C_3  and  N_4 
REMARK    2  A    between atoms: N_4  and  C_5 
REMARK    3  A    between atoms: C_7  and  N_8 
REMARK       I    between atoms: N_8  and  C_9 
REMARK       I    between atoms: C_9  and  N_10 
REMARK    4  A    between atoms: N_10  and  C_11 
REMARK    5  A    between atoms: C_11  and  C_12 
ROOT
HETATM    1  N   UNL     1      44.030 -16.044   6.441  1.00  0.00    -0.306 N 
HETATM    2  C   UNL     1      43.633 -15.083   5.592  1.00  0.00     0.321 C 
HETATM    3  N   UNL     1      42.763 -15.244   4.590  1.00  0.00    -0.338 N 
HETATM    4  O   UNL     1      44.053 -13.938   5.792  1.00  0.00    -0.247 OA
HETATM    5  H   UNL     1      44.457 -15.612   7.257  1.00  0.00     0.171 HD
HETATM    6  H   UNL     1      42.605 -14.360   4.128  1.00  0.00     0.164 HD
ENDROOT
BRANCH   1   7
HETATM    7  C   UNL     1      44.102 -17.446   6.447  1.00  0.00     0.077 C 
HETATM    8  C   UNL     1      44.636 -18.234   5.429  1.00  0.00     0.062 C 
HETATM    9  C   UNL     1      44.578 -19.634   5.496  1.00  0.00     0.037 C 
HETATM   10  C   UNL     1      44.105 -20.246   6.664  1.00  0.00     0.032 C 
HETATM   11  C   UNL     1      43.661 -19.471   7.734  1.00  0.00     0.047 C 
HETATM   12  C   UNL     1      43.653 -18.088   7.610  1.00  0.00     0.143 C 
HETATM   13  F   UNL     1      43.195 -17.354   8.637  1.00  0.00    -0.204 F 
BRANCH   9  14
HETATM   14  N   UNL     1      44.918 -20.491   4.427  1.00  0.00    -0.327 N 
HETATM   15  C   UNL     1      44.331 -20.542   3.174  1.00  0.00     0.221 C 
HETATM   16  O   UNL     1      43.541 -19.732   2.702  1.00  0.00    -0.273 OA
HETATM   17  H   UNL     1      45.592 -21.217   4.637  1.00  0.00     0.169 HD
BRANCH  15  18
HETATM   18  C   UNL     1      44.726 -21.782   2.395  1.00  0.00     0.098 C 
HETATM   19  C   UNL     1      43.832 -21.969   1.179  1.00  0.00     0.014 C 
ENDBRANCH  15  18
ENDBRANCH   9  14
ENDBRANCH   1   7
BRANCH   3  20
HETATM   20  C   UNL     1      41.767 -16.258   4.324  1.00  0.00     0.167 C 
BRANCH  20  21
HETATM   21  C   UNL     1      40.831 -15.786   3.259  1.00  0.00     0.009 A 
HETATM   22  C   UNL     1      39.935 -14.683   3.327  1.00  0.00     0.060 A 
HETATM   23  C   UNL     1      39.732 -13.738   4.453  1.00  0.00     0.073 C 
HETATM   24  N   UNL     1      39.201 -14.567   2.214  1.00  0.00    -0.179 NA
HETATM   25  N   UNL     1      39.608 -15.585   1.445  1.00  0.00    -0.282 N 
HETATM   26  H   UNL     1      39.170 -15.703   0.537  1.00  0.00     0.189 HD
HETATM   27  C   UNL     1      40.570 -16.361   2.024  1.00  0.00     0.034 A 
HETATM   28  C   UNL     1      41.118 -17.564   1.353  1.00  0.00     0.070 C 
ENDBRANCH  20  21
ENDBRANCH   3  20
TORSDOF 5
ENDMDL
MODEL 3
REMARK VINA RESULT:      -7.7      2.874      3.303
REMARK  5 active torsions:
REMARK  status: ('A' for Active; 'I' for Inactive)
REMARK    1  A    between atoms: C_2  and  C_3 
REMARK       I    between atoms: C_3  and  N_4 
REMARK    2  A    between atoms: N_4  and  C_5 
REMARK    3  A    between atoms: C_7  and  N_8 
REMARK       I    between atoms: N_8  and  C_9 
REMARK       I    between atoms: C_9  and  N_10 
REMARK    4  A    between atoms: N_10  and  C_11 
REMARK    5  A    between atoms: C_11  and  C_12 
ROOT
HETATM    1  N   UNL     1      41.377 -16.426   5.364  1.00  0.00    -0.306 N 
HETATM    2  C   UNL     1      40.993 -15.223   4.908  1.00  0.00     0.321 C 
HETATM    3  N   UNL     1      41.601 -14.531   3.939  1.00  0.00    -0.338 N 
HETATM    4  O   UNL     1      39.954 -14.743   5.373  1.00  0.00    -0.247 OA
HETATM    5  H   UNL     1      40.608 -16.847   5.881  1.00  0.00     0.171 HD
HETATM    6  H   UNL     1      41.092 -13.677   3.757  1.00  0.00     0.164 HD
ENDROOT
BRANCH   1   7
HETATM    7  C   UNL     1      42.559 -17.183   5.403  1.00  0.00     0.077 C 
HETATM    8  C   UNL     1      42.881 -18.227   4.537  1.00  0.00     0.062 C 
HETATM    9  C   UNL     1      44.051 -18.978   4.720  1.00  0.00     0.037 C 
HETATM   10  C   UNL     1      44.975 -18.583   5.696  1.00  0.00     0.032 C 
HETATM   11  C   UNL     1      44.715 -17.479   6.505  1.00  0.00     0.047 C 
HETATM   12  C   UNL     1      43.511 -16.802   6.358  1.00  0.00     0.143 C 
HETATM   13  F   UNL     1      43.260 -15.757   7.164  1.00  0.00    -0.204 F 
BRANCH   9  14
HETATM   14  N   UNL     1      44.348 -20.162   4.011  1.00  0.00    -0.327 N 
HETATM   15  C   UNL     1      44.179 -20.394   2.657  1.00  0.00     0.221 C 
HETATM   16  O   UNL     1      43.921 -19.559   1.798  1.00  0.00    -0.273 OA
HETATM   17  H   UNL     1      44.612 -20.962   4.573  1.00  0.00     0.169 HD
BRANCH  15  18
HETATM   18  C   UNL     1      44.297 -21.863   2.296  1.00  0.00     0.098 C 
HETATM   19  C   UNL     1      44.643 -22.698   3.519  1.00  0.00     0.014 C 
ENDBRANCH  15  18
ENDBRANCH   9  14
ENDBRANCH   1   7
BRANCH   3  20
HETATM   20  C   UNL     1      42.523 -14.926   2.897  1.00  0.00     0.167 C 
BRANCH  20  21
HETATM   21  C   UNL     1      41.819 -14.966   1.581  1.00  0.00     0.009 A 
HETATM   22  C   UNL     1      41.555 -13.871   0.710  1.00  0.00     0.060 A 
HETATM   23  C   UNL     1      41.931 -12.447   0.893  1.00  0.00     0.073 C 
HETATM   24  N   UNL     1      40.856 -14.246  -0.367  1.00  0.00    -0.179 NA
HETATM   25  N   UNL     1      40.660 -15.560  -0.190  1.00  0.00    -0.282 N 
HETATM   26  H   UNL     1      40.130 -16.063  -0.894  1.00  0.00     0.189 HD
HETATM   27  C   UNL     1      41.197 -16.044   0.968  1.00  0.00     0.034 A 
HETATM   28  C   UNL     1      41.048 -17.463   1.370  1.00  0.00     0.070 C 
ENDBRANCH  20  21
ENDBRANCH   3  20
TORSDOF 5
ENDMDL
MODEL 4
REMARK VINA RESULT:      -7.6      2.990      3.572
REMARK  5 active torsions:
REMARK  status: ('A' for Active; 'I' for Inactive)
REMARK    1  A    between atoms: C_2  and  C_3 
REMARK       I    between atoms: C_3  and  N_4 
REMARK    2  A    between atoms: N_4  and  C_5 
REMARK    3  A    between atoms: C_7  and  N_8 
REMARK       I    between atoms: N_8  and  C_9 
REMARK       I    between atoms: C_9  and  N_10 
REMARK    4  A    between atoms: N_10  and  C_11 
REMARK    5  A    between atoms: C_11  and  C_12 
ROOT
HETATM    1  N   UNL     1      41.765 -16.531   6.131  1.00  0.00    -0.306 N 
HETATM    2  C   UNL     1      40.937 -15.726   5.446  1.00  0.00     0.321 C 
HETATM    3  N   UNL     1      40.690 -15.802   4.134  1.00  0.00    -0.338 N 
HETATM    4  O   UNL     1      40.298 -14.887   6.090  1.00  0.00    -0.247 OA
HETATM    5  H   UNL     1      41.561 -16.451   7.124  1.00  0.00     0.171 HD
HETATM    6  H   UNL     1      40.002 -15.109   3.875  1.00  0.00     0.164 HD
ENDROOT
BRANCH   1   7
HETATM    7  C   UNL     1      42.873 -17.347   5.850  1.00  0.00     0.077 C 
HETATM    8  C   UNL     1      42.935 -18.308   4.841  1.00  0.00     0.062 C 
HETATM    9  C   UNL     1      44.061 -19.133   4.703  1.00  0.00     0.037 C 
HETATM   10  C   UNL     1      45.190 -18.893   5.497  1.00  0.00     0.032 C 
HETATM   11  C   UNL     1      45.180 -17.870   6.442  1.00  0.00     0.047 C 
HETATM   12  C   UNL     1      44.024 -17.120   6.616  1.00  0.00     0.143 C 
HETATM   13  F   UNL     1      44.019 -16.155   7.550  1.00  0.00    -0.204 F 
BRANCH   9  14
HETATM   14  N   UNL     1      44.121 -20.249   3.840  1.00  0.00    -0.327 N 
HETATM   15  C   UNL     1      44.581 -21.519   4.142  1.00  0.00     0.221 C 
HETATM   16  O   UNL     1      44.844 -21.957   5.256  1.00  0.00    -0.273 OA
HETATM   17  H   UNL     1      43.902 -20.070   2.868  1.00  0.00     0.169 HD
BRANCH  15  18
HETATM   18  C   UNL     1      44.798 -22.370   2.905  1.00  0.00     0.098 C 
HETATM   19  C   UNL     1      44.063 -21.790   1.707  1.00  0.00     0.014 C 
ENDBRANCH  15  18
ENDBRANCH   9  14
ENDBRANCH   1   7
BRANCH   3  20
HETATM   20  C   UNL     1      40.881 -16.864   3.171  1.00  0.00     0.167 C 
BRANCH  20  21
HETATM   21  C   UNL     1      41.203 -16.285   1.832  1.00  0.00     0.009 A 
HETATM   22  C   UNL     1      40.422 -15.361   1.082  1.00  0.00     0.060 A 
HETATM   23  C   UNL     1      39.125 -14.745   1.457  1.00  0.00     0.073 C 
HETATM   24  N   UNL     1      40.976 -15.085  -0.104  1.00  0.00    -0.179 NA
HETATM   25  N   UNL     1      42.091 -15.828  -0.126  1.00  0.00    -0.282 N 
HETATM   26  H   UNL     1      42.677 -15.787  -0.953  1.00  0.00     0.189 HD
HETATM   27  C   UNL     1      42.271 -16.582   0.999  1.00  0.00     0.034 A 
HETATM   28  C   UNL     1      43.420 -17.506   1.149  1.00  0.00     0.070 C 
ENDBRANCH  20  21
ENDBRANCH   3  20
TORSDOF 5
ENDMDL
MODEL 5
REMARK VINA RESULT:      -7.5      4.940      6.335
REMARK  5 active torsions:
REMARK  status: ('A' for Active; 'I' for Inactive)
REMARK    1  A    between atoms: C_2  and  C_3 
REMARK       I    between atoms: C_3  and  N_4 
REMARK    2  A    between atoms: N_4  and  C_5 
REMARK    3  A    between atoms: C_7  and  N_8 
REMARK       I    between atoms: N_8  and  C_9 
REMARK       I    between atoms: C_9  and  N_10 
REMARK    4  A    between atoms: N_10  and  C_11 
REMARK    5  A    between atoms: C_11  and  C_12 
ROOT
HETATM    1  N   UNL     1      39.366 -15.606   2.358  1.00  0.00    -0.306 N 
HETATM    2  C   UNL     1      38.920 -14.904   1.304  1.00  0.00     0.321 C 
HETATM    3  N   UNL     1      39.647 -14.566   0.234  1.00  0.00    -0.338 N 
HETATM    4  O   UNL     1      37.723 -14.600   1.288  1.00  0.00    -0.247 OA
HETATM    5  H   UNL     1      38.569 -15.961   2.882  1.00  0.00     0.171 HD
HETATM    6  H   UNL     1      39.067 -14.075  -0.432  1.00  0.00     0.164 HD
ENDROOT
BRANCH   1   7
HETATM    7  C   UNL     1      40.602 -15.879   2.965  1.00  0.00     0.077 C 
HETATM    8  C   UNL     1      41.344 -17.048   2.802  1.00  0.00     0.062 C 
HETATM    9  C   UNL     1      42.527 -17.256   3.525  1.00  0.00     0.037 C 
HETATM   10  C   UNL     1      43.042 -16.218   4.313  1.00  0.00     0.032 C 
HETATM   11  C   UNL     1      42.364 -15.005   4.408  1.00  0.00     0.047 C 
HETATM   12  C   UNL     1      41.152 -14.853   3.746  1.00  0.00     0.143 C 
HETATM   13  F   UNL     1      40.495 -13.688   3.869  1.00  0.00    -0.204 F 
BRANCH   9  14
HETATM   14  N   UNL     1      43.225 -18.482   3.562  1.00  0.00    -0.327 N 
HETATM   15  C   UNL     1      43.736 -19.189   2.487  1.00  0.00     0.221 C 
HETATM   16  O   UNL     1      43.842 -18.790   1.332  1.00  0.00    -0.273 OA
HETATM   17  H   UNL     1      43.262 -18.946   4.461  1.00  0.00     0.169 HD
BRANCH  15  18
HETATM   18  C   UNL     1      44.137 -20.604   2.855  1.00  0.00     0.098 C 
HETATM   19  C   UNL     1      43.817 -21.573   1.728  1.00  0.00     0.014 C 
ENDBRANCH  15  18
ENDBRANCH   9  14
ENDBRANCH   1   7
BRANCH   3  20
HETATM   20  C   UNL     1      40.885 -15.087  -0.302  1.00  0.00     0.167 C 
BRANCH  20  21
HETATM   21  C   UNL     1      41.151 -14.489  -1.644  1.00  0.00     0.009 A 
HETATM   22  C   UNL     1      40.796 -15.026  -2.913  1.00  0.00     0.060 A 
HETATM   23  C   UNL     1      40.068 -16.287  -3.201  1.00  0.00     0.073 C 
HETATM   24  N   UNL     1      41.230 -14.259  -3.920  1.00  0.00    -0.179 NA
HETATM   25  N   UNL     1      41.866 -13.249  -3.312  1.00  0.00    -0.282 N 
HETATM   26  H   UNL     1      42.296 -12.536  -3.892  1.00  0.00     0.189 HD
HETATM   27  C   UNL     1      41.868 -13.342  -1.949  1.00  0.00     0.034 A 
HETATM   28  C   UNL     1      42.559 -12.346  -1.096  1.00  0.00     0.070 C 
ENDBRANCH  20  21
ENDBRANCH   3  20
TORSDOF 5
ENDMDL
MODEL 6
REMARK VINA RESULT:      -7.3      3.909      6.291
REMARK  5 active torsions:
REMARK  status: ('A' for Active; 'I' for Inactive)
REMARK    1  A    between atoms: C_2  and  C_3 
REMARK       I    between atoms: C_3  and  N_4 
REMARK    2  A    between atoms: N_4  and  C_5 
REMARK    3  A    between atoms: C_7  and  N_8 
REMARK       I    between atoms: N_8  and  C_9 
REMARK       I    between atoms: C_9  and  N_10 
REMARK    4  A    between atoms: N_10  and  C_11 
REMARK    5  A    between atoms: C_11  and  C_12 
ROOT
HETATM    1  N   UNL     1      42.845 -14.972   3.983  1.00  0.00    -0.306 N 
HETATM    2  C   UNL     1      43.201 -15.596   5.117  1.00  0.00     0.321 C 
HETATM    3  N   UNL     1      42.843 -16.836   5.466  1.00  0.00    -0.338 N 
HETATM    4  O   UNL     1      43.979 -15.003   5.872  1.00  0.00    -0.247 OA
HETATM    5  H   UNL     1      43.462 -14.178   3.832  1.00  0.00     0.171 HD
HETATM    6  H   UNL     1      43.274 -17.081   6.347  1.00  0.00     0.164 HD
ENDROOT
BRANCH   1   7
HETATM    7  C   UNL     1      41.810 -15.066   3.038  1.00  0.00     0.077 C 
HETATM    8  C   UNL     1      41.929 -15.604   1.758  1.00  0.00     0.062 C 
HETATM    9  C   UNL     1      40.852 -15.568   0.860  1.00  0.00     0.037 C 
HETATM   10  C   UNL     1      39.603 -15.114   1.303  1.00  0.00     0.032 C 
HETATM   11  C   UNL     1      39.442 -14.665   2.612  1.00  0.00     0.047 C 
HETATM   12  C   UNL     1      40.544 -14.636   3.457  1.00  0.00     0.143 C 
HETATM   13  F   UNL     1      40.381 -14.174   4.708  1.00  0.00    -0.204 F 
BRANCH   9  14
HETATM   14  N   UNL     1      40.951 -15.913  -0.506  1.00  0.00    -0.327 N 
HETATM   15  C   UNL     1      41.109 -15.053  -1.579  1.00  0.00     0.221 C 
HETATM   16  O   UNL     1      41.378 -13.858  -1.526  1.00  0.00    -0.273 OA
HETATM   17  H   UNL     1      40.783 -16.885  -0.731  1.00  0.00     0.169 HD
BRANCH  15  18
HETATM   18  C   UNL     1      40.858 -15.731  -2.912  1.00  0.00     0.098 C 
HETATM   19  C   UNL     1      39.511 -15.323  -3.487  1.00  0.00     0.014 C 
ENDBRANCH  15  18
ENDBRANCH   9  14
ENDBRANCH   1   7
BRANCH   3  20
HETATM   20  C   UNL     1      42.342 -17.954   4.698  1.00  0.00     0.167 C 
BRANCH  20  21
HETATM   21  C   UNL     1      43.427 -18.959   4.497  1.00  0.00     0.009 A 
HETATM   22  C   UNL     1      44.027 -19.347   3.265  1.00  0.00     0.060 A 
HETATM   23  C   UNL     1      43.730 -18.836   1.904  1.00  0.00     0.073 C 
HETATM   24  N   UNL     1      44.936 -20.314   3.434  1.00  0.00    -0.179 NA
HETATM   25  N   UNL     1      44.917 -20.556   4.752  1.00  0.00    -0.282 N 
HETATM   26  H   UNL     1      45.532 -21.277   5.114  1.00  0.00     0.189 HD
HETATM   27  C   UNL     1      44.020 -19.788   5.438  1.00  0.00     0.034 A 
HETATM   28  C   UNL     1      43.815 -19.938   6.899  1.00  0.00     0.070 C 
ENDBRANCH  20  21
ENDBRANCH   3  20
TORSDOF 5
ENDMDL
MODEL 7
REMARK VINA RESULT:      -7.3      5.022      6.924
REMARK  5 active torsions:
REMARK  status: ('A' for Active; 'I' for Inactive)
REMARK    1  A    between atoms: C_2  and  C_3 
REMARK       I    between atoms: C_3  and  N_4 
REMARK    2  A    between atoms: N_4  and  C_5 
REMARK    3  A    between atoms: C_7  and  N_8 
REMARK       I    between atoms: N_8  and  C_9 
REMARK       I    between atoms: C_9  and  N_10 
REMARK    4  A    between atoms: N_10  and  C_11 
REMARK    5  A    between atoms: C_11  and  C_12 
ROOT
HETATM    1  N   UNL     1      39.483 -15.837   1.806  1.00  0.00    -0.306 N 
HETATM    2  C   UNL     1      39.235 -14.732   1.085  1.00  0.00     0.321 C 
HETATM    3  N   UNL     1      40.151 -14.007   0.435  1.00  0.00    -0.338 N 
HETATM    4  O   UNL     1      38.054 -14.392   0.953  1.00  0.00    -0.247 OA
HETATM    5  H   UNL     1      38.612 -16.342   1.951  1.00  0.00     0.171 HD
HETATM    6  H   UNL     1      39.701 -13.251  -0.061  1.00  0.00     0.164 HD
ENDROOT
BRANCH   1   7
HETATM    7  C   UNL     1      40.578 -16.402   2.479  1.00  0.00     0.077 C 
HETATM    8  C   UNL     1      41.004 -16.061   3.762  1.00  0.00     0.062 C 
HETATM    9  C   UNL     1      42.167 -16.625   4.307  1.00  0.00     0.037 C 
HETATM   10  C   UNL     1      42.827 -17.645   3.611  1.00  0.00     0.032 C 
HETATM   11  C   UNL     1      42.356 -18.069   2.370  1.00  0.00     0.047 C 
HETATM   12  C   UNL     1      41.249 -17.438   1.815  1.00  0.00     0.143 C 
HETATM   13  F   UNL     1      40.823 -17.837   0.606  1.00  0.00    -0.204 F 
BRANCH   9  14
HETATM   14  N   UNL     1      42.765 -16.190   5.510  1.00  0.00    -0.327 N 
HETATM   15  C   UNL     1      43.531 -15.054   5.703  1.00  0.00     0.221 C 
HETATM   16  O   UNL     1      43.674 -14.124   4.916  1.00  0.00    -0.273 OA
HETATM   17  H   UNL     1      42.716 -16.835   6.289  1.00  0.00     0.169 HD
BRANCH  15  18
HETATM   18  C   UNL     1      44.271 -15.066   7.027  1.00  0.00     0.098 C 
HETATM   19  C   UNL     1      45.078 -13.790   7.212  1.00  0.00     0.014 C 
ENDBRANCH  15  18
ENDBRANCH   9  14
ENDBRANCH   1   7
BRANCH   3  20
HETATM   20  C   UNL     1      41.495 -14.310  -0.003  1.00  0.00     0.167 C 
BRANCH  20  21
HETATM   21  C   UNL     1      41.682 -13.868  -1.417  1.00  0.00     0.009 A 
HETATM   22  C   UNL     1      42.225 -12.633  -1.870  1.00  0.00     0.060 A 
HETATM   23  C   UNL     1      42.747 -11.510  -1.053  1.00  0.00     0.073 C 
HETATM   24  N   UNL     1      42.202 -12.536  -3.205  1.00  0.00    -0.179 NA
HETATM   25  N   UNL     1      41.642 -13.684  -3.607  1.00  0.00    -0.282 N 
HETATM   26  H   UNL     1      41.509 -13.828  -4.603  1.00  0.00     0.189 HD
HETATM   27  C   UNL     1      41.292 -14.515  -2.581  1.00  0.00     0.034 A 
HETATM   28  C   UNL     1      40.617 -15.813  -2.817  1.00  0.00     0.070 C 
ENDBRANCH  20  21
ENDBRANCH   3  20
TORSDOF 5
ENDMDL
MODEL 8
REMARK VINA RESULT:      -7.1      2.416      6.941
REMARK  5 active torsions:
REMARK  status: ('A' for Active; 'I' for Inactive)
REMARK    1  A    between atoms: C_2  and  C_3 
REMARK       I    between atoms: C_3  and  N_4 
REMARK    2  A    between atoms: N_4  and  C_5 
REMARK    3  A    between atoms: C_7  and  N_8 
REMARK       I    between atoms: N_8  and  C_9 
REMARK       I    between atoms: C_9  and  N_10 
REMARK    4  A    between atoms: N_10  and  C_11 
REMARK    5  A    between atoms: C_11  and  C_12 
ROOT
HETATM    1  N   UNL     1      43.151 -16.089   2.436  1.00  0.00    -0.306 N 
HETATM    2  C   UNL     1      43.959 -17.127   2.167  1.00  0.00     0.321 C 
HETATM    3  N   UNL     1      44.129 -18.200   2.946  1.00  0.00    -0.338 N 
HETATM    4  O   UNL     1      44.544 -17.126   1.079  1.00  0.00    -0.247 OA
HETATM    5  H   UNL     1      42.990 -15.563   1.580  1.00  0.00     0.171 HD
HETATM    6  H   UNL     1      44.758 -18.852   2.499  1.00  0.00     0.164 HD
ENDROOT
BRANCH   1   7
HETATM    7  C   UNL     1      42.576 -15.500   3.573  1.00  0.00     0.077 C 
HETATM    8  C   UNL     1      43.204 -14.583   4.415  1.00  0.00     0.062 C 
HETATM    9  C   UNL     1      42.569 -14.123   5.578  1.00  0.00     0.037 C 
HETATM   10  C   UNL     1      41.237 -14.480   5.821  1.00  0.00     0.032 C 
HETATM   11  C   UNL     1      40.561 -15.317   4.935  1.00  0.00     0.047 C 
HETATM   12  C   UNL     1      41.238 -15.824   3.833  1.00  0.00     0.143 C 
HETATM   13  F   UNL     1      40.583 -16.653   3.003  1.00  0.00    -0.204 F 
BRANCH   9  14
HETATM   14  N   UNL     1      43.208 -13.352   6.573  1.00  0.00    -0.327 N 
HETATM   15  C   UNL     1      44.378 -13.655   7.247  1.00  0.00     0.221 C 
HETATM   16  O   UNL     1      45.170 -14.550   6.973  1.00  0.00    -0.273 OA
HETATM   17  H   UNL     1      42.697 -12.542   6.903  1.00  0.00     0.169 HD
BRANCH  15  18
HETATM   18  C   UNL     1      44.599 -12.772   8.460  1.00  0.00     0.098 C 
HETATM   19  C   UNL     1      46.051 -12.330   8.555  1.00  0.00     0.014 C 
ENDBRANCH  15  18
ENDBRANCH   9  14
ENDBRANCH   1   7
BRANCH   3  20
HETATM   20  C   UNL     1      43.333 -18.756   4.018  1.00  0.00     0.167 C 
BRANCH  20  21
HETATM   21  C   UNL     1      43.920 -20.054   4.467  1.00  0.00     0.009 A 
HETATM   22  C   UNL     1      44.153 -20.478   5.805  1.00  0.00     0.060 A 
HETATM   23  C   UNL     1      43.855 -19.745   7.061  1.00  0.00     0.073 C 
HETATM   24  N   UNL     1      44.741 -21.679   5.854  1.00  0.00    -0.179 NA
HETATM   25  N   UNL     1      44.897 -22.021   4.568  1.00  0.00    -0.282 N 
HETATM   26  H   UNL     1      45.342 -22.908   4.360  1.00  0.00     0.189 HD
HETATM   27  C   UNL     1      44.440 -21.079   3.691  1.00  0.00     0.034 A 
HETATM   28  C   UNL     1      44.564 -21.249   2.223  1.00  0.00     0.070 C 
ENDBRANCH  20  21
ENDBRANCH   3  20
TORSDOF 5
ENDMDL
MODEL 9
REMARK VINA RESULT:      -7.0      2.658      6.400
REMARK  5 active torsions:
REMARK  status: ('A' for Active; 'I' for Inactive)
REMARK    1  A    between atoms: C_2  and  C_3 
REMARK       I    between atoms: C_3  and  N_4 
REMARK    2  A    between atoms: N_4  and  C_5 
REMARK    3  A    between atoms: C_7  and  N_8 
REMARK       I    between atoms: N_8  and  C_9 
REMARK       I    between atoms: C_9  and  N_10 
REMARK    4  A    between atoms: N_10  and  C_11 
REMARK    5  A    between atoms: C_11  and  C_12 
ROOT
HETATM    1  N   UNL     1      43.143 -15.904   2.188  1.00  0.00    -0.306 N 
HETATM    2  C   UNL     1      43.625 -17.150   2.055  1.00  0.00     0.321 C 
HETATM    3  N   UNL     1      43.405 -18.161   2.902  1.00  0.00    -0.338 N 
HETATM    4  O   UNL     1      44.270 -17.404   1.032  1.00  0.00    -0.247 OA
HETATM    5  H   UNL     1      43.215 -15.422   1.295  1.00  0.00     0.171 HD
HETATM    6  H   UNL     1      43.846 -19.001   2.553  1.00  0.00     0.164 HD
ENDROOT
BRANCH   1   7
HETATM    7  C   UNL     1      42.679 -15.086   3.231  1.00  0.00     0.077 C 
HETATM    8  C   UNL     1      43.481 -14.427   4.161  1.00  0.00     0.062 C 
HETATM    9  C   UNL     1      42.910 -13.704   5.219  1.00  0.00     0.037 C 
HETATM   10  C   UNL     1      41.521 -13.527   5.259  1.00  0.00     0.032 C 
HETATM   11  C   UNL     1      40.711 -14.096   4.278  1.00  0.00     0.047 C 
HETATM   12  C   UNL     1      41.294 -14.874   3.287  1.00  0.00     0.143 C 
HETATM   13  F   UNL     1      40.499 -15.441   2.364  1.00  0.00    -0.204 F 
BRANCH   9  14
HETATM   14  N   UNL     1      43.645 -13.177   6.302  1.00  0.00    -0.327 N 
HETATM   15  C   UNL     1      44.350 -13.884   7.261  1.00  0.00     0.221 C 
HETATM   16  O   UNL     1      44.620 -15.080   7.238  1.00  0.00    -0.273 OA
HETATM   17  H   UNL     1      43.559 -12.180   6.454  1.00  0.00     0.169 HD
BRANCH  15  18
HETATM   18  C   UNL     1      44.750 -13.024   8.445  1.00  0.00     0.098 C 
HETATM   19  C   UNL     1      46.139 -12.437   8.249  1.00  0.00     0.014 C 
ENDBRANCH  15  18
ENDBRANCH   9  14
ENDBRANCH   1   7
BRANCH   3  20
HETATM   20  C   UNL     1      42.396 -18.376   3.915  1.00  0.00     0.167 C 
BRANCH  20  21
HETATM   21  C   UNL     1      43.021 -18.347   5.271  1.00  0.00     0.009 A 
HETATM   22  C   UNL     1      44.169 -19.066   5.707  1.00  0.00     0.060 A 
HETATM   23  C   UNL     1      45.020 -19.993   4.920  1.00  0.00     0.073 C 
HETATM   24  N   UNL     1      44.433 -18.850   7.001  1.00  0.00    -0.179 NA
HETATM   25  N   UNL     1      43.463 -18.015   7.398  1.00  0.00    -0.282 N 
HETATM   26  H   UNL     1      43.456 -17.719   8.368  1.00  0.00     0.189 HD
HETATM   27  C   UNL     1      42.578 -17.692   6.410  1.00  0.00     0.034 A 
HETATM   28  C   UNL     1      41.407 -16.818   6.661  1.00  0.00     0.070 C 
ENDBRANCH  20  21
ENDBRANCH   3  20
TORSDOF 5
ENDMDL
MODEL 10
REMARK VINA RESULT:      -6.9      3.570      5.022
REMARK  5 active torsions:
REMARK  status: ('A' for Active; 'I' for Inactive)
REMARK    1  A    between atoms: C_2  and  C_3 
REMARK       I    between atoms: C_3  and  N_4 
REMARK    2  A    between atoms: N_4  and  C_5 
REMARK    3  A    between atoms: C_7  and  N_8 
REMARK       I    between atoms: N_8  and  C_9 
REMARK       I    between atoms: C_9  and  N_10 
REMARK    4  A    between atoms: N_10  and  C_11 
REMARK    5  A    between atoms: C_11  and  C_12 
ROOT
HETATM    1  N   UNL     1      42.254 -15.477   0.271  1.00  0.00    -0.306 N 
HETATM    2  C   UNL     1      41.067 -15.182  -0.284  1.00  0.00     0.321 C 
HETATM    3  N   UNL     1      39.883 -15.258   0.332  1.00  0.00    -0.338 N 
HETATM    4  O   UNL     1      41.073 -14.740  -1.437  1.00  0.00    -0.247 OA
HETATM    5  H   UNL     1      42.996 -15.074  -0.297  1.00  0.00     0.171 HD
HETATM    6  H   UNL     1      39.152 -14.946  -0.292  1.00  0.00     0.164 HD
ENDROOT
BRANCH   1   7
HETATM    7  C   UNL     1      42.726 -16.259   1.337  1.00  0.00     0.077 C 
HETATM    8  C   UNL     1      43.006 -17.623   1.279  1.00  0.00     0.062 C 
HETATM    9  C   UNL     1      43.388 -18.329   2.429  1.00  0.00     0.037 C 
HETATM   10  C   UNL     1      43.628 -17.627   3.617  1.00  0.00     0.032 C 
HETATM   11  C   UNL     1      43.449 -16.247   3.667  1.00  0.00     0.047 C 
HETATM   12  C   UNL     1      42.992 -15.582   2.536  1.00  0.00     0.143 C 
HETATM   13  F   UNL     1      42.797 -14.255   2.606  1.00  0.00    -0.204 F 
BRANCH   9  14
HETATM   14  N   UNL     1      43.499 -19.735   2.492  1.00  0.00    -0.327 N 
HETATM   15  C   UNL     1      44.401 -20.473   3.239  1.00  0.00     0.221 C 
HETATM   16  O   UNL     1      45.139 -20.050   4.122  1.00  0.00    -0.273 OA
HETATM   17  H   UNL     1      42.927 -20.255   1.838  1.00  0.00     0.169 HD
BRANCH  15  18
HETATM   18  C   UNL     1      44.447 -21.931   2.826  1.00  0.00     0.098 C 
HETATM   19  C   UNL     1      44.051 -22.097   1.367  1.00  0.00     0.014 C 
ENDBRANCH  15  18
ENDBRANCH   9  14
ENDBRANCH   1   7
BRANCH   3  20
HETATM   20  C   UNL     1      39.517 -15.297   1.730  1.00  0.00     0.167 C 
BRANCH  20  21
HETATM   21  C   UNL     1      39.180 -13.922   2.206  1.00  0.00     0.009 A 
HETATM   22  C   UNL     1      39.537 -13.327   3.449  1.00  0.00     0.060 A 
HETATM   23  C   UNL     1      40.338 -13.921   4.549  1.00  0.00     0.073 C 
HETATM   24  N   UNL     1      39.029 -12.096   3.579  1.00  0.00    -0.179 NA
HETATM   25  N   UNL     1      38.344 -11.903   2.444  1.00  0.00    -0.282 N 
HETATM   26  H   UNL     1      37.855 -11.022   2.326  1.00  0.00     0.189 HD
HETATM   27  C   UNL     1      38.383 -12.968   1.591  1.00  0.00     0.034 A 
HETATM   28  C   UNL     1      37.650 -12.968   0.302  1.00  0.00     0.070 C 
ENDBRANCH  20  21
ENDBRANCH   3  20
TORSDOF 5
ENDMDL
