MODEL 1
REMARK VINA RESULT:      -9.3      0.000      0.000
REMARK  4 active torsions:
REMARK  status: ('A' for Active; 'I' for Inactive)
REMARK    1  A    between atoms: N_2  and  C_4 
REMARK    2  A    between atoms: C_7  and  C_21 
REMARK    3  A    between atoms: C_12  and  C_15 
REMARK    4  A    between atoms: C_27  and  C_28 
ROOT
HETATM    1  C   UNL     1      43.168 -16.219   4.905  1.00  0.00     0.116 A 
HETATM    2  N   UNL     1      42.848 -14.961   4.557  1.00  0.00    -0.330 N 
HETATM    3  H   UNL     1      42.699 -14.297   5.308  1.00  0.00     0.168 HD
HETATM    4  C   UNL     1      42.783 -14.590   3.273  1.00  0.00     0.112 A 
HETATM    5  N   UNL     1      43.079 -15.417   2.253  1.00  0.00    -0.234 NA
HETATM    6  C   UNL     1      43.421 -16.676   2.552  1.00  0.00     0.072 A 
HETATM    7  C   UNL     1      43.728 -17.543   1.515  1.00  0.00     0.033 A 
HETATM    8  C   UNL     1      44.054 -18.884   1.748  1.00  0.00     0.014 A 
HETATM    9  C   UNL     1      44.064 -19.397   3.044  1.00  0.00    -0.022 A 
HETATM   10  C   UNL     1      43.765 -18.521   4.097  1.00  0.00     0.030 A 
HETATM   11  C   UNL     1      43.464 -17.151   3.873  1.00  0.00     0.037 A 
ENDROOT
BRANCH   4  12
HETATM   12  C   UNL     1      42.391 -13.179   2.908  1.00  0.00     0.091 C 
HETATM   13  C   UNL     1      42.131 -12.308   4.140  1.00  0.00     0.245 C 
HETATM   14  N   UNL     1      41.269 -11.193   3.632  1.00  0.00    -0.074 N 
HETATM   15  H   UNL     1      40.631 -10.849   4.369  1.00  0.00     0.277 HD
HETATM   16  H   UNL     1      41.826 -10.365   3.361  1.00  0.00     0.277 HD
HETATM   17  C   UNL     1      40.487 -11.702   2.452  1.00  0.00     0.242 C 
HETATM   18  C   UNL     1      41.041 -13.113   2.172  1.00  0.00     0.057 C 
BRANCH  18  19
HETATM   19  C   UNL     1      41.176 -13.440   0.704  1.00  0.00    -0.052 A 
HETATM   20  C   UNL     1      40.495 -14.518   0.114  1.00  0.00     0.007 A 
HETATM   21  C   UNL     1      40.658 -14.805  -1.242  1.00  0.00     0.001 A 
HETATM   22  C   UNL     1      41.495 -14.017  -2.027  1.00  0.00     0.000 A 
HETATM   23  C   UNL     1      42.168 -12.939  -1.460  1.00  0.00     0.001 A 
HETATM   24  C   UNL     1      42.010 -12.650  -0.103  1.00  0.00     0.007 A 
ENDBRANCH  18  19
ENDBRANCH   4  12
BRANCH   1  25
HETATM   25  N   UNL     1      43.189 -16.560   6.250  1.00  0.00    -0.375 N 
HETATM   26  C   UNL     1      41.969 -17.040   6.898  1.00  0.00     0.150 C 
HETATM   27  C   UNL     1      44.053 -15.724   7.097  1.00  0.00     0.150 C 
ENDBRANCH   1  25
BRANCH   9  28
HETATM   28  C   UNL     1      44.381 -20.791   3.310  1.00  0.00     0.010 A 
HETATM   29  C   UNL     1      44.374 -21.922   2.458  1.00  0.00     0.152 A 
HETATM   30  N   UNL     1      44.742 -23.042   3.078  1.00  0.00    -0.187 NA
HETATM   31  N   UNL     1      44.987 -22.647   4.336  1.00  0.00    -0.289 N 
HETATM   32  H   UNL     1      45.289 -23.343   5.012  1.00  0.00     0.188 HD
HETATM   33  C   UNL     1      44.790 -21.306   4.524  1.00  0.00     0.123 A 
ENDBRANCH   9  28
TORSDOF 4
ENDMDL
MODEL 2
REMARK VINA RESULT:      -9.0      1.215      1.633
REMARK  4 active torsions:
REMARK  status: ('A' for Active; 'I' for Inactive)
REMARK    1  A    between atoms: N_2  and  C_4 
REMARK    2  A    between atoms: C_7  and  C_21 
REMARK    3  A    between atoms: C_12  and  C_15 
REMARK    4  A    between atoms: C_27  and  C_28 
ROOT
HETATM    1  C   UNL     1      42.223 -16.244   4.755  1.00  0.00     0.116 A 
HETATM    2  N   UNL     1      41.896 -14.960   4.536  1.00  0.00    -0.330 N 
HETATM    3  H   UNL     1      41.530 -14.435   5.322  1.00  0.00     0.168 HD
HETATM    4  C   UNL     1      42.099 -14.383   3.346  1.00  0.00     0.112 A 
HETATM    5  N   UNL     1      42.684 -15.017   2.312  1.00  0.00    -0.234 NA
HETATM    6  C   UNL     1      43.042 -16.295   2.489  1.00  0.00     0.072 A 
HETATM    7  C   UNL     1      43.644 -16.965   1.435  1.00  0.00     0.033 A 
HETATM    8  C   UNL     1      44.009 -18.313   1.532  1.00  0.00     0.014 A 
HETATM    9  C   UNL     1      43.760 -19.033   2.700  1.00  0.00    -0.022 A 
HETATM   10  C   UNL     1      43.162 -18.356   3.771  1.00  0.00     0.030 A 
HETATM   11  C   UNL     1      42.817 -16.981   3.693  1.00  0.00     0.037 A 
ENDROOT
BRANCH   4  12
HETATM   12  C   UNL     1      41.696 -12.946   3.118  1.00  0.00     0.091 C 
HETATM   13  C   UNL     1      42.054 -12.044   4.302  1.00  0.00     0.245 C 
HETATM   14  N   UNL     1      41.143 -10.863   4.158  1.00  0.00    -0.074 N 
HETATM   15  H   UNL     1      40.910 -10.458   5.081  1.00  0.00     0.277 HD
HETATM   16  H   UNL     1      41.591 -10.090   3.638  1.00  0.00     0.277 HD
HETATM   17  C   UNL     1      39.896 -11.314   3.448  1.00  0.00     0.242 C 
HETATM   18  C   UNL     1      40.170 -12.770   3.024  1.00  0.00     0.057 C 
BRANCH  18  19
HETATM   19  C   UNL     1      39.639 -13.122   1.655  1.00  0.00    -0.052 A 
HETATM   20  C   UNL     1      40.362 -12.850   0.482  1.00  0.00     0.007 A 
HETATM   21  C   UNL     1      39.832 -13.171  -0.769  1.00  0.00     0.001 A 
HETATM   22  C   UNL     1      38.580 -13.773  -0.865  1.00  0.00     0.000 A 
HETATM   23  C   UNL     1      37.857 -14.058   0.289  1.00  0.00     0.001 A 
HETATM   24  C   UNL     1      38.381 -13.737   1.542  1.00  0.00     0.007 A 
ENDBRANCH  18  19
ENDBRANCH   4  12
BRANCH   1  25
HETATM   25  N   UNL     1      41.961 -16.803   5.998  1.00  0.00    -0.375 N 
HETATM   26  C   UNL     1      40.582 -16.902   6.475  1.00  0.00     0.150 C 
HETATM   27  C   UNL     1      42.958 -16.514   7.039  1.00  0.00     0.150 C 
ENDBRANCH   1  25
BRANCH   9  28
HETATM   28  C   UNL     1      44.112 -20.439   2.817  1.00  0.00     0.010 A 
HETATM   29  C   UNL     1      44.079 -21.486   1.865  1.00  0.00     0.152 A 
HETATM   30  N   UNL     1      44.497 -22.651   2.358  1.00  0.00    -0.187 NA
HETATM   31  N   UNL     1      44.800 -22.369   3.633  1.00  0.00    -0.289 N 
HETATM   32  H   UNL     1      45.148 -23.118   4.225  1.00  0.00     0.188 HD
HETATM   33  C   UNL     1      44.592 -21.056   3.956  1.00  0.00     0.123 A 
ENDBRANCH   9  28
TORSDOF 4
ENDMDL
MODEL 3
REMARK VINA RESULT:      -8.8      2.274      7.248
REMARK  4 active torsions:
REMARK  status: ('A' for Active; 'I' for Inactive)
REMARK    1  A    between atoms: N_2  and  C_4 
REMARK    2  A    between atoms: C_7  and  C_21 
REMARK    3  A    between atoms: C_12  and  C_15 
REMARK    4  A    between atoms: C_27  and  C_28 
ROOT
HETATM    1  C   UNL     1      41.608 -15.105   3.972  1.00  0.00     0.116 A 
HETATM    2  N   UNL     1      41.942 -15.864   5.029  1.00  0.00    -0.330 N 
HETATM    3  H   UNL     1      41.945 -15.415   5.938  1.00  0.00     0.168 HD
HETATM    4  C   UNL     1      42.205 -17.169   4.894  1.00  0.00     0.112 A 
HETATM    5  N   UNL     1      42.105 -17.821   3.720  1.00  0.00    -0.234 NA
HETATM    6  C   UNL     1      41.757 -17.108   2.641  1.00  0.00     0.072 A 
HETATM    7  C   UNL     1      41.651 -17.762   1.423  1.00  0.00     0.033 A 
HETATM    8  C   UNL     1      41.333 -17.077   0.245  1.00  0.00     0.014 A 
HETATM    9  C   UNL     1      41.127 -15.698   0.260  1.00  0.00    -0.022 A 
HETATM   10  C   UNL     1      41.223 -15.035   1.491  1.00  0.00     0.030 A 
HETATM   11  C   UNL     1      41.514 -15.727   2.696  1.00  0.00     0.037 A 
ENDROOT
BRANCH   4  12
HETATM   12  C   UNL     1      42.606 -17.993   6.093  1.00  0.00     0.091 C 
HETATM   13  C   UNL     1      42.523 -17.200   7.400  1.00  0.00     0.245 C 
HETATM   14  N   UNL     1      43.430 -17.935   8.339  1.00  0.00    -0.074 N 
HETATM   15  H   UNL     1      43.856 -17.291   9.027  1.00  0.00     0.277 HD
HETATM   16  H   UNL     1      42.916 -18.626   8.911  1.00  0.00     0.277 HD
HETATM   17  C   UNL     1      44.494 -18.620   7.526  1.00  0.00     0.242 C 
HETATM   18  C   UNL     1      44.090 -18.404   6.056  1.00  0.00     0.057 C 
BRANCH  18  19
HETATM   19  C   UNL     1      44.326 -19.604   5.170  1.00  0.00    -0.052 A 
HETATM   20  C   UNL     1      44.499 -19.483   3.781  1.00  0.00     0.007 A 
HETATM   21  C   UNL     1      44.696 -20.615   2.989  1.00  0.00     0.001 A 
HETATM   22  C   UNL     1      44.729 -21.879   3.572  1.00  0.00     0.000 A 
HETATM   23  C   UNL     1      44.570 -22.013   4.948  1.00  0.00     0.001 A 
HETATM   24  C   UNL     1      44.371 -20.884   5.744  1.00  0.00     0.007 A 
ENDBRANCH  18  19
ENDBRANCH   4  12
BRANCH   1  25
HETATM   25  N   UNL     1      41.378 -13.750   4.162  1.00  0.00    -0.375 N 
HETATM   26  C   UNL     1      42.469 -12.880   4.599  1.00  0.00     0.150 C 
HETATM   27  C   UNL     1      40.057 -13.408   4.709  1.00  0.00     0.150 C 
ENDBRANCH   1  25
BRANCH   9  28
HETATM   28  C   UNL     1      40.815 -14.961  -0.954  1.00  0.00     0.010 A 
HETATM   29  C   UNL     1      40.932 -15.327  -2.318  1.00  0.00     0.152 A 
HETATM   30  N   UNL     1      40.526 -14.369  -3.150  1.00  0.00    -0.187 NA
HETATM   31  N   UNL     1      40.146 -13.375  -2.334  1.00  0.00    -0.289 N 
HETATM   32  H   UNL     1      39.792 -12.517  -2.748  1.00  0.00     0.188 HD
HETATM   33  C   UNL     1      40.295 -13.683  -1.009  1.00  0.00     0.123 A 
ENDBRANCH   9  28
TORSDOF 4
ENDMDL
MODEL 4
REMARK VINA RESULT:      -8.6      1.476      3.253
REMARK  4 active torsions:
REMARK  status: ('A' for Active; 'I' for Inactive)
REMARK    1  A    between atoms: N_2  and  C_4 
REMARK    2  A    between atoms: C_7  and  C_21 
REMARK    3  A    between atoms: C_12  and  C_15 
REMARK    4  A    between atoms: C_27  and  C_28 
ROOT
HETATM    1  C   UNL     1      42.213 -16.431   4.210  1.00  0.00     0.116 A 
HETATM    2  N   UNL     1      41.753 -15.336   3.582  1.00  0.00    -0.330 N 
HETATM    3  H   UNL     1      41.382 -14.592   4.162  1.00  0.00     0.168 HD
HETATM    4  C   UNL     1      41.832 -15.211   2.252  1.00  0.00     0.112 A 
HETATM    5  N   UNL     1      42.415 -16.132   1.461  1.00  0.00    -0.234 NA
HETATM    6  C   UNL     1      42.905 -17.233   2.045  1.00  0.00     0.072 A 
HETATM    7  C   UNL     1      43.508 -18.192   1.246  1.00  0.00     0.033 A 
HETATM    8  C   UNL     1      44.005 -19.387   1.780  1.00  0.00     0.014 A 
HETATM    9  C   UNL     1      43.893 -19.656   3.143  1.00  0.00    -0.022 A 
HETATM   10  C   UNL     1      43.294 -18.684   3.955  1.00  0.00     0.030 A 
HETATM   11  C   UNL     1      42.814 -17.456   3.428  1.00  0.00     0.037 A 
ENDROOT
BRANCH   4  12
HETATM   12  C   UNL     1      41.280 -13.984   1.568  1.00  0.00     0.091 C 
HETATM   13  C   UNL     1      41.724 -13.880   0.107  1.00  0.00     0.245 C 
HETATM   14  N   UNL     1      41.569 -12.428  -0.227  1.00  0.00    -0.074 N 
HETATM   15  H   UNL     1      42.262 -12.132  -0.936  1.00  0.00     0.277 HD
HETATM   16  H   UNL     1      40.651 -12.226  -0.657  1.00  0.00     0.277 HD
HETATM   17  C   UNL     1      41.737 -11.634   1.039  1.00  0.00     0.242 C 
HETATM   18  C   UNL     1      41.830 -12.677   2.169  1.00  0.00     0.057 C 
BRANCH  18  19
HETATM   19  C   UNL     1      41.105 -12.282   3.433  1.00  0.00    -0.052 A 
HETATM   20  C   UNL     1      41.787 -12.015   4.632  1.00  0.00     0.007 A 
HETATM   21  C   UNL     1      41.084 -11.671   5.787  1.00  0.00     0.001 A 
HETATM   22  C   UNL     1      39.695 -11.583   5.760  1.00  0.00     0.000 A 
HETATM   23  C   UNL     1      39.006 -11.835   4.578  1.00  0.00     0.001 A 
HETATM   24  C   UNL     1      39.705 -12.181   3.420  1.00  0.00     0.007 A 
ENDBRANCH  18  19
ENDBRANCH   4  12
BRANCH   1  25
HETATM   25  N   UNL     1      42.076 -16.524   5.588  1.00  0.00    -0.375 N 
HETATM   26  C   UNL     1      40.752 -16.722   6.176  1.00  0.00     0.150 C 
HETATM   27  C   UNL     1      42.979 -15.666   6.368  1.00  0.00     0.150 C 
ENDBRANCH   1  25
BRANCH   9  28
HETATM   28  C   UNL     1      44.385 -20.898   3.717  1.00  0.00     0.010 A 
HETATM   29  C   UNL     1      44.906 -21.184   5.002  1.00  0.00     0.152 A 
HETATM   30  N   UNL     1      45.243 -22.464   5.155  1.00  0.00    -0.187 NA
HETATM   31  N   UNL     1      44.947 -23.016   3.969  1.00  0.00    -0.289 N 
HETATM   32  H   UNL     1      45.123 -24.009   3.840  1.00  0.00     0.188 HD
HETATM   33  C   UNL     1      44.426 -22.121   3.076  1.00  0.00     0.123 A 
ENDBRANCH   9  28
TORSDOF 4
ENDMDL
MODEL 5
REMARK VINA RESULT:      -8.4      1.967      3.325
REMARK  4 active torsions:
REMARK  status: ('A' for Active; 'I' for Inactive)
REMARK    1  A    between atoms: N_2  and  C_4 
REMARK    2  A    between atoms: C_7  and  C_21 
REMARK    3  A    between atoms: C_12  and  C_15 
REMARK    4  A    between atoms: C_27  and  C_28 
ROOT
HETATM    1  C   UNL     1      42.332 -16.607   3.185  1.00  0.00     0.116 A 
HETATM    2  N   UNL     1      42.169 -15.338   3.595  1.00  0.00    -0.330 N 
HETATM    3  H   UNL     1      41.548 -14.752   3.050  1.00  0.00     0.168 HD
HETATM    4  C   UNL     1      42.759 -14.886   4.707  1.00  0.00     0.112 A 
HETATM    5  N   UNL     1      43.503 -15.666   5.514  1.00  0.00    -0.234 NA
HETATM    6  C   UNL     1      43.678 -16.943   5.155  1.00  0.00     0.072 A 
HETATM    7  C   UNL     1      44.443 -17.761   5.972  1.00  0.00     0.033 A 
HETATM    8  C   UNL     1      44.704 -19.096   5.641  1.00  0.00     0.014 A 
HETATM    9  C   UNL     1      44.210 -19.643   4.458  1.00  0.00    -0.022 A 
HETATM   10  C   UNL     1      43.428 -18.822   3.633  1.00  0.00     0.030 A 
HETATM   11  C   UNL     1      43.131 -17.476   3.977  1.00  0.00     0.037 A 
ENDROOT
BRANCH   4  12
HETATM   12  C   UNL     1      42.584 -13.447   5.130  1.00  0.00     0.091 C 
HETATM   13  C   UNL     1      43.002 -13.211   6.583  1.00  0.00     0.245 C 
HETATM   14  N   UNL     1      42.284 -11.957   6.978  1.00  0.00    -0.074 N 
HETATM   15  H   UNL     1      42.060 -11.957   7.988  1.00  0.00     0.277 HD
HETATM   16  H   UNL     1      42.870 -11.116   6.840  1.00  0.00     0.277 HD
HETATM   17  C   UNL     1      41.027 -11.856   6.158  1.00  0.00     0.242 C 
HETATM   18  C   UNL     1      41.108 -13.011   5.141  1.00  0.00     0.057 C 
BRANCH  18  19
HETATM   19  C   UNL     1      40.610 -12.652   3.762  1.00  0.00    -0.052 A 
HETATM   20  C   UNL     1      41.347 -11.830   2.893  1.00  0.00     0.007 A 
HETATM   21  C   UNL     1      40.848 -11.502   1.631  1.00  0.00     0.001 A 
HETATM   22  C   UNL     1      39.612 -11.993   1.219  1.00  0.00     0.000 A 
HETATM   23  C   UNL     1      38.875 -12.817   2.065  1.00  0.00     0.001 A 
HETATM   24  C   UNL     1      39.370 -13.146   3.328  1.00  0.00     0.007 A 
ENDBRANCH  18  19
ENDBRANCH   4  12
BRANCH   1  25
HETATM   25  N   UNL     1      41.724 -17.017   2.006  1.00  0.00    -0.375 N 
HETATM   26  C   UNL     1      42.402 -16.808   0.727  1.00  0.00     0.150 C 
HETATM   27  C   UNL     1      40.263 -16.860   1.965  1.00  0.00     0.150 C 
ENDBRANCH   1  25
BRANCH   9  28
HETATM   28  C   UNL     1      44.484 -21.021   4.083  1.00  0.00     0.010 A 
HETATM   29  C   UNL     1      44.486 -21.655   2.816  1.00  0.00     0.152 A 
HETATM   30  N   UNL     1      44.803 -22.947   2.881  1.00  0.00    -0.187 NA
HETATM   31  N   UNL     1      45.006 -23.161   4.190  1.00  0.00    -0.289 N 
HETATM   32  H   UNL     1      45.265 -24.096   4.493  1.00  0.00     0.188 HD
HETATM   33  C   UNL     1      44.832 -22.037   4.950  1.00  0.00     0.123 A 
ENDBRANCH   9  28
TORSDOF 4
ENDMDL
MODEL 6
REMARK VINA RESULT:      -8.3      2.800      7.490
REMARK  4 active torsions:
REMARK  status: ('A' for Active; 'I' for Inactive)
REMARK    1  A    between atoms: N_2  and  C_4 
REMARK    2  A    between atoms: C_7  and  C_21 
REMARK    3  A    between atoms: C_12  and  C_15 
REMARK    4  A    between atoms: C_27  and  C_28 
ROOT
HETATM    1  C   UNL     1      40.974 -14.558   5.392  1.00  0.00     0.116 A 
HETATM    2  N   UNL     1      41.643 -15.497   6.081  1.00  0.00    -0.330 N 
HETATM    3  H   UNL     1      41.941 -15.259   7.020  1.00  0.00     0.168 HD
HETATM    4  C   UNL     1      41.857 -16.715   5.569  1.00  0.00     0.112 A 
HETATM    5  N   UNL     1      41.383 -17.102   4.369  1.00  0.00    -0.234 NA
HETATM    6  C   UNL     1      40.695 -16.203   3.654  1.00  0.00     0.072 A 
HETATM    7  C   UNL     1      40.200 -16.583   2.416  1.00  0.00     0.033 A 
HETATM    8  C   UNL     1      39.506 -15.687   1.594  1.00  0.00     0.014 A 
HETATM    9  C   UNL     1      39.306 -14.367   1.995  1.00  0.00    -0.022 A 
HETATM   10  C   UNL     1      39.795 -13.982   3.250  1.00  0.00     0.030 A 
HETATM   11  C   UNL     1      40.472 -14.892   4.105  1.00  0.00     0.037 A 
ENDROOT
BRANCH   4  12
HETATM   12  C   UNL     1      42.638 -17.743   6.351  1.00  0.00     0.091 C 
HETATM   13  C   UNL     1      42.827 -17.341   7.816  1.00  0.00     0.245 C 
HETATM   14  N   UNL     1      44.015 -18.134   8.269  1.00  0.00    -0.074 N 
HETATM   15  H   UNL     1      44.545 -17.629   8.999  1.00  0.00     0.277 HD
HETATM   16  H   UNL     1      43.738 -19.025   8.714  1.00  0.00     0.277 HD
HETATM   17  C   UNL     1      44.887 -18.400   7.072  1.00  0.00     0.242 C 
HETATM   18  C   UNL     1      44.091 -17.880   5.861  1.00  0.00     0.057 C 
BRANCH  18  19
HETATM   19  C   UNL     1      44.197 -18.753   4.633  1.00  0.00    -0.052 A 
HETATM   20  C   UNL     1      43.985 -18.250   3.339  1.00  0.00     0.007 A 
HETATM   21  C   UNL     1      44.073 -19.090   2.227  1.00  0.00     0.001 A 
HETATM   22  C   UNL     1      44.378 -20.438   2.392  1.00  0.00     0.000 A 
HETATM   23  C   UNL     1      44.602 -20.948   3.668  1.00  0.00     0.001 A 
HETATM   24  C   UNL     1      44.513 -20.113   4.782  1.00  0.00     0.007 A 
ENDBRANCH  18  19
ENDBRANCH   4  12
BRANCH   1  25
HETATM   25  N   UNL     1      40.808 -13.300   5.956  1.00  0.00    -0.375 N 
HETATM   26  C   UNL     1      39.470 -12.836   6.318  1.00  0.00     0.150 C 
HETATM   27  C   UNL     1      41.708 -12.258   5.441  1.00  0.00     0.150 C 
ENDBRANCH   1  25
BRANCH   9  28
HETATM   28  C   UNL     1      38.606 -13.413   1.150  1.00  0.00     0.010 A 
HETATM   29  C   UNL     1      38.056 -13.551  -0.148  1.00  0.00     0.152 A 
HETATM   30  N   UNL     1      37.474 -12.437  -0.589  1.00  0.00    -0.187 NA
HETATM   31  N   UNL     1      37.645 -11.567   0.418  1.00  0.00    -0.289 N 
HETATM   32  H   UNL     1      37.278 -10.625   0.312  1.00  0.00     0.188 HD
HETATM   33  C   UNL     1      38.313 -12.105   1.484  1.00  0.00     0.123 A 
ENDBRANCH   9  28
TORSDOF 4
ENDMDL
MODEL 7
REMARK VINA RESULT:      -8.1      2.246      4.159
REMARK  4 active torsions:
REMARK  status: ('A' for Active; 'I' for Inactive)
REMARK    1  A    between atoms: N_2  and  C_4 
REMARK    2  A    between atoms: C_7  and  C_21 
REMARK    3  A    between atoms: C_12  and  C_15 
REMARK    4  A    between atoms: C_27  and  C_28 
ROOT
HETATM    1  C   UNL     1      41.527 -14.610   2.312  1.00  0.00     0.116 A 
HETATM    2  N   UNL     1      41.089 -14.061   1.167  1.00  0.00    -0.330 N 
HETATM    3  H   UNL     1      40.619 -13.165   1.233  1.00  0.00     0.168 HD
HETATM    4  C   UNL     1      41.313 -14.645  -0.016  1.00  0.00     0.112 A 
HETATM    5  N   UNL     1      42.027 -15.779  -0.151  1.00  0.00    -0.234 NA
HETATM    6  C   UNL     1      42.499 -16.353   0.962  1.00  0.00     0.072 A 
HETATM    7  C   UNL     1      43.235 -17.522   0.842  1.00  0.00     0.033 A 
HETATM    8  C   UNL     1      43.726 -18.201   1.963  1.00  0.00     0.014 A 
HETATM    9  C   UNL     1      43.472 -17.725   3.248  1.00  0.00    -0.022 A 
HETATM   10  C   UNL     1      42.738 -16.538   3.374  1.00  0.00     0.030 A 
HETATM   11  C   UNL     1      42.263 -15.825   2.241  1.00  0.00     0.037 A 
ENDROOT
BRANCH   4  12
HETATM   12  C   UNL     1      40.784 -14.023  -1.285  1.00  0.00     0.091 C 
HETATM   13  C   UNL     1      40.391 -15.071  -2.329  1.00  0.00     0.245 C 
HETATM   14  N   UNL     1      40.423 -14.329  -3.631  1.00  0.00    -0.074 N 
HETATM   15  H   UNL     1      40.678 -14.958  -4.412  1.00  0.00     0.277 HD
HETATM   16  H   UNL     1      39.493 -13.957  -3.887  1.00  0.00     0.277 HD
HETATM   17  C   UNL     1      41.418 -13.208  -3.509  1.00  0.00     0.242 C 
HETATM   18  C   UNL     1      41.854 -13.205  -2.031  1.00  0.00     0.057 C 
BRANCH  18  19
HETATM   19  C   UNL     1      42.029 -11.825  -1.443  1.00  0.00    -0.052 A 
HETATM   20  C   UNL     1      43.284 -11.199  -1.371  1.00  0.00     0.007 A 
HETATM   21  C   UNL     1      43.413  -9.930  -0.803  1.00  0.00     0.001 A 
HETATM   22  C   UNL     1      42.292  -9.269  -0.308  1.00  0.00     0.000 A 
HETATM   23  C   UNL     1      41.040  -9.873  -0.383  1.00  0.00     0.001 A 
HETATM   24  C   UNL     1      40.907 -11.142  -0.948  1.00  0.00     0.007 A 
ENDBRANCH  18  19
ENDBRANCH   4  12
BRANCH   1  25
HETATM   25  N   UNL     1      41.239 -13.979   3.514  1.00  0.00    -0.375 N 
HETATM   26  C   UNL     1      39.852 -13.872   3.966  1.00  0.00     0.150 C 
HETATM   27  C   UNL     1      42.086 -12.821   3.835  1.00  0.00     0.150 C 
ENDBRANCH   1  25
BRANCH   9  28
HETATM   28  C   UNL     1      43.955 -18.423   4.429  1.00  0.00     0.010 A 
HETATM   29  C   UNL     1      44.183 -17.965   5.749  1.00  0.00     0.152 A 
HETATM   30  N   UNL     1      44.623 -18.923   6.564  1.00  0.00    -0.187 NA
HETATM   31  N   UNL     1      44.686 -20.008   5.778  1.00  0.00    -0.289 N 
HETATM   32  H   UNL     1      45.002 -20.883   6.186  1.00  0.00     0.188 HD
HETATM   33  C   UNL     1      44.291 -19.761   4.492  1.00  0.00     0.123 A 
ENDBRANCH   9  28
TORSDOF 4
ENDMDL
MODEL 8
REMARK VINA RESULT:      -8.1      2.046      2.952
REMARK  4 active torsions:
REMARK  status: ('A' for Active; 'I' for Inactive)
REMARK    1  A    between atoms: N_2  and  C_4 
REMARK    2  A    between atoms: C_7  and  C_21 
REMARK    3  A    between atoms: C_12  and  C_15 
REMARK    4  A    between atoms: C_27  and  C_28 
ROOT
HETATM    1  C   UNL     1      41.258 -15.233   3.783  1.00  0.00     0.116 A 
HETATM    2  N   UNL     1      40.523 -14.380   3.050  1.00  0.00    -0.330 N 
HETATM    3  H   UNL     1      40.203 -13.534   3.507  1.00  0.00     0.168 HD
HETATM    4  C   UNL     1      40.273 -14.612   1.756  1.00  0.00     0.112 A 
HETATM    5  N   UNL     1      40.772 -15.670   1.089  1.00  0.00    -0.234 NA
HETATM    6  C   UNL     1      41.525 -16.538   1.775  1.00  0.00     0.072 A 
HETATM    7  C   UNL     1      42.047 -17.634   1.106  1.00  0.00     0.033 A 
HETATM    8  C   UNL     1      42.809 -18.606   1.765  1.00  0.00     0.014 A 
HETATM    9  C   UNL     1      43.054 -18.506   3.133  1.00  0.00    -0.022 A 
HETATM   10  C   UNL     1      42.538 -17.394   3.812  1.00  0.00     0.030 A 
HETATM   11  C   UNL     1      41.790 -16.387   3.146  1.00  0.00     0.037 A 
ENDROOT
BRANCH   4  12
HETATM   12  C   UNL     1      39.419 -13.653   0.963  1.00  0.00     0.091 C 
HETATM   13  C   UNL     1      37.934 -14.024   1.001  1.00  0.00     0.245 C 
HETATM   14  N   UNL     1      37.353 -13.355  -0.208  1.00  0.00    -0.074 N 
HETATM   15  H   UNL     1      36.552 -13.892  -0.581  1.00  0.00     0.277 HD
HETATM   16  H   UNL     1      36.963 -12.424   0.016  1.00  0.00     0.277 HD
HETATM   17  C   UNL     1      38.436 -13.231  -1.244  1.00  0.00     0.242 C 
HETATM   18  C   UNL     1      39.727 -13.698  -0.545  1.00  0.00     0.057 C 
BRANCH  18  19
HETATM   19  C   UNL     1      40.949 -12.885  -0.902  1.00  0.00    -0.052 A 
HETATM   20  C   UNL     1      41.338 -11.758  -0.158  1.00  0.00     0.007 A 
HETATM   21  C   UNL     1      42.462 -11.018  -0.528  1.00  0.00     0.001 A 
HETATM   22  C   UNL     1      43.214 -11.394  -1.637  1.00  0.00     0.000 A 
HETATM   23  C   UNL     1      42.846 -12.514  -2.377  1.00  0.00     0.001 A 
HETATM   24  C   UNL     1      41.722 -13.257  -2.013  1.00  0.00     0.007 A 
ENDBRANCH  18  19
ENDBRANCH   4  12
BRANCH   1  25
HETATM   25  N   UNL     1      41.460 -14.962   5.129  1.00  0.00    -0.375 N 
HETATM   26  C   UNL     1      40.595 -15.579   6.134  1.00  0.00     0.150 C 
HETATM   27  C   UNL     1      41.884 -13.588   5.436  1.00  0.00     0.150 C 
ENDBRANCH   1  25
BRANCH   9  28
HETATM   28  C   UNL     1      43.826 -19.513   3.844  1.00  0.00     0.010 A 
HETATM   29  C   UNL     1      43.965 -19.768   5.230  1.00  0.00     0.152 A 
HETATM   30  N   UNL     1      44.763 -20.801   5.492  1.00  0.00    -0.187 NA
HETATM   31  N   UNL     1      45.151 -21.222   4.279  1.00  0.00    -0.289 N 
HETATM   32  H   UNL     1      45.780 -22.018   4.220  1.00  0.00     0.188 HD
HETATM   33  C   UNL     1      44.613 -20.486   3.259  1.00  0.00     0.123 A 
ENDBRANCH   9  28
TORSDOF 4
ENDMDL
MODEL 9
REMARK VINA RESULT:      -7.9      2.353      7.271
REMARK  4 active torsions:
REMARK  status: ('A' for Active; 'I' for Inactive)
REMARK    1  A    between atoms: N_2  and  C_4 
REMARK    2  A    between atoms: C_7  and  C_21 
REMARK    3  A    between atoms: C_12  and  C_15 
REMARK    4  A    between atoms: C_27  and  C_28 
ROOT
HETATM    1  C   UNL     1      40.965 -14.108   2.937  1.00  0.00     0.116 A 
HETATM    2  N   UNL     1      41.197 -14.887   4.007  1.00  0.00    -0.330 N 
HETATM    3  H   UNL     1      41.086 -14.462   4.921  1.00  0.00     0.168 HD
HETATM    4  C   UNL     1      41.508 -16.181   3.871  1.00  0.00     0.112 A 
HETATM    5  N   UNL     1      41.559 -16.804   2.679  1.00  0.00    -0.234 NA
HETATM    6  C   UNL     1      41.317 -16.072   1.584  1.00  0.00     0.072 A 
HETATM    7  C   UNL     1      41.367 -16.695   0.347  1.00  0.00     0.033 A 
HETATM    8  C   UNL     1      41.166 -15.987  -0.843  1.00  0.00     0.014 A 
HETATM    9  C   UNL     1      40.923 -14.614  -0.819  1.00  0.00    -0.022 A 
HETATM   10  C   UNL     1      40.862 -13.982   0.430  1.00  0.00     0.030 A 
HETATM   11  C   UNL     1      41.033 -14.698   1.645  1.00  0.00     0.037 A 
ENDROOT
BRANCH   4  12
HETATM   12  C   UNL     1      41.794 -17.026   5.089  1.00  0.00     0.091 C 
HETATM   13  C   UNL     1      41.425 -16.315   6.393  1.00  0.00     0.245 C 
HETATM   14  N   UNL     1      42.239 -17.012   7.440  1.00  0.00    -0.074 N 
HETATM   15  H   UNL     1      42.484 -16.369   8.212  1.00  0.00     0.277 HD
HETATM   16  H   UNL     1      41.712 -17.777   7.894  1.00  0.00     0.277 HD
HETATM   17  C   UNL     1      43.482 -17.553   6.788  1.00  0.00     0.242 C 
HETATM   18  C   UNL     1      43.297 -17.297   5.280  1.00  0.00     0.057 C 
BRANCH  18  19
HETATM   19  C   UNL     1      43.790 -18.422   4.400  1.00  0.00    -0.052 A 
HETATM   20  C   UNL     1      44.166 -19.669   4.926  1.00  0.00     0.007 A 
HETATM   21  C   UNL     1      44.635 -20.681   4.086  1.00  0.00     0.001 A 
HETATM   22  C   UNL     1      44.729 -20.463   2.714  1.00  0.00     0.000 A 
HETATM   23  C   UNL     1      44.349 -19.236   2.178  1.00  0.00     0.001 A 
HETATM   24  C   UNL     1      43.881 -18.221   3.014  1.00  0.00     0.007 A 
ENDBRANCH  18  19
ENDBRANCH   4  12
BRANCH   1  25
HETATM   25  N   UNL     1      40.679 -12.764   3.131  1.00  0.00    -0.375 N 
HETATM   26  C   UNL     1      41.585 -11.935   3.925  1.00  0.00     0.150 C 
HETATM   27  C   UNL     1      39.252 -12.441   3.281  1.00  0.00     0.150 C 
ENDBRANCH   1  25
BRANCH   9  28
HETATM   28  C   UNL     1      40.730 -13.853  -2.043  1.00  0.00     0.010 A 
HETATM   29  C   UNL     1      41.592 -12.960  -2.725  1.00  0.00     0.152 A 
HETATM   30  N   UNL     1      41.052 -12.463  -3.837  1.00  0.00    -0.187 NA
HETATM   31  N   UNL     1      39.835 -13.027  -3.882  1.00  0.00    -0.289 N 
HETATM   32  H   UNL     1      39.222 -12.793  -4.657  1.00  0.00     0.188 HD
HETATM   33  C   UNL     1      39.597 -13.871  -2.832  1.00  0.00     0.123 A 
ENDBRANCH   9  28
TORSDOF 4
ENDMDL
MODEL 10
REMARK VINA RESULT:      -7.8      2.834      7.982
REMARK  4 active torsions:
REMARK  status: ('A' for Active; 'I' for Inactive)
REMARK    1  A    between atoms: N_2  and  C_4 
REMARK    2  A    between atoms: C_7  and  C_21 
REMARK    3  A    between atoms: C_12  and  C_15 
REMARK    4  A    between atoms: C_27  and  C_28 
ROOT
HETATM    1  C   UNL     1      43.051 -14.177   5.585  1.00  0.00     0.116 A 
HETATM    2  N   UNL     1      43.032 -15.009   4.530  1.00  0.00    -0.330 N 
HETATM    3  H   UNL     1      43.616 -15.836   4.582  1.00  0.00     0.168 HD
HETATM    4  C   UNL     1      42.233 -14.784   3.481  1.00  0.00     0.112 A 
HETATM    5  N   UNL     1      41.365 -13.756   3.425  1.00  0.00    -0.234 NA
HETATM    6  C   UNL     1      41.337 -12.910   4.462  1.00  0.00     0.072 A 
HETATM    7  C   UNL     1      40.451 -11.844   4.422  1.00  0.00     0.033 A 
HETATM    8  C   UNL     1      40.393 -10.895   5.449  1.00  0.00     0.014 A 
HETATM    9  C   UNL     1      41.246 -10.987   6.548  1.00  0.00    -0.022 A 
HETATM   10  C   UNL     1      42.136 -12.069   6.598  1.00  0.00     0.030 A 
HETATM   11  C   UNL     1      42.180 -13.054   5.575  1.00  0.00     0.037 A 
ENDROOT
BRANCH   4  12
HETATM   12  C   UNL     1      42.252 -15.718   2.296  1.00  0.00     0.091 C 
HETATM   13  C   UNL     1      41.396 -15.205   1.134  1.00  0.00     0.245 C 
HETATM   14  N   UNL     1      41.093 -16.430   0.326  1.00  0.00    -0.074 N 
HETATM   15  H   UNL     1      40.177 -16.348  -0.146  1.00  0.00     0.277 HD
HETATM   16  H   UNL     1      41.772 -16.564  -0.442  1.00  0.00     0.277 HD
HETATM   17  C   UNL     1      41.109 -17.618   1.248  1.00  0.00     0.242 C 
HETATM   18  C   UNL     1      41.598 -17.078   2.605  1.00  0.00     0.057 C 
BRANCH  18  19
HETATM   19  C   UNL     1      42.537 -18.008   3.336  1.00  0.00    -0.052 A 
HETATM   20  C   UNL     1      43.581 -18.680   2.679  1.00  0.00     0.007 A 
HETATM   21  C   UNL     1      44.419 -19.548   3.382  1.00  0.00     0.001 A 
HETATM   22  C   UNL     1      44.230 -19.751   4.746  1.00  0.00     0.000 A 
HETATM   23  C   UNL     1      43.207 -19.083   5.412  1.00  0.00     0.001 A 
HETATM   24  C   UNL     1      42.366 -18.216   4.713  1.00  0.00     0.007 A 
ENDBRANCH  18  19
ENDBRANCH   4  12
BRANCH   1  25
HETATM   25  N   UNL     1      43.923 -14.439   6.633  1.00  0.00    -0.375 N 
HETATM   26  C   UNL     1      45.264 -13.856   6.627  1.00  0.00     0.150 C 
HETATM   27  C   UNL     1      43.840 -15.795   7.195  1.00  0.00     0.150 C 
ENDBRANCH   1  25
BRANCH   9  28
HETATM   28  C   UNL     1      41.218 -10.003   7.618  1.00  0.00     0.010 A 
HETATM   29  C   UNL     1      41.462 -10.136   9.007  1.00  0.00     0.152 A 
HETATM   30  N   UNL     1      41.350  -8.985   9.668  1.00  0.00    -0.187 NA
HETATM   31  N   UNL     1      41.030  -8.098   8.714  1.00  0.00    -0.289 N 
HETATM   32  H   UNL     1      40.888  -7.128   8.982  1.00  0.00     0.188 HD
HETATM   33  C   UNL     1      40.944  -8.658   7.469  1.00  0.00     0.123 A 
ENDBRANCH   9  28
TORSDOF 4
ENDMDL
