MODEL 1
REMARK VINA RESULT:      -7.2      0.000      0.000
REMARK  8 active torsions:
REMARK  status: ('A' for Active; 'I' for Inactive)
REMARK    1  A    between atoms: C_4  and  C_5 
REMARK    2  A    between atoms: C_5  and  N_6 
REMARK    3  A    between atoms: N_6  and  C_9 
REMARK    4  A    between atoms: C_9  and  C_10 
REMARK    5  A    between atoms: C_10  and  C_11 
REMARK    6  A    between atoms: C_11  and  N_12 
REMARK       I    between atoms: N_12  and  C_13 
REMARK    7  A    between atoms: C_13  and  C_14 
REMARK    8  A    between atoms: C_16  and  O_17 
ROOT
HETATM    1  C   UNL     1      42.447 -16.062   6.509  1.00  0.00     0.047 C 
ENDROOT
BRANCH   1   2
HETATM    2  C   UNL     1      41.152 -16.822   6.257  1.00  0.00     0.235 C 
BRANCH   2   3
HETATM    3  N   UNL     1      40.065 -15.839   5.964  1.00  0.00    -0.067 N 
HETATM    4  H   UNL     1      39.569 -15.568   6.821  1.00  0.00     0.277 HD
HETATM    5  H   UNL     1      39.364 -16.323   5.382  1.00  0.00     0.277 HD
BRANCH   3   6
HETATM    6  C   UNL     1      40.465 -14.598   5.217  1.00  0.00     0.223 C 
HETATM    7  C   UNL     1      39.705 -13.390   5.763  1.00  0.00     0.046 C 
BRANCH   6   8
HETATM    8  C   UNL     1      40.240 -14.759   3.745  1.00  0.00     0.032 A 
HETATM    9  S   UNL     1      39.501 -13.536   2.786  1.00  0.00    -0.076 SA
HETATM   10  C   UNL     1      39.682 -14.523   1.391  1.00  0.00     0.071 A 
HETATM   11  C   UNL     1      39.225 -14.040   0.059  1.00  0.00     0.078 C 
HETATM   12  N   UNL     1      40.245 -15.692   1.607  1.00  0.00    -0.257 NA
HETATM   13  C   UNL     1      40.572 -15.829   2.937  1.00  0.00     0.134 A 
ENDBRANCH   6   8
ENDBRANCH   3   6
ENDBRANCH   2   3
ENDBRANCH   1   2
BRANCH   1  14
HETATM   14  C   UNL     1      43.534 -16.391   5.483  1.00  0.00     0.124 C 
BRANCH  14  15
HETATM   15  N   UNL     1      43.399 -17.658   4.786  1.00  0.00    -0.357 N 
HETATM   16  C   UNL     1      44.301 -18.696   4.931  1.00  0.00     0.251 C 
HETATM   17  O   UNL     1      45.120 -18.760   5.840  1.00  0.00    -0.268 OA
HETATM   18  H   UNL     1      42.930 -17.613   3.885  1.00  0.00     0.162 HD
BRANCH  16  19
HETATM   19  C   UNL     1      44.216 -19.773   3.917  1.00  0.00     0.034 A 
HETATM   20  C   UNL     1      44.630 -21.062   4.270  1.00  0.00     0.053 A 
HETATM   21  C   UNL     1      44.555 -22.077   3.323  1.00  0.00     0.066 A 
HETATM   22  C   UNL     1      44.058 -21.829   2.047  1.00  0.00     0.036 A 
HETATM   23  C   UNL     1      43.629 -20.548   1.701  1.00  0.00     0.004 A 
HETATM   24  C   UNL     1      43.709 -19.514   2.635  1.00  0.00     0.017 A 
BRANCH  21  25
HETATM   25  O   UNL     1      44.964 -23.346   3.602  1.00  0.00    -0.361 OA
HETATM   26  H   UNL     1      44.272 -23.977   3.345  1.00  0.00     0.217 HD
ENDBRANCH  21  25
ENDBRANCH  16  19
ENDBRANCH  14  15
ENDBRANCH   1  14
TORSDOF 8
ENDMDL
MODEL 2
REMARK VINA RESULT:      -7.2      2.061      4.118
REMARK  8 active torsions:
REMARK  status: ('A' for Active; 'I' for Inactive)
REMARK    1  A    between atoms: C_4  and  C_5 
REMARK    2  A    between atoms: C_5  and  N_6 
REMARK    3  A    between atoms: N_6  and  C_9 
REMARK    4  A    between atoms: C_9  and  C_10 
REMARK    5  A    between atoms: C_10  and  C_11 
REMARK    6  A    between atoms: C_11  and  N_12 
REMARK       I    between atoms: N_12  and  C_13 
REMARK    7  A    between atoms: C_13  and  C_14 
REMARK    8  A    between atoms: C_16  and  O_17 
ROOT
HETATM    1  C   UNL     1      39.828 -16.122   2.075  1.00  0.00     0.047 C 
ENDROOT
BRANCH   1   2
HETATM    2  C   UNL     1      39.888 -14.751   2.735  1.00  0.00     0.235 C 
BRANCH   2   3
HETATM    3  N   UNL     1      40.009 -14.932   4.213  1.00  0.00    -0.067 N 
HETATM    4  H   UNL     1      40.114 -15.925   4.459  1.00  0.00     0.277 HD
HETATM    5  H   UNL     1      39.113 -14.640   4.632  1.00  0.00     0.277 HD
BRANCH   3   6
HETATM    6  C   UNL     1      41.087 -14.142   4.901  1.00  0.00     0.223 C 
HETATM    7  C   UNL     1      41.885 -13.340   3.875  1.00  0.00     0.046 C 
BRANCH   6   8
HETATM    8  C   UNL     1      41.981 -15.036   5.703  1.00  0.00     0.032 A 
HETATM    9  S   UNL     1      41.494 -16.602   6.224  1.00  0.00    -0.076 SA
HETATM   10  C   UNL     1      43.028 -16.829   6.966  1.00  0.00     0.071 A 
HETATM   11  C   UNL     1      43.345 -18.104   7.668  1.00  0.00     0.078 C 
HETATM   12  N   UNL     1      43.856 -15.816   6.851  1.00  0.00    -0.257 NA
HETATM   13  C   UNL     1      43.274 -14.799   6.129  1.00  0.00     0.134 A 
ENDBRANCH   6   8
ENDBRANCH   3   6
ENDBRANCH   2   3
ENDBRANCH   1   2
BRANCH   1  14
HETATM   14  C   UNL     1      41.181 -16.567   1.515  1.00  0.00     0.124 C 
BRANCH  14  15
HETATM   15  N   UNL     1      41.774 -17.745   2.124  1.00  0.00    -0.357 N 
HETATM   16  C   UNL     1      43.004 -17.727   2.756  1.00  0.00     0.251 C 
HETATM   17  O   UNL     1      43.573 -16.699   3.102  1.00  0.00    -0.268 OA
HETATM   18  H   UNL     1      41.518 -18.633   1.698  1.00  0.00     0.162 HD
BRANCH  16  19
HETATM   19  C   UNL     1      43.614 -19.051   3.022  1.00  0.00     0.034 A 
HETATM   20  C   UNL     1      43.553 -20.031   2.025  1.00  0.00     0.053 A 
HETATM   21  C   UNL     1      44.122 -21.276   2.267  1.00  0.00     0.066 A 
HETATM   22  C   UNL     1      44.762 -21.547   3.473  1.00  0.00     0.036 A 
HETATM   23  C   UNL     1      44.838 -20.564   4.460  1.00  0.00     0.004 A 
HETATM   24  C   UNL     1      44.261 -19.313   4.238  1.00  0.00     0.017 A 
BRANCH  21  25
HETATM   25  O   UNL     1      44.074 -22.276   1.343  1.00  0.00    -0.361 OA
HETATM   26  H   UNL     1      44.887 -22.270   0.812  1.00  0.00     0.217 HD
ENDBRANCH  21  25
ENDBRANCH  16  19
ENDBRANCH  14  15
ENDBRANCH   1  14
TORSDOF 8
ENDMDL
MODEL 3
REMARK VINA RESULT:      -7.2      4.429      6.110
REMARK  8 active torsions:
REMARK  status: ('A' for Active; 'I' for Inactive)
REMARK    1  A    between atoms: C_4  and  C_5 
REMARK    2  A    between atoms: C_5  and  N_6 
REMARK    3  A    between atoms: N_6  and  C_9 
REMARK    4  A    between atoms: C_9  and  C_10 
REMARK    5  A    between atoms: C_10  and  C_11 
REMARK    6  A    between atoms: C_11  and  N_12 
REMARK       I    between atoms: N_12  and  C_13 
REMARK    7  A    between atoms: C_13  and  C_14 
REMARK    8  A    between atoms: C_16  and  O_17 
ROOT
HETATM    1  C   UNL     1      44.371 -15.804   6.998  1.00  0.00     0.047 C 
ENDROOT
BRANCH   1   2
HETATM    2  C   UNL     1      44.710 -14.345   6.724  1.00  0.00     0.235 C 
BRANCH   2   3
HETATM    3  N   UNL     1      43.902 -13.482   7.638  1.00  0.00    -0.067 N 
HETATM    4  H   UNL     1      43.540 -14.022   8.434  1.00  0.00     0.277 HD
HETATM    5  H   UNL     1      43.069 -13.176   7.113  1.00  0.00     0.277 HD
BRANCH   3   6
HETATM    6  C   UNL     1      44.570 -12.239   8.153  1.00  0.00     0.223 C 
HETATM    7  C   UNL     1      46.038 -12.524   8.467  1.00  0.00     0.046 C 
BRANCH   6   8
HETATM    8  C   UNL     1      43.855 -11.701   9.354  1.00  0.00     0.032 A 
HETATM    9  S   UNL     1      44.261 -12.174  10.958  1.00  0.00    -0.076 SA
HETATM   10  C   UNL     1      43.044 -11.127  11.572  1.00  0.00     0.071 A 
HETATM   11  C   UNL     1      42.821 -11.006  13.040  1.00  0.00     0.078 C 
HETATM   12  N   UNL     1      42.365 -10.468  10.659  1.00  0.00    -0.257 NA
HETATM   13  C   UNL     1      42.825 -10.781   9.400  1.00  0.00     0.134 A 
ENDBRANCH   6   8
ENDBRANCH   3   6
ENDBRANCH   2   3
ENDBRANCH   1   2
BRANCH   1  14
HETATM   14  C   UNL     1      43.660 -16.475   5.820  1.00  0.00     0.124 C 
BRANCH  14  15
HETATM   15  N   UNL     1      44.131 -17.800   5.455  1.00  0.00    -0.357 N 
HETATM   16  C   UNL     1      44.088 -18.283   4.160  1.00  0.00     0.251 C 
HETATM   17  O   UNL     1      43.917 -17.572   3.177  1.00  0.00    -0.268 OA
HETATM   18  H   UNL     1      44.059 -18.506   6.184  1.00  0.00     0.162 HD
BRANCH  16  19
HETATM   19  C   UNL     1      44.285 -19.744   4.007  1.00  0.00     0.034 A 
HETATM   20  C   UNL     1      44.135 -20.313   2.739  1.00  0.00     0.053 A 
HETATM   21  C   UNL     1      44.316 -21.683   2.588  1.00  0.00     0.066 A 
HETATM   22  C   UNL     1      44.661 -22.482   3.674  1.00  0.00     0.036 A 
HETATM   23  C   UNL     1      44.827 -21.912   4.935  1.00  0.00     0.004 A 
HETATM   24  C   UNL     1      44.637 -20.540   5.107  1.00  0.00     0.017 A 
BRANCH  21  25
HETATM   25  O   UNL     1      44.162 -22.296   1.381  1.00  0.00    -0.361 OA
HETATM   26  H   UNL     1      43.338 -21.996   0.964  1.00  0.00     0.217 HD
ENDBRANCH  21  25
ENDBRANCH  16  19
ENDBRANCH  14  15
ENDBRANCH   1  14
TORSDOF 8
ENDMDL
MODEL 4
REMARK VINA RESULT:      -7.1      5.705      9.406
REMARK  8 active torsions:
REMARK  status: ('A' for Active; 'I' for Inactive)
REMARK    1  A    between atoms: C_4  and  C_5 
REMARK    2  A    between atoms: C_5  and  N_6 
REMARK    3  A    between atoms: N_6  and  C_9 
REMARK    4  A    between atoms: C_9  and  C_10 
REMARK    5  A    between atoms: C_10  and  C_11 
REMARK    6  A    between atoms: C_11  and  N_12 
REMARK       I    between atoms: N_12  and  C_13 
REMARK    7  A    between atoms: C_13  and  C_14 
REMARK    8  A    between atoms: C_16  and  O_17 
ROOT
HETATM    1  C   UNL     1      44.231 -13.613   6.961  1.00  0.00     0.047 C 
ENDROOT
BRANCH   1   2
HETATM    2  C   UNL     1      44.280 -15.132   7.046  1.00  0.00     0.235 C 
BRANCH   2   3
HETATM    3  N   UNL     1      42.906 -15.672   6.817  1.00  0.00    -0.067 N 
HETATM    4  H   UNL     1      42.560 -15.425   5.881  1.00  0.00     0.277 HD
HETATM    5  H   UNL     1      42.274 -15.192   7.477  1.00  0.00     0.277 HD
BRANCH   3   6
HETATM    6  C   UNL     1      42.719 -17.147   7.034  1.00  0.00     0.223 C 
HETATM    7  C   UNL     1      43.461 -17.590   8.294  1.00  0.00     0.046 C 
BRANCH   6   8
HETATM    8  C   UNL     1      43.169 -17.928   5.839  1.00  0.00     0.032 A 
HETATM    9  S   UNL     1      42.322 -17.893   4.340  1.00  0.00    -0.076 SA
HETATM   10  C   UNL     1      43.484 -18.961   3.662  1.00  0.00     0.071 A 
HETATM   11  C   UNL     1      43.374 -19.393   2.240  1.00  0.00     0.078 C 
HETATM   12  N   UNL     1      44.441 -19.337   4.482  1.00  0.00    -0.257 NA
HETATM   13  C   UNL     1      44.274 -18.748   5.715  1.00  0.00     0.134 A 
ENDBRANCH   6   8
ENDBRANCH   3   6
ENDBRANCH   2   3
ENDBRANCH   1   2
BRANCH   1  14
HETATM   14  C   UNL     1      44.886 -12.933   8.166  1.00  0.00     0.124 C 
BRANCH  14  15
HETATM   15  N   UNL     1      43.987 -12.287   9.107  1.00  0.00    -0.357 N 
HETATM   16  C   UNL     1      44.331 -11.150   9.816  1.00  0.00     0.251 C 
HETATM   17  O   UNL     1      45.284 -10.435   9.530  1.00  0.00    -0.268 OA
HETATM   18  H   UNL     1      43.322 -12.902   9.570  1.00  0.00     0.162 HD
BRANCH  16  19
HETATM   19  C   UNL     1      43.455 -10.813  10.964  1.00  0.00     0.034 A 
HETATM   20  C   UNL     1      42.110 -11.193  10.915  1.00  0.00     0.053 A 
HETATM   21  C   UNL     1      41.282 -10.879  11.987  1.00  0.00     0.066 A 
HETATM   22  C   UNL     1      41.780 -10.216  13.105  1.00  0.00     0.036 A 
HETATM   23  C   UNL     1      43.125  -9.853  13.160  1.00  0.00     0.004 A 
HETATM   24  C   UNL     1      43.968 -10.149  12.087  1.00  0.00     0.017 A 
BRANCH  21  25
HETATM   25  O   UNL     1      39.959 -11.204  11.987  1.00  0.00    -0.361 OA
HETATM   26  H   UNL     1      39.423 -10.397  12.055  1.00  0.00     0.217 HD
ENDBRANCH  21  25
ENDBRANCH  16  19
ENDBRANCH  14  15
ENDBRANCH   1  14
TORSDOF 8
ENDMDL
MODEL 5
REMARK VINA RESULT:      -7.0      1.721      2.086
REMARK  8 active torsions:
REMARK  status: ('A' for Active; 'I' for Inactive)
REMARK    1  A    between atoms: C_4  and  C_5 
REMARK    2  A    between atoms: C_5  and  N_6 
REMARK    3  A    between atoms: N_6  and  C_9 
REMARK    4  A    between atoms: C_9  and  C_10 
REMARK    5  A    between atoms: C_10  and  C_11 
REMARK    6  A    between atoms: C_11  and  N_12 
REMARK       I    between atoms: N_12  and  C_13 
REMARK    7  A    between atoms: C_13  and  C_14 
REMARK    8  A    between atoms: C_16  and  O_17 
ROOT
HETATM    1  C   UNL     1      41.957 -16.794   6.467  1.00  0.00     0.047 C 
ENDROOT
BRANCH   1   2
HETATM    2  C   UNL     1      40.964 -16.551   5.339  1.00  0.00     0.235 C 
BRANCH   2   3
HETATM    3  N   UNL     1      40.065 -15.421   5.723  1.00  0.00    -0.067 N 
HETATM    4  H   UNL     1      39.617 -15.595   6.632  1.00  0.00     0.277 HD
HETATM    5  H   UNL     1      39.295 -15.396   5.038  1.00  0.00     0.277 HD
BRANCH   3   6
HETATM    6  C   UNL     1      40.678 -14.049   5.735  1.00  0.00     0.223 C 
HETATM    7  C   UNL     1      39.617 -13.004   6.076  1.00  0.00     0.046 C 
BRANCH   6   8
HETATM    8  C   UNL     1      41.339 -13.743   4.427  1.00  0.00     0.032 A 
HETATM    9  S   UNL     1      40.446 -13.518   2.972  1.00  0.00    -0.076 SA
HETATM   10  C   UNL     1      41.910 -13.224   2.122  1.00  0.00     0.071 A 
HETATM   11  C   UNL     1      41.888 -12.912   0.666  1.00  0.00     0.078 C 
HETATM   12  N   UNL     1      43.001 -13.293   2.853  1.00  0.00    -0.257 NA
HETATM   13  C   UNL     1      42.685 -13.577   4.162  1.00  0.00     0.134 A 
ENDBRANCH   6   8
ENDBRANCH   3   6
ENDBRANCH   2   3
ENDBRANCH   1   2
BRANCH   1  14
HETATM   14  C   UNL     1      43.409 -16.813   5.982  1.00  0.00     0.124 C 
BRANCH  14  15
HETATM   15  N   UNL     1      43.937 -18.106   5.583  1.00  0.00    -0.357 N 
HETATM   16  C   UNL     1      44.071 -18.488   4.260  1.00  0.00     0.251 C 
HETATM   17  O   UNL     1      44.025 -17.703   3.320  1.00  0.00    -0.268 OA
HETATM   18  H   UNL     1      43.776 -18.866   6.239  1.00  0.00     0.162 HD
BRANCH  16  19
HETATM   19  C   UNL     1      44.300 -19.933   4.024  1.00  0.00     0.034 A 
HETATM   20  C   UNL     1      44.138 -20.435   2.729  1.00  0.00     0.053 A 
HETATM   21  C   UNL     1      44.350 -21.791   2.499  1.00  0.00     0.066 A 
HETATM   22  C   UNL     1      44.737 -22.638   3.533  1.00  0.00     0.036 A 
HETATM   23  C   UNL     1      44.914 -22.133   4.821  1.00  0.00     0.004 A 
HETATM   24  C   UNL     1      44.693 -20.778   5.071  1.00  0.00     0.017 A 
BRANCH  21  25
HETATM   25  O   UNL     1      44.187 -22.340   1.264  1.00  0.00    -0.361 OA
HETATM   26  H   UNL     1      43.839 -23.243   1.350  1.00  0.00     0.217 HD
ENDBRANCH  21  25
ENDBRANCH  16  19
ENDBRANCH  14  15
ENDBRANCH   1  14
TORSDOF 8
ENDMDL
MODEL 6
REMARK VINA RESULT:      -6.9      3.295      5.092
REMARK  8 active torsions:
REMARK  status: ('A' for Active; 'I' for Inactive)
REMARK    1  A    between atoms: C_4  and  C_5 
REMARK    2  A    between atoms: C_5  and  N_6 
REMARK    3  A    between atoms: N_6  and  C_9 
REMARK    4  A    between atoms: C_9  and  C_10 
REMARK    5  A    between atoms: C_10  and  C_11 
REMARK    6  A    between atoms: C_11  and  N_12 
REMARK       I    between atoms: N_12  and  C_13 
REMARK    7  A    between atoms: C_13  and  C_14 
REMARK    8  A    between atoms: C_16  and  O_17 
ROOT
HETATM    1  C   UNL     1      40.916 -16.562   1.127  1.00  0.00     0.047 C 
ENDROOT
BRANCH   1   2
HETATM    2  C   UNL     1      41.560 -15.727   0.029  1.00  0.00     0.235 C 
BRANCH   2   3
HETATM    3  N   UNL     1      40.485 -15.174  -0.850  1.00  0.00    -0.067 N 
HETATM    4  H   UNL     1      40.189 -14.242  -0.534  1.00  0.00     0.277 HD
HETATM    5  H   UNL     1      39.657 -15.778  -0.737  1.00  0.00     0.277 HD
BRANCH   3   6
HETATM    6  C   UNL     1      40.783 -15.120  -2.321  1.00  0.00     0.223 C 
HETATM    7  C   UNL     1      41.613 -13.878  -2.643  1.00  0.00     0.046 C 
BRANCH   6   8
HETATM    8  C   UNL     1      39.522 -15.151  -3.128  1.00  0.00     0.032 A 
HETATM    9  S   UNL     1      38.217 -14.066  -2.841  1.00  0.00    -0.076 SA
HETATM   10  C   UNL     1      37.340 -14.783  -4.133  1.00  0.00     0.071 A 
HETATM   11  C   UNL     1      35.986 -14.280  -4.498  1.00  0.00     0.078 C 
HETATM   12  N   UNL     1      37.957 -15.771  -4.743  1.00  0.00    -0.257 NA
HETATM   13  C   UNL     1      39.198 -15.979  -4.185  1.00  0.00     0.134 A 
ENDBRANCH   6   8
ENDBRANCH   3   6
ENDBRANCH   2   3
ENDBRANCH   1   2
BRANCH   1  14
HETATM   14  C   UNL     1      41.526 -16.297   2.505  1.00  0.00     0.124 C 
BRANCH  14  15
HETATM   15  N   UNL     1      42.241 -17.404   3.116  1.00  0.00    -0.357 N 
HETATM   16  C   UNL     1      43.495 -17.811   2.698  1.00  0.00     0.251 C 
HETATM   17  O   UNL     1      44.226 -17.132   1.986  1.00  0.00    -0.268 OA
HETATM   18  H   UNL     1      41.657 -18.136   3.513  1.00  0.00     0.162 HD
BRANCH  16  19
HETATM   19  C   UNL     1      43.939 -19.140   3.182  1.00  0.00     0.034 A 
HETATM   20  C   UNL     1      43.996 -20.200   2.273  1.00  0.00     0.053 A 
HETATM   21  C   UNL     1      44.409 -21.451   2.719  1.00  0.00     0.066 A 
HETATM   22  C   UNL     1      44.782 -21.648   4.046  1.00  0.00     0.036 A 
HETATM   23  C   UNL     1      44.740 -20.586   4.948  1.00  0.00     0.004 A 
HETATM   24  C   UNL     1      44.316 -19.327   4.520  1.00  0.00     0.017 A 
BRANCH  21  25
HETATM   25  O   UNL     1      44.464 -22.526   1.884  1.00  0.00    -0.361 OA
HETATM   26  H   UNL     1      44.055 -22.300   1.033  1.00  0.00     0.217 HD
ENDBRANCH  21  25
ENDBRANCH  16  19
ENDBRANCH  14  15
ENDBRANCH   1  14
TORSDOF 8
ENDMDL
MODEL 7
REMARK VINA RESULT:      -6.9      1.951      2.196
REMARK  8 active torsions:
REMARK  status: ('A' for Active; 'I' for Inactive)
REMARK    1  A    between atoms: C_4  and  C_5 
REMARK    2  A    between atoms: C_5  and  N_6 
REMARK    3  A    between atoms: N_6  and  C_9 
REMARK    4  A    between atoms: C_9  and  C_10 
REMARK    5  A    between atoms: C_10  and  C_11 
REMARK    6  A    between atoms: C_11  and  N_12 
REMARK       I    between atoms: N_12  and  C_13 
REMARK    7  A    between atoms: C_13  and  C_14 
REMARK    8  A    between atoms: C_16  and  O_17 
ROOT
HETATM    1  C   UNL     1      44.628 -14.835   6.932  1.00  0.00     0.047 C 
ENDROOT
BRANCH   1   2
HETATM    2  C   UNL     1      43.582 -13.798   6.548  1.00  0.00     0.235 C 
BRANCH   2   3
HETATM    3  N   UNL     1      42.299 -14.498   6.239  1.00  0.00    -0.067 N 
HETATM    4  H   UNL     1      41.677 -14.514   7.058  1.00  0.00     0.277 HD
HETATM    5  H   UNL     1      42.527 -15.486   6.050  1.00  0.00     0.277 HD
BRANCH   3   6
HETATM    6  C   UNL     1      41.528 -13.996   5.051  1.00  0.00     0.223 C 
HETATM    7  C   UNL     1      40.030 -14.018   5.350  1.00  0.00     0.046 C 
BRANCH   6   8
HETATM    8  C   UNL     1      41.847 -14.796   3.826  1.00  0.00     0.032 A 
HETATM    9  S   UNL     1      40.638 -15.633   2.930  1.00  0.00    -0.076 SA
HETATM   10  C   UNL     1      41.836 -16.172   1.822  1.00  0.00     0.071 A 
HETATM   11  C   UNL     1      41.460 -17.020   0.657  1.00  0.00     0.078 C 
HETATM   12  N   UNL     1      43.060 -15.774   2.089  1.00  0.00    -0.257 NA
HETATM   13  C   UNL     1      43.073 -14.986   3.218  1.00  0.00     0.134 A 
ENDBRANCH   6   8
ENDBRANCH   3   6
ENDBRANCH   2   3
ENDBRANCH   1   2
BRANCH   1  14
HETATM   14  C   UNL     1      44.032 -16.232   7.121  1.00  0.00     0.124 C 
BRANCH  14  15
HETATM   15  N   UNL     1      44.298 -17.193   6.065  1.00  0.00    -0.357 N 
HETATM   16  C   UNL     1      43.308 -17.959   5.477  1.00  0.00     0.251 C 
HETATM   17  O   UNL     1      42.111 -17.717   5.583  1.00  0.00    -0.268 OA
HETATM   18  H   UNL     1      45.222 -17.619   6.085  1.00  0.00     0.162 HD
BRANCH  16  19
HETATM   19  C   UNL     1      43.774 -19.113   4.671  1.00  0.00     0.034 A 
HETATM   20  C   UNL     1      44.367 -20.195   5.330  1.00  0.00     0.053 A 
HETATM   21  C   UNL     1      44.808 -21.280   4.580  1.00  0.00     0.066 A 
HETATM   22  C   UNL     1      44.649 -21.306   3.198  1.00  0.00     0.036 A 
HETATM   23  C   UNL     1      44.043 -20.234   2.545  1.00  0.00     0.004 A 
HETATM   24  C   UNL     1      43.605 -19.131   3.280  1.00  0.00     0.017 A 
BRANCH  21  25
HETATM   25  O   UNL     1      45.412 -22.353   5.164  1.00  0.00    -0.361 OA
HETATM   26  H   UNL     1      45.705 -22.976   4.479  1.00  0.00     0.217 HD
ENDBRANCH  21  25
ENDBRANCH  16  19
ENDBRANCH  14  15
ENDBRANCH   1  14
TORSDOF 8
ENDMDL
MODEL 8
REMARK VINA RESULT:      -6.9      1.850      2.253
REMARK  8 active torsions:
REMARK  status: ('A' for Active; 'I' for Inactive)
REMARK    1  A    between atoms: C_4  and  C_5 
REMARK    2  A    between atoms: C_5  and  N_6 
REMARK    3  A    between atoms: N_6  and  C_9 
REMARK    4  A    between atoms: C_9  and  C_10 
REMARK    5  A    between atoms: C_10  and  C_11 
REMARK    6  A    between atoms: C_11  and  N_12 
REMARK       I    between atoms: N_12  and  C_13 
REMARK    7  A    between atoms: C_13  and  C_14 
REMARK    8  A    between atoms: C_16  and  O_17 
ROOT
HETATM    1  C   UNL     1      41.995 -16.117   6.316  1.00  0.00     0.047 C 
ENDROOT
BRANCH   1   2
HETATM    2  C   UNL     1      40.960 -15.926   5.216  1.00  0.00     0.235 C 
BRANCH   2   3
HETATM    3  N   UNL     1      41.569 -15.117   4.117  1.00  0.00    -0.067 N 
HETATM    4  H   UNL     1      42.588 -15.244   4.083  1.00  0.00     0.277 HD
HETATM    5  H   UNL     1      41.424 -14.123   4.352  1.00  0.00     0.277 HD
BRANCH   3   6
HETATM    6  C   UNL     1      41.004 -15.322   2.740  1.00  0.00     0.223 C 
HETATM    7  C   UNL     1      41.361 -16.717   2.230  1.00  0.00     0.046 C 
BRANCH   6   8
HETATM    8  C   UNL     1      41.484 -14.263   1.797  1.00  0.00     0.032 A 
HETATM    9  S   UNL     1      41.315 -14.401   0.090  1.00  0.00    -0.076 SA
HETATM   10  C   UNL     1      42.057 -12.863  -0.105  1.00  0.00     0.071 A 
HETATM   11  C   UNL     1      42.243 -12.282  -1.464  1.00  0.00     0.078 C 
HETATM   12  N   UNL     1      42.420 -12.275   1.013  1.00  0.00    -0.257 NA
HETATM   13  C   UNL     1      42.090 -13.057   2.096  1.00  0.00     0.134 A 
ENDBRANCH   6   8
ENDBRANCH   3   6
ENDBRANCH   2   3
ENDBRANCH   1   2
BRANCH   1  14
HETATM   14  C   UNL     1      43.331 -16.642   5.785  1.00  0.00     0.124 C 
BRANCH  14  15
HETATM   15  N   UNL     1      43.289 -17.917   5.090  1.00  0.00    -0.357 N 
HETATM   16  C   UNL     1      44.391 -18.745   4.971  1.00  0.00     0.251 C 
HETATM   17  O   UNL     1      45.403 -18.629   5.652  1.00  0.00    -0.268 OA
HETATM   18  H   UNL     1      42.616 -17.979   4.330  1.00  0.00     0.162 HD
BRANCH  16  19
HETATM   19  C   UNL     1      44.282 -19.827   3.963  1.00  0.00     0.034 A 
HETATM   20  C   UNL     1      44.668 -21.121   4.324  1.00  0.00     0.053 A 
HETATM   21  C   UNL     1      44.570 -22.141   3.384  1.00  0.00     0.066 A 
HETATM   22  C   UNL     1      44.077 -21.891   2.107  1.00  0.00     0.036 A 
HETATM   23  C   UNL     1      43.676 -20.603   1.754  1.00  0.00     0.004 A 
HETATM   24  C   UNL     1      43.779 -19.565   2.681  1.00  0.00     0.017 A 
BRANCH  21  25
HETATM   25  O   UNL     1      44.952 -23.417   3.672  1.00  0.00    -0.361 OA
HETATM   26  H   UNL     1      44.217 -24.026   3.495  1.00  0.00     0.217 HD
ENDBRANCH  21  25
ENDBRANCH  16  19
ENDBRANCH  14  15
ENDBRANCH   1  14
TORSDOF 8
ENDMDL
MODEL 9
REMARK VINA RESULT:      -6.8      2.188      3.831
REMARK  8 active torsions:
REMARK  status: ('A' for Active; 'I' for Inactive)
REMARK    1  A    between atoms: C_4  and  C_5 
REMARK    2  A    between atoms: C_5  and  N_6 
REMARK    3  A    between atoms: N_6  and  C_9 
REMARK    4  A    between atoms: C_9  and  C_10 
REMARK    5  A    between atoms: C_10  and  C_11 
REMARK    6  A    between atoms: C_11  and  N_12 
REMARK       I    between atoms: N_12  and  C_13 
REMARK    7  A    between atoms: C_13  and  C_14 
REMARK    8  A    between atoms: C_16  and  O_17 
ROOT
HETATM    1  C   UNL     1      41.555 -16.277   0.357  1.00  0.00     0.047 C 
ENDROOT
BRANCH   1   2
HETATM    2  C   UNL     1      40.580 -15.319   1.027  1.00  0.00     0.235 C 
BRANCH   2   3
HETATM    3  N   UNL     1      40.419 -15.718   2.458  1.00  0.00    -0.067 N 
HETATM    4  H   UNL     1      41.168 -16.357   2.753  1.00  0.00     0.277 HD
HETATM    5  H   UNL     1      39.549 -16.266   2.527  1.00  0.00     0.277 HD
BRANCH   3   6
HETATM    6  C   UNL     1      40.307 -14.602   3.458  1.00  0.00     0.223 C 
HETATM    7  C   UNL     1      39.728 -13.355   2.791  1.00  0.00     0.046 C 
BRANCH   6   8
HETATM    8  C   UNL     1      41.633 -14.310   4.090  1.00  0.00     0.032 A 
HETATM    9  S   UNL     1      42.001 -14.756   5.711  1.00  0.00    -0.076 SA
HETATM   10  C   UNL     1      43.577 -14.094   5.533  1.00  0.00     0.071 A 
HETATM   11  C   UNL     1      44.551 -14.149   6.659  1.00  0.00     0.078 C 
HETATM   12  N   UNL     1      43.828 -13.564   4.357  1.00  0.00    -0.257 NA
HETATM   13  C   UNL     1      42.734 -13.691   3.530  1.00  0.00     0.134 A 
ENDBRANCH   6   8
ENDBRANCH   3   6
ENDBRANCH   2   3
ENDBRANCH   1   2
BRANCH   1  14
HETATM   14  C   UNL     1      42.827 -16.496   1.180  1.00  0.00     0.124 C 
BRANCH  14  15
HETATM   15  N   UNL     1      42.997 -17.816   1.762  1.00  0.00    -0.357 N 
HETATM   16  C   UNL     1      43.603 -18.026   2.988  1.00  0.00     0.251 C 
HETATM   17  O   UNL     1      43.799 -17.136   3.807  1.00  0.00    -0.268 OA
HETATM   18  H   UNL     1      43.091 -18.579   1.096  1.00  0.00     0.162 HD
BRANCH  16  19
HETATM   19  C   UNL     1      43.999 -19.423   3.283  1.00  0.00     0.034 A 
HETATM   20  C   UNL     1      44.001 -20.355   2.240  1.00  0.00     0.053 A 
HETATM   21  C   UNL     1      44.370 -21.668   2.509  1.00  0.00     0.066 A 
HETATM   22  C   UNL     1      44.754 -22.054   3.790  1.00  0.00     0.036 A 
HETATM   23  C   UNL     1      44.768 -21.121   4.826  1.00  0.00     0.004 A 
HETATM   24  C   UNL     1      44.388 -19.801   4.576  1.00  0.00     0.017 A 
BRANCH  21  25
HETATM   25  O   UNL     1      44.370 -22.624   1.538  1.00  0.00    -0.361 OA
HETATM   26  H   UNL     1      43.494 -23.039   1.488  1.00  0.00     0.217 HD
ENDBRANCH  21  25
ENDBRANCH  16  19
ENDBRANCH  14  15
ENDBRANCH   1  14
TORSDOF 8
ENDMDL
MODEL 10
REMARK VINA RESULT:      -6.7      2.082      3.847
REMARK  8 active torsions:
REMARK  status: ('A' for Active; 'I' for Inactive)
REMARK    1  A    between atoms: C_4  and  C_5 
REMARK    2  A    between atoms: C_5  and  N_6 
REMARK    3  A    between atoms: N_6  and  C_9 
REMARK    4  A    between atoms: C_9  and  C_10 
REMARK    5  A    between atoms: C_10  and  C_11 
REMARK    6  A    between atoms: C_11  and  N_12 
REMARK       I    between atoms: N_12  and  C_13 
REMARK    7  A    between atoms: C_13  and  C_14 
REMARK    8  A    between atoms: C_16  and  O_17 
ROOT
HETATM    1  C   UNL     1      40.834 -15.765   1.083  1.00  0.00     0.047 C 
ENDROOT
BRANCH   1   2
HETATM    2  C   UNL     1      39.752 -16.222   2.051  1.00  0.00     0.235 C 
BRANCH   2   3
HETATM    3  N   UNL     1      39.778 -15.338   3.256  1.00  0.00    -0.067 N 
HETATM    4  H   UNL     1      39.011 -15.566   3.901  1.00  0.00     0.277 HD
HETATM    5  H   UNL     1      39.589 -14.376   2.934  1.00  0.00     0.277 HD
BRANCH   3   6
HETATM    6  C   UNL     1      41.067 -15.291   4.026  1.00  0.00     0.223 C 
HETATM    7  C   UNL     1      41.239 -16.572   4.841  1.00  0.00     0.046 C 
BRANCH   6   8
HETATM    8  C   UNL     1      41.126 -14.080   4.905  1.00  0.00     0.032 A 
HETATM    9  S   UNL     1      39.710 -13.290   5.482  1.00  0.00    -0.076 SA
HETATM   10  C   UNL     1      40.689 -12.158   6.327  1.00  0.00     0.071 A 
HETATM   11  C   UNL     1      40.064 -11.079   7.142  1.00  0.00     0.078 C 
HETATM   12  N   UNL     1      41.985 -12.334   6.193  1.00  0.00    -0.257 NA
HETATM   13  C   UNL     1      42.240 -13.427   5.396  1.00  0.00     0.134 A 
ENDBRANCH   6   8
ENDBRANCH   3   6
ENDBRANCH   2   3
ENDBRANCH   1   2
BRANCH   1  14
HETATM   14  C   UNL     1      41.690 -16.924   0.565  1.00  0.00     0.124 C 
BRANCH  14  15
HETATM   15  N   UNL     1      42.180 -17.858   1.564  1.00  0.00    -0.357 N 
HETATM   16  C   UNL     1      43.470 -17.817   2.063  1.00  0.00     0.251 C 
HETATM   17  O   UNL     1      44.217 -16.855   1.931  1.00  0.00    -0.268 OA
HETATM   18  H   UNL     1      41.750 -18.779   1.550  1.00  0.00     0.162 HD
BRANCH  16  19
HETATM   19  C   UNL     1      43.914 -19.019   2.807  1.00  0.00     0.034 A 
HETATM   20  C   UNL     1      44.046 -20.226   2.113  1.00  0.00     0.053 A 
HETATM   21  C   UNL     1      44.461 -21.359   2.804  1.00  0.00     0.066 A 
HETATM   22  C   UNL     1      44.762 -21.298   4.162  1.00  0.00     0.036 A 
HETATM   23  C   UNL     1      44.646 -20.090   4.849  1.00  0.00     0.004 A 
HETATM   24  C   UNL     1      44.219 -18.946   4.173  1.00  0.00     0.017 A 
BRANCH  21  25
HETATM   25  O   UNL     1      44.587 -22.567   2.187  1.00  0.00    -0.361 OA
HETATM   26  H   UNL     1      44.490 -22.455   1.227  1.00  0.00     0.217 HD
ENDBRANCH  21  25
ENDBRANCH  16  19
ENDBRANCH  14  15
ENDBRANCH   1  14
TORSDOF 8
ENDMDL
