MODEL 1
REMARK VINA RESULT:      -8.0      0.000      0.000
REMARK  6 active torsions:
REMARK  status: ('A' for Active; 'I' for Inactive)
REMARK    1  A    between atoms: C_6  and  O_7 
REMARK    2  A    between atoms: C_8  and  C_9 
REMARK    3  A    between atoms: C_9  and  N_10 
REMARK    4  A    between atoms: N_10  and  C_12 
REMARK    5  A    between atoms: C_12  and  C_13 
REMARK    6  A    between atoms: C_12  and  C_16 
REMARK       I    between atoms: C_13  and  N_14 
ROOT
HETATM    1  N   UNL     1      43.503 -15.876   5.455  1.00  0.00    -0.054 N 
HETATM    2  H   UNL     1      44.241 -16.361   4.927  1.00  0.00     0.281 HD
HETATM    3  C   UNL     1      44.135 -14.997   6.497  1.00  0.00     0.271 C 
ENDROOT
BRANCH   1   4
HETATM    4  C   UNL     1      42.748 -17.035   6.092  1.00  0.00     0.277 C 
BRANCH   4   5
HETATM    5  C   UNL     1      43.406 -18.359   5.811  1.00  0.00     0.001 A 
HETATM    6  C   UNL     1      43.702 -19.245   6.847  1.00  0.00     0.074 A 
HETATM    7  C   UNL     1      44.266 -20.492   6.594  1.00  0.00     0.044 A 
HETATM    8  C   UNL     1      44.537 -20.886   5.275  1.00  0.00    -0.053 A 
HETATM    9  C   UNL     1      44.269 -19.996   4.215  1.00  0.00    -0.055 A 
HETATM   10  C   UNL     1      45.124 -22.250   5.020  1.00  0.00     0.049 C 
HETATM   11  C   UNL     1      44.526 -20.378   2.781  1.00  0.00     0.049 C 
HETATM   12  C   UNL     1      43.704 -18.741   4.495  1.00  0.00     0.019 A 
BRANCH   6  13
HETATM   13  O   UNL     1      43.371 -18.878   8.125  1.00  0.00    -0.360 OA
HETATM   14  H   UNL     1      43.870 -19.459   8.736  1.00  0.00     0.217 HD
ENDBRANCH   6  13
ENDBRANCH   4   5
ENDBRANCH   1   4
BRANCH   1  15
HETATM   15  C   UNL     1      42.634 -15.126   4.432  1.00  0.00     0.312 C 
BRANCH  15  16
HETATM   16  C   UNL     1      43.274 -13.741   4.109  1.00  0.00     0.251 C 
HETATM   17  N   UNL     1      42.512 -12.616   4.269  1.00  0.00    -0.368 N 
HETATM   18  H   UNL     1      41.731 -12.567   4.915  1.00  0.00     0.159 HD
HETATM   19  H   UNL     1      42.979 -11.732   4.085  1.00  0.00     0.159 HD
HETATM   20  O   UNL     1      44.374 -13.658   3.567  1.00  0.00    -0.271 OA
ENDBRANCH  15  16
BRANCH  15  21
HETATM   21  C   UNL     1      42.217 -15.930   3.197  1.00  0.00    -0.016 A 
HETATM   22  C   UNL     1      43.136 -16.477   2.287  1.00  0.00     0.052 A 
HETATM   23  C   UNL     1      42.696 -17.213   1.186  1.00  0.00     0.117 A 
HETATM   24  F   UNL     1      43.600 -17.701   0.329  1.00  0.00    -0.206 F 
HETATM   25  C   UNL     1      41.347 -17.443   0.966  1.00  0.00     0.042 A 
HETATM   26  C   UNL     1      40.419 -16.946   1.874  1.00  0.00     0.004 A 
HETATM   27  C   UNL     1      40.849 -16.211   2.984  1.00  0.00     0.010 A 
ENDBRANCH  15  21
ENDBRANCH   1  15
TORSDOF 6
ENDMDL
MODEL 2
REMARK VINA RESULT:      -7.7      2.888      4.704
REMARK  6 active torsions:
REMARK  status: ('A' for Active; 'I' for Inactive)
REMARK    1  A    between atoms: C_6  and  O_7 
REMARK    2  A    between atoms: C_8  and  C_9 
REMARK    3  A    between atoms: C_9  and  N_10 
REMARK    4  A    between atoms: N_10  and  C_12 
REMARK    5  A    between atoms: C_12  and  C_13 
REMARK    6  A    between atoms: C_12  and  C_16 
REMARK       I    between atoms: C_13  and  N_14 
ROOT
HETATM    1  N   UNL     1      42.196 -14.808   2.796  1.00  0.00    -0.054 N 
HETATM    2  H   UNL     1      41.632 -15.619   2.506  1.00  0.00     0.281 HD
HETATM    3  C   UNL     1      42.109 -13.742   1.742  1.00  0.00     0.271 C 
ENDROOT
BRANCH   1   4
HETATM    4  C   UNL     1      43.596 -15.401   2.870  1.00  0.00     0.277 C 
BRANCH   4   5
HETATM    5  C   UNL     1      43.590 -16.891   2.664  1.00  0.00     0.001 A 
HETATM    6  C   UNL     1      43.242 -17.441   1.429  1.00  0.00     0.074 A 
HETATM    7  C   UNL     1      43.279 -18.815   1.213  1.00  0.00     0.044 A 
HETATM    8  C   UNL     1      43.685 -19.678   2.242  1.00  0.00    -0.053 A 
HETATM    9  C   UNL     1      44.016 -19.146   3.504  1.00  0.00    -0.055 A 
HETATM   10  C   UNL     1      43.742 -21.161   1.979  1.00  0.00     0.049 C 
HETATM   11  C   UNL     1      44.473 -20.028   4.637  1.00  0.00     0.049 C 
HETATM   12  C   UNL     1      43.967 -17.755   3.701  1.00  0.00     0.019 A 
BRANCH   6  13
HETATM   13  O   UNL     1      42.913 -16.584   0.411  1.00  0.00    -0.360 OA
HETATM   14  H   UNL     1      42.939 -17.097  -0.424  1.00  0.00     0.217 HD
ENDBRANCH   6  13
ENDBRANCH   4   5
ENDBRANCH   1   4
BRANCH   1  15
HETATM   15  C   UNL     1      41.687 -14.377   4.181  1.00  0.00     0.312 C 
BRANCH  15  16
HETATM   16  C   UNL     1      40.138 -14.543   4.252  1.00  0.00     0.251 C 
HETATM   17  N   UNL     1      39.500 -15.166   3.214  1.00  0.00    -0.368 N 
HETATM   18  H   UNL     1      39.959 -15.840   2.611  1.00  0.00     0.159 HD
HETATM   19  H   UNL     1      38.496 -15.288   3.318  1.00  0.00     0.159 HD
HETATM   20  O   UNL     1      39.477 -13.989   5.128  1.00  0.00    -0.271 OA
ENDBRANCH  15  16
BRANCH  15  21
HETATM   21  C   UNL     1      42.438 -14.966   5.380  1.00  0.00    -0.016 A 
HETATM   22  C   UNL     1      42.054 -16.156   6.020  1.00  0.00     0.052 A 
HETATM   23  C   UNL     1      42.788 -16.652   7.099  1.00  0.00     0.117 A 
HETATM   24  F   UNL     1      42.380 -17.777   7.696  1.00  0.00    -0.206 F 
HETATM   25  C   UNL     1      43.921 -16.001   7.560  1.00  0.00     0.042 A 
HETATM   26  C   UNL     1      44.344 -14.843   6.918  1.00  0.00     0.004 A 
HETATM   27  C   UNL     1      43.620 -14.339   5.831  1.00  0.00     0.010 A 
ENDBRANCH  15  21
ENDBRANCH   1  15
TORSDOF 6
ENDMDL
MODEL 3
REMARK VINA RESULT:      -7.6      2.749      3.693
REMARK  6 active torsions:
REMARK  status: ('A' for Active; 'I' for Inactive)
REMARK    1  A    between atoms: C_6  and  O_7 
REMARK    2  A    between atoms: C_8  and  C_9 
REMARK    3  A    between atoms: C_9  and  N_10 
REMARK    4  A    between atoms: N_10  and  C_12 
REMARK    5  A    between atoms: C_12  and  C_13 
REMARK    6  A    between atoms: C_12  and  C_16 
REMARK       I    between atoms: C_13  and  N_14 
ROOT
HETATM    1  N   UNL     1      41.427 -15.969   2.138  1.00  0.00    -0.054 N 
HETATM    2  H   UNL     1      41.702 -15.830   3.121  1.00  0.00     0.281 HD
HETATM    3  C   UNL     1      40.318 -16.979   2.072  1.00  0.00     0.271 C 
ENDROOT
BRANCH   1   4
HETATM    4  C   UNL     1      42.708 -16.512   1.520  1.00  0.00     0.277 C 
BRANCH   4   5
HETATM    5  C   UNL     1      43.291 -17.639   2.329  1.00  0.00     0.001 A 
HETATM    6  C   UNL     1      43.633 -17.455   3.669  1.00  0.00     0.074 A 
HETATM    7  C   UNL     1      44.128 -18.502   4.440  1.00  0.00     0.044 A 
HETATM    8  C   UNL     1      44.281 -19.778   3.877  1.00  0.00    -0.053 A 
HETATM    9  C   UNL     1      43.967 -19.979   2.517  1.00  0.00    -0.055 A 
HETATM   10  C   UNL     1      44.796 -20.905   4.735  1.00  0.00     0.049 C 
HETATM   11  C   UNL     1      44.098 -21.334   1.870  1.00  0.00     0.049 C 
HETATM   12  C   UNL     1      43.472 -18.906   1.757  1.00  0.00     0.019 A 
BRANCH   6  13
HETATM   13  O   UNL     1      43.415 -16.222   4.228  1.00  0.00    -0.360 OA
HETATM   14  H   UNL     1      43.646 -16.286   5.178  1.00  0.00     0.217 HD
ENDBRANCH   6  13
ENDBRANCH   4   5
ENDBRANCH   1   4
BRANCH   1  15
HETATM   15  C   UNL     1      41.064 -14.587   1.571  1.00  0.00     0.312 C 
BRANCH  15  16
HETATM   16  C   UNL     1      42.215 -13.576   1.863  1.00  0.00     0.251 C 
HETATM   17  N   UNL     1      42.763 -13.554   3.116  1.00  0.00    -0.368 N 
HETATM   18  H   UNL     1      42.756 -14.358   3.735  1.00  0.00     0.159 HD
HETATM   19  H   UNL     1      43.536 -12.907   3.252  1.00  0.00     0.159 HD
HETATM   20  O   UNL     1      42.519 -12.704   1.051  1.00  0.00    -0.271 OA
ENDBRANCH  15  16
BRANCH  15  21
HETATM   21  C   UNL     1      40.566 -14.572   0.122  1.00  0.00    -0.016 A 
HETATM   22  C   UNL     1      41.239 -15.215  -0.930  1.00  0.00     0.052 A 
HETATM   23  C   UNL     1      40.727 -15.178  -2.228  1.00  0.00     0.117 A 
HETATM   24  F   UNL     1      41.406 -15.785  -3.209  1.00  0.00    -0.206 F 
HETATM   25  C   UNL     1      39.539 -14.527  -2.517  1.00  0.00     0.042 A 
HETATM   26  C   UNL     1      38.834 -13.917  -1.486  1.00  0.00     0.004 A 
HETATM   27  C   UNL     1      39.334 -13.952  -0.179  1.00  0.00     0.010 A 
ENDBRANCH  15  21
ENDBRANCH   1  15
TORSDOF 6
ENDMDL
MODEL 4
REMARK VINA RESULT:      -7.3      1.805      2.100
REMARK  6 active torsions:
REMARK  status: ('A' for Active; 'I' for Inactive)
REMARK    1  A    between atoms: C_6  and  O_7 
REMARK    2  A    between atoms: C_8  and  C_9 
REMARK    3  A    between atoms: C_9  and  N_10 
REMARK    4  A    between atoms: N_10  and  C_12 
REMARK    5  A    between atoms: C_12  and  C_13 
REMARK    6  A    between atoms: C_12  and  C_16 
REMARK       I    between atoms: C_13  and  N_14 
ROOT
HETATM    1  N   UNL     1      43.177 -16.357   5.351  1.00  0.00    -0.054 N 
HETATM    2  H   UNL     1      43.890 -16.599   4.649  1.00  0.00     0.281 HD
HETATM    3  C   UNL     1      43.385 -14.939   5.800  1.00  0.00     0.271 C 
ENDROOT
BRANCH   1   4
HETATM    4  C   UNL     1      43.482 -17.342   6.471  1.00  0.00     0.277 C 
BRANCH   4   5
HETATM    5  C   UNL     1      43.865 -18.698   5.941  1.00  0.00     0.001 A 
HETATM    6  C   UNL     1      43.910 -19.809   6.786  1.00  0.00     0.074 A 
HETATM    7  C   UNL     1      44.216 -21.076   6.298  1.00  0.00     0.044 A 
HETATM    8  C   UNL     1      44.473 -21.260   4.930  1.00  0.00    -0.053 A 
HETATM    9  C   UNL     1      44.457 -20.147   4.065  1.00  0.00    -0.055 A 
HETATM   10  C   UNL     1      44.777 -22.644   4.419  1.00  0.00     0.049 C 
HETATM   11  C   UNL     1      44.710 -20.294   2.587  1.00  0.00     0.049 C 
HETATM   12  C   UNL     1      44.150 -18.877   4.581  1.00  0.00     0.019 A 
BRANCH   6  13
HETATM   13  O   UNL     1      43.591 -19.630   8.106  1.00  0.00    -0.360 OA
HETATM   14  H   UNL     1      44.324 -19.127   8.520  1.00  0.00     0.217 HD
ENDBRANCH   6  13
ENDBRANCH   4   5
ENDBRANCH   1   4
BRANCH   1  15
HETATM   15  C   UNL     1      41.805 -16.628   4.714  1.00  0.00     0.312 C 
BRANCH  15  16
HETATM   16  C   UNL     1      40.691 -15.900   5.527  1.00  0.00     0.251 C 
HETATM   17  N   UNL     1      40.047 -16.591   6.517  1.00  0.00    -0.368 N 
HETATM   18  H   UNL     1      40.468 -17.373   7.007  1.00  0.00     0.159 HD
HETATM   19  H   UNL     1      39.356 -16.067   7.048  1.00  0.00     0.159 HD
HETATM   20  O   UNL     1      40.277 -14.791   5.191  1.00  0.00    -0.271 OA
ENDBRANCH  15  16
BRANCH  15  21
HETATM   21  C   UNL     1      41.719 -16.414   3.200  1.00  0.00    -0.016 A 
HETATM   22  C   UNL     1      41.987 -15.182   2.579  1.00  0.00     0.052 A 
HETATM   23  C   UNL     1      41.907 -15.053   1.192  1.00  0.00     0.117 A 
HETATM   24  F   UNL     1      42.150 -13.859   0.639  1.00  0.00    -0.206 F 
HETATM   25  C   UNL     1      41.581 -16.130   0.385  1.00  0.00     0.042 A 
HETATM   26  C   UNL     1      41.350 -17.370   0.971  1.00  0.00     0.004 A 
HETATM   27  C   UNL     1      41.433 -17.513   2.361  1.00  0.00     0.010 A 
ENDBRANCH  15  21
ENDBRANCH   1  15
TORSDOF 6
ENDMDL
MODEL 5
REMARK VINA RESULT:      -7.3      2.964      4.292
REMARK  6 active torsions:
REMARK  status: ('A' for Active; 'I' for Inactive)
REMARK    1  A    between atoms: C_6  and  O_7 
REMARK    2  A    between atoms: C_8  and  C_9 
REMARK    3  A    between atoms: C_9  and  N_10 
REMARK    4  A    between atoms: N_10  and  C_12 
REMARK    5  A    between atoms: C_12  and  C_13 
REMARK    6  A    between atoms: C_12  and  C_16 
REMARK       I    between atoms: C_13  and  N_14 
ROOT
HETATM    1  N   UNL     1      42.027 -16.681   1.773  1.00  0.00    -0.054 N 
HETATM    2  H   UNL     1      42.025 -16.812   2.794  1.00  0.00     0.281 HD
HETATM    3  C   UNL     1      40.895 -17.463   1.170  1.00  0.00     0.271 C 
ENDROOT
BRANCH   1   4
HETATM    4  C   UNL     1      43.376 -17.264   1.377  1.00  0.00     0.277 C 
BRANCH   4   5
HETATM    5  C   UNL     1      43.802 -18.376   2.297  1.00  0.00     0.001 A 
HETATM    6  C   UNL     1      43.967 -18.150   3.664  1.00  0.00     0.074 A 
HETATM    7  C   UNL     1      44.315 -19.181   4.532  1.00  0.00     0.044 A 
HETATM    8  C   UNL     1      44.492 -20.484   4.040  1.00  0.00    -0.053 A 
HETATM    9  C   UNL     1      44.355 -20.729   2.659  1.00  0.00    -0.055 A 
HETATM   10  C   UNL     1      44.842 -21.591   5.000  1.00  0.00     0.049 C 
HETATM   11  C   UNL     1      44.519 -22.112   2.084  1.00  0.00     0.049 C 
HETATM   12  C   UNL     1      44.008 -19.671   1.801  1.00  0.00     0.019 A 
BRANCH   6  13
HETATM   13  O   UNL     1      43.725 -16.889   4.144  1.00  0.00    -0.360 OA
HETATM   14  H   UNL     1      42.779 -16.692   3.984  1.00  0.00     0.217 HD
ENDBRANCH   6  13
ENDBRANCH   4   5
ENDBRANCH   1   4
BRANCH   1  15
HETATM   15  C   UNL     1      41.964 -15.167   1.512  1.00  0.00     0.312 C 
BRANCH  15  16
HETATM   16  C   UNL     1      41.202 -14.891   0.180  1.00  0.00     0.251 C 
HETATM   17  N   UNL     1      41.908 -14.909  -0.992  1.00  0.00    -0.368 N 
HETATM   18  H   UNL     1      42.765 -15.438  -1.111  1.00  0.00     0.159 HD
HETATM   19  H   UNL     1      41.366 -14.763  -1.840  1.00  0.00     0.159 HD
HETATM   20  O   UNL     1      40.035 -14.505   0.181  1.00  0.00    -0.271 OA
ENDBRANCH  15  16
BRANCH  15  21
HETATM   21  C   UNL     1      41.500 -14.307   2.692  1.00  0.00    -0.016 A 
HETATM   22  C   UNL     1      40.672 -14.790   3.719  1.00  0.00     0.052 A 
HETATM   23  C   UNL     1      40.294 -13.961   4.777  1.00  0.00     0.117 A 
HETATM   24  F   UNL     1      39.489 -14.451   5.726  1.00  0.00    -0.206 F 
HETATM   25  C   UNL     1      40.734 -12.650   4.857  1.00  0.00     0.042 A 
HETATM   26  C   UNL     1      41.586 -12.160   3.874  1.00  0.00     0.004 A 
HETATM   27  C   UNL     1      41.976 -12.983   2.812  1.00  0.00     0.010 A 
ENDBRANCH  15  21
ENDBRANCH   1  15
TORSDOF 6
ENDMDL
MODEL 6
REMARK VINA RESULT:      -7.3      2.158      2.684
REMARK  6 active torsions:
REMARK  status: ('A' for Active; 'I' for Inactive)
REMARK    1  A    between atoms: C_6  and  O_7 
REMARK    2  A    between atoms: C_8  and  C_9 
REMARK    3  A    between atoms: C_9  and  N_10 
REMARK    4  A    between atoms: N_10  and  C_12 
REMARK    5  A    between atoms: C_12  and  C_13 
REMARK    6  A    between atoms: C_12  and  C_16 
REMARK       I    between atoms: C_13  and  N_14 
ROOT
HETATM    1  N   UNL     1      42.224 -16.452   3.767  1.00  0.00    -0.054 N 
HETATM    2  H   UNL     1      42.395 -16.766   4.733  1.00  0.00     0.281 HD
HETATM    3  C   UNL     1      41.013 -17.157   3.226  1.00  0.00     0.271 C 
ENDROOT
BRANCH   1   4
HETATM    4  C   UNL     1      43.491 -16.902   3.054  1.00  0.00     0.277 C 
BRANCH   4   5
HETATM    5  C   UNL     1      43.941 -18.264   3.507  1.00  0.00     0.001 A 
HETATM    6  C   UNL     1      44.282 -18.498   4.840  1.00  0.00     0.074 A 
HETATM    7  C   UNL     1      44.653 -19.766   5.280  1.00  0.00     0.044 A 
HETATM    8  C   UNL     1      44.678 -20.843   4.381  1.00  0.00    -0.053 A 
HETATM    9  C   UNL     1      44.363 -20.622   3.025  1.00  0.00    -0.055 A 
HETATM   10  C   UNL     1      45.058 -22.212   4.883  1.00  0.00     0.049 C 
HETATM   11  C   UNL     1      44.358 -21.748   2.023  1.00  0.00     0.049 C 
HETATM   12  C   UNL     1      43.995 -19.334   2.602  1.00  0.00     0.019 A 
BRANCH   6  13
HETATM   13  O   UNL     1      44.188 -17.455   5.723  1.00  0.00    -0.360 OA
HETATM   14  H   UNL     1      43.254 -17.159   5.730  1.00  0.00     0.217 HD
ENDBRANCH   6  13
ENDBRANCH   4   5
ENDBRANCH   1   4
BRANCH   1  15
HETATM   15  C   UNL     1      42.105 -14.920   3.803  1.00  0.00     0.312 C 
BRANCH  15  16
HETATM   16  C   UNL     1      43.457 -14.295   4.262  1.00  0.00     0.251 C 
HETATM   17  N   UNL     1      43.822 -14.418   5.575  1.00  0.00    -0.368 N 
HETATM   18  H   UNL     1      43.496 -15.173   6.169  1.00  0.00     0.159 HD
HETATM   19  H   UNL     1      44.728 -14.030   5.824  1.00  0.00     0.159 HD
HETATM   20  O   UNL     1      44.109 -13.566   3.516  1.00  0.00    -0.271 OA
ENDBRANCH  15  16
BRANCH  15  21
HETATM   21  C   UNL     1      41.503 -14.270   2.554  1.00  0.00    -0.016 A 
HETATM   22  C   UNL     1      42.019 -14.461   1.261  1.00  0.00     0.052 A 
HETATM   23  C   UNL     1      41.418 -13.853   0.158  1.00  0.00     0.117 A 
HETATM   24  F   UNL     1      41.950 -14.042  -1.055  1.00  0.00    -0.206 F 
HETATM   25  C   UNL     1      40.290 -13.060   0.298  1.00  0.00     0.042 A 
HETATM   26  C   UNL     1      39.737 -12.888   1.561  1.00  0.00     0.004 A 
HETATM   27  C   UNL     1      40.327 -13.497   2.674  1.00  0.00     0.010 A 
ENDBRANCH  15  21
ENDBRANCH   1  15
TORSDOF 6
ENDMDL
MODEL 7
REMARK VINA RESULT:      -7.3      3.035      6.345
REMARK  6 active torsions:
REMARK  status: ('A' for Active; 'I' for Inactive)
REMARK    1  A    between atoms: C_6  and  O_7 
REMARK    2  A    between atoms: C_8  and  C_9 
REMARK    3  A    between atoms: C_9  and  N_10 
REMARK    4  A    between atoms: N_10  and  C_12 
REMARK    5  A    between atoms: C_12  and  C_13 
REMARK    6  A    between atoms: C_12  and  C_16 
REMARK       I    between atoms: C_13  and  N_14 
ROOT
HETATM    1  N   UNL     1      42.618 -17.222   3.634  1.00  0.00    -0.054 N 
HETATM    2  H   UNL     1      43.002 -17.743   4.435  1.00  0.00     0.281 HD
HETATM    3  C   UNL     1      43.270 -15.870   3.565  1.00  0.00     0.271 C 
ENDROOT
BRANCH   1   4
HETATM    4  C   UNL     1      41.145 -17.108   4.002  1.00  0.00     0.277 C 
BRANCH   4   5
HETATM    5  C   UNL     1      40.592 -15.742   3.699  1.00  0.00     0.001 A 
HETATM    6  C   UNL     1      40.058 -15.449   2.443  1.00  0.00     0.074 A 
HETATM    7  C   UNL     1      39.500 -14.204   2.167  1.00  0.00     0.044 A 
HETATM    8  C   UNL     1      39.455 -13.217   3.163  1.00  0.00    -0.053 A 
HETATM    9  C   UNL     1      40.012 -13.483   4.430  1.00  0.00    -0.055 A 
HETATM   10  C   UNL     1      38.824 -11.885   2.850  1.00  0.00     0.049 C 
HETATM   11  C   UNL     1      39.974 -12.463   5.538  1.00  0.00     0.049 C 
HETATM   12  C   UNL     1      40.574 -14.746   4.685  1.00  0.00     0.019 A 
BRANCH   6  13
HETATM   13  O   UNL     1      40.045 -16.443   1.500  1.00  0.00    -0.360 OA
HETATM   14  H   UNL     1      40.236 -17.287   1.959  1.00  0.00     0.217 HD
ENDBRANCH   6  13
ENDBRANCH   4   5
ENDBRANCH   1   4
BRANCH   1  15
HETATM   15  C   UNL     1      42.826 -18.093   2.385  1.00  0.00     0.312 C 
BRANCH  15  16
HETATM   16  C   UNL     1      43.504 -17.252   1.260  1.00  0.00     0.251 C 
HETATM   17  N   UNL     1      42.714 -16.709   0.284  1.00  0.00    -0.368 N 
HETATM   18  H   UNL     1      41.734 -16.489   0.428  1.00  0.00     0.159 HD
HETATM   19  H   UNL     1      43.192 -16.136  -0.407  1.00  0.00     0.159 HD
HETATM   20  O   UNL     1      44.728 -17.209   1.147  1.00  0.00    -0.271 OA
ENDBRANCH  15  16
BRANCH  15  21
HETATM   21  C   UNL     1      43.475 -19.460   2.627  1.00  0.00    -0.016 A 
HETATM   22  C   UNL     1      44.190 -19.777   3.794  1.00  0.00     0.052 A 
HETATM   23  C   UNL     1      44.747 -21.046   3.963  1.00  0.00     0.117 A 
HETATM   24  F   UNL     1      45.438 -21.305   5.078  1.00  0.00    -0.206 F 
HETATM   25  C   UNL     1      44.598 -22.032   3.002  1.00  0.00     0.042 A 
HETATM   26  C   UNL     1      43.861 -21.755   1.856  1.00  0.00     0.004 A 
HETATM   27  C   UNL     1      43.293 -20.489   1.678  1.00  0.00     0.010 A 
ENDBRANCH  15  21
ENDBRANCH   1  15
TORSDOF 6
ENDMDL
MODEL 8
REMARK VINA RESULT:      -7.2      2.765      5.938
REMARK  6 active torsions:
REMARK  status: ('A' for Active; 'I' for Inactive)
REMARK    1  A    between atoms: C_6  and  O_7 
REMARK    2  A    between atoms: C_8  and  C_9 
REMARK    3  A    between atoms: C_9  and  N_10 
REMARK    4  A    between atoms: N_10  and  C_12 
REMARK    5  A    between atoms: C_12  and  C_13 
REMARK    6  A    between atoms: C_12  and  C_16 
REMARK       I    between atoms: C_13  and  N_14 
ROOT
HETATM    1  N   UNL     1      42.799 -16.941   3.853  1.00  0.00    -0.054 N 
HETATM    2  H   UNL     1      43.334 -17.422   4.589  1.00  0.00     0.281 HD
HETATM    3  C   UNL     1      43.365 -15.564   3.649  1.00  0.00     0.271 C 
ENDROOT
BRANCH   1   4
HETATM    4  C   UNL     1      41.403 -16.882   4.456  1.00  0.00     0.277 C 
BRANCH   4   5
HETATM    5  C   UNL     1      40.687 -15.608   4.098  1.00  0.00     0.001 A 
HETATM    6  C   UNL     1      40.558 -14.575   5.028  1.00  0.00     0.074 A 
HETATM    7  C   UNL     1      39.940 -13.374   4.694  1.00  0.00     0.044 A 
HETATM    8  C   UNL     1      39.444 -13.176   3.396  1.00  0.00    -0.053 A 
HETATM    9  C   UNL     1      39.540 -14.216   2.450  1.00  0.00    -0.055 A 
HETATM   10  C   UNL     1      38.801 -11.858   3.048  1.00  0.00     0.049 C 
HETATM   11  C   UNL     1      39.037 -14.047   1.040  1.00  0.00     0.049 C 
HETATM   12  C   UNL     1      40.164 -15.422   2.811  1.00  0.00     0.019 A 
BRANCH   6  13
HETATM   13  O   UNL     1      41.108 -14.753   6.271  1.00  0.00    -0.360 OA
HETATM   14  H   UNL     1      41.459 -15.667   6.308  1.00  0.00     0.217 HD
ENDBRANCH   6  13
ENDBRANCH   4   5
ENDBRANCH   1   4
BRANCH   1  15
HETATM   15  C   UNL     1      42.842 -17.837   2.604  1.00  0.00     0.312 C 
BRANCH  15  16
HETATM   16  C   UNL     1      43.445 -17.045   1.404  1.00  0.00     0.251 C 
HETATM   17  N   UNL     1      42.594 -16.547   0.456  1.00  0.00    -0.368 N 
HETATM   18  H   UNL     1      41.623 -16.324   0.650  1.00  0.00     0.159 HD
HETATM   19  H   UNL     1      43.024 -16.004  -0.288  1.00  0.00     0.159 HD
HETATM   20  O   UNL     1      44.659 -17.002   1.214  1.00  0.00    -0.271 OA
ENDBRANCH  15  16
BRANCH  15  21
HETATM   21  C   UNL     1      43.447 -19.230   2.805  1.00  0.00    -0.016 A 
HETATM   22  C   UNL     1      43.419 -20.232   1.820  1.00  0.00     0.052 A 
HETATM   23  C   UNL     1      44.000 -21.478   2.057  1.00  0.00     0.117 A 
HETATM   24  F   UNL     1      43.935 -22.414   1.102  1.00  0.00    -0.206 F 
HETATM   25  C   UNL     1      44.635 -21.762   3.255  1.00  0.00     0.042 A 
HETATM   26  C   UNL     1      44.711 -20.774   4.230  1.00  0.00     0.004 A 
HETATM   27  C   UNL     1      44.137 -19.519   4.003  1.00  0.00     0.010 A 
ENDBRANCH  15  21
ENDBRANCH   1  15
TORSDOF 6
ENDMDL
MODEL 9
REMARK VINA RESULT:      -7.2      2.273      6.298
REMARK  6 active torsions:
REMARK  status: ('A' for Active; 'I' for Inactive)
REMARK    1  A    between atoms: C_6  and  O_7 
REMARK    2  A    between atoms: C_8  and  C_9 
REMARK    3  A    between atoms: C_9  and  N_10 
REMARK    4  A    between atoms: N_10  and  C_12 
REMARK    5  A    between atoms: C_12  and  C_13 
REMARK    6  A    between atoms: C_12  and  C_16 
REMARK       I    between atoms: C_13  and  N_14 
ROOT
HETATM    1  N   UNL     1      42.953 -17.783   3.878  1.00  0.00    -0.054 N 
HETATM    2  H   UNL     1      42.820 -18.125   2.916  1.00  0.00     0.281 HD
HETATM    3  C   UNL     1      41.683 -17.983   4.655  1.00  0.00     0.271 C 
ENDROOT
BRANCH   1   4
HETATM    4  C   UNL     1      43.240 -16.305   3.657  1.00  0.00     0.277 C 
BRANCH   4   5
HETATM    5  C   UNL     1      42.366 -15.715   2.583  1.00  0.00     0.001 A 
HETATM    6  C   UNL     1      42.525 -16.085   1.247  1.00  0.00     0.074 A 
HETATM    7  C   UNL     1      41.691 -15.582   0.253  1.00  0.00     0.044 A 
HETATM    8  C   UNL     1      40.656 -14.694   0.586  1.00  0.00    -0.053 A 
HETATM    9  C   UNL     1      40.495 -14.287   1.926  1.00  0.00    -0.055 A 
HETATM   10  C   UNL     1      39.749 -14.181  -0.502  1.00  0.00     0.049 C 
HETATM   11  C   UNL     1      39.390 -13.349   2.337  1.00  0.00     0.049 C 
HETATM   12  C   UNL     1      41.352 -14.804   2.912  1.00  0.00     0.019 A 
BRANCH   6  13
HETATM   13  O   UNL     1      43.494 -17.005   0.943  1.00  0.00    -0.360 OA
HETATM   14  H   UNL     1      44.015 -16.645   0.196  1.00  0.00     0.217 HD
ENDBRANCH   6  13
ENDBRANCH   4   5
ENDBRANCH   1   4
BRANCH   1  15
HETATM   15  C   UNL     1      44.173 -18.519   4.454  1.00  0.00     0.312 C 
BRANCH  15  16
HETATM   16  C   UNL     1      44.262 -18.274   5.992  1.00  0.00     0.251 C 
HETATM   17  N   UNL     1      45.426 -17.772   6.507  1.00  0.00    -0.368 N 
HETATM   18  H   UNL     1      46.072 -17.210   5.964  1.00  0.00     0.159 HD
HETATM   19  H   UNL     1      45.427 -17.591   7.508  1.00  0.00     0.159 HD
HETATM   20  O   UNL     1      43.380 -18.670   6.752  1.00  0.00    -0.271 OA
ENDBRANCH  15  16
BRANCH  15  21
HETATM   21  C   UNL     1      44.322 -19.987   4.042  1.00  0.00    -0.016 A 
HETATM   22  C   UNL     1      44.166 -20.436   2.720  1.00  0.00     0.052 A 
HETATM   23  C   UNL     1      44.328 -21.785   2.403  1.00  0.00     0.117 A 
HETATM   24  F   UNL     1      44.151 -22.178   1.136  1.00  0.00    -0.206 F 
HETATM   25  C   UNL     1      44.662 -22.718   3.372  1.00  0.00     0.042 A 
HETATM   26  C   UNL     1      44.862 -22.293   4.680  1.00  0.00     0.004 A 
HETATM   27  C   UNL     1      44.708 -20.942   5.009  1.00  0.00     0.010 A 
ENDBRANCH  15  21
ENDBRANCH   1  15
TORSDOF 6
ENDMDL
MODEL 10
REMARK VINA RESULT:      -7.0      2.362      2.749
REMARK  6 active torsions:
REMARK  status: ('A' for Active; 'I' for Inactive)
REMARK    1  A    between atoms: C_6  and  O_7 
REMARK    2  A    between atoms: C_8  and  C_9 
REMARK    3  A    between atoms: C_9  and  N_10 
REMARK    4  A    between atoms: N_10  and  C_12 
REMARK    5  A    between atoms: C_12  and  C_13 
REMARK    6  A    between atoms: C_12  and  C_16 
REMARK       I    between atoms: C_13  and  N_14 
ROOT
HETATM    1  N   UNL     1      42.918 -15.147   4.689  1.00  0.00    -0.054 N 
HETATM    2  H   UNL     1      43.296 -15.509   3.803  1.00  0.00     0.281 HD
HETATM    3  C   UNL     1      43.644 -13.885   5.059  1.00  0.00     0.271 C 
ENDROOT
BRANCH   1   4
HETATM    4  C   UNL     1      43.238 -16.275   5.660  1.00  0.00     0.277 C 
BRANCH   4   5
HETATM    5  C   UNL     1      43.673 -17.527   4.947  1.00  0.00     0.001 A 
HETATM    6  C   UNL     1      44.356 -18.536   5.627  1.00  0.00     0.074 A 
HETATM    7  C   UNL     1      44.721 -19.718   4.989  1.00  0.00     0.044 A 
HETATM    8  C   UNL     1      44.391 -19.920   3.641  1.00  0.00    -0.053 A 
HETATM    9  C   UNL     1      43.724 -18.902   2.929  1.00  0.00    -0.055 A 
HETATM   10  C   UNL     1      44.773 -21.218   2.976  1.00  0.00     0.049 C 
HETATM   11  C   UNL     1      43.334 -19.077   1.484  1.00  0.00     0.049 C 
HETATM   12  C   UNL     1      43.370 -17.716   3.592  1.00  0.00     0.019 A 
BRANCH   6  13
HETATM   13  O   UNL     1      44.612 -18.357   6.961  1.00  0.00    -0.360 OA
HETATM   14  H   UNL     1      43.752 -18.216   7.409  1.00  0.00     0.217 HD
ENDBRANCH   6  13
ENDBRANCH   4   5
ENDBRANCH   1   4
BRANCH   1  15
HETATM   15  C   UNL     1      41.402 -14.975   4.498  1.00  0.00     0.312 C 
BRANCH  15  16
HETATM   16  C   UNL     1      40.878 -13.834   5.423  1.00  0.00     0.251 C 
HETATM   17  N   UNL     1      40.290 -14.175   6.611  1.00  0.00    -0.368 N 
HETATM   18  H   UNL     1      40.499 -15.038   7.101  1.00  0.00     0.159 HD
HETATM   19  H   UNL     1      39.998 -13.400   7.201  1.00  0.00     0.159 HD
HETATM   20  O   UNL     1      40.835 -12.668   5.036  1.00  0.00    -0.271 OA
ENDBRANCH  15  16
BRANCH  15  21
HETATM   21  C   UNL     1      40.921 -14.879   3.047  1.00  0.00    -0.016 A 
HETATM   22  C   UNL     1      39.564 -14.816   2.687  1.00  0.00     0.052 A 
HETATM   23  C   UNL     1      39.187 -14.714   1.347  1.00  0.00     0.117 A 
HETATM   24  F   UNL     1      37.885 -14.677   1.043  1.00  0.00    -0.206 F 
HETATM   25  C   UNL     1      40.132 -14.655   0.336  1.00  0.00     0.042 A 
HETATM   26  C   UNL     1      41.482 -14.675   0.668  1.00  0.00     0.004 A 
HETATM   27  C   UNL     1      41.872 -14.771   2.008  1.00  0.00     0.010 A 
ENDBRANCH  15  21
ENDBRANCH   1  15
TORSDOF 6
ENDMDL
