MODEL 1
REMARK VINA RESULT:      -8.3      0.000      0.000
REMARK  5 active torsions:
REMARK  status: ('A' for Active; 'I' for Inactive)
REMARK    1  A    between atoms: C_2  and  C_3 
REMARK    2  A    between atoms: C_7  and  N_8 
REMARK    3  A    between atoms: N_8  and  C_9 
REMARK    4  A    between atoms: C_11  and  N_12 
REMARK    5  A    between atoms: C_14  and  N_15 
ROOT
HETATM    1  C   UNL     1      44.801 -13.297   8.293  1.00  0.00     0.111 A 
HETATM    2  N   UNL     1      45.985 -12.852   7.844  1.00  0.00    -0.206 NA
HETATM    3  C   UNL     1      46.443 -11.696   8.327  1.00  0.00     0.202 A 
HETATM    4  N   UNL     1      45.791 -10.912   9.179  1.00  0.00    -0.199 NA
HETATM    5  C   UNL     1      44.589 -11.361   9.601  1.00  0.00     0.156 A 
HETATM    6  C   UNL     1      44.051 -12.562   9.186  1.00  0.00     0.096 A 
ENDROOT
BRANCH   1   7
HETATM    7  N   UNL     1      44.259 -14.497   7.811  1.00  0.00    -0.265 NA
HETATM    8  H   UNL     1      44.794 -15.285   8.180  1.00  0.00     0.130 HD
BRANCH   7   9
HETATM    9  C   UNL     1      44.139 -14.625   6.353  1.00  0.00     0.133 C 
HETATM   10  C   UNL     1      43.993 -16.061   5.930  1.00  0.00     0.142 A 
HETATM   11  N   UNL     1      43.140 -16.441   4.937  1.00  0.00    -0.253 N 
HETATM   12  N   UNL     1      44.638 -17.124   6.369  1.00  0.00    -0.215 NA
HETATM   13  N   UNL     1      43.207 -17.757   4.697  1.00  0.00    -0.155 NA
HETATM   14  C   UNL     1      42.205 -15.584   4.244  1.00  0.00     0.153 C 
HETATM   15  C   UNL     1      44.136 -18.139   5.585  1.00  0.00     0.151 A 
HETATM   16  C   UNL     1      42.568 -14.111   4.414  1.00  0.00     0.024 C 
HETATM   17  C   UNL     1      42.922 -13.800   5.872  1.00  0.00     0.029 C 
BRANCH  15  18
HETATM   18  C   UNL     1      44.605 -19.553   5.699  1.00  0.00     0.051 C 
HETATM   19  C   UNL     1      44.622 -20.249   4.338  1.00  0.00     0.018 C 
HETATM   20  C   UNL     1      43.749 -20.339   6.694  1.00  0.00     0.018 C 
ENDBRANCH  15  18
ENDBRANCH   7   9
ENDBRANCH   1   7
BRANCH   3  21
HETATM   21  N   UNL     1      47.668 -11.255   7.869  1.00  0.00    -0.271 NA
HETATM   22  H   UNL     1      47.809 -10.291   8.134  1.00  0.00     0.127 HD
HETATM   23  H   UNL     1      48.390 -11.917   8.119  1.00  0.00     0.127 HD
ENDBRANCH   3  21
BRANCH   5  24
HETATM   24  N   UNL     1      43.843 -10.541  10.497  1.00  0.00    -0.227 N 
HETATM   25  N   UNL     1      42.708  -9.889  10.122  1.00  0.00    -0.179 NA
HETATM   26  C   UNL     1      42.330  -9.225  11.216  1.00  0.00     0.141 A 
HETATM   27  C   UNL     1      43.192  -9.434  12.303  1.00  0.00     0.040 A 
HETATM   28  C   UNL     1      44.156 -10.284  11.817  1.00  0.00     0.122 A 
ENDBRANCH   5  24
TORSDOF 5
ENDMDL
MODEL 2
REMARK VINA RESULT:      -8.2      4.860      8.831
REMARK  5 active torsions:
REMARK  status: ('A' for Active; 'I' for Inactive)
REMARK    1  A    between atoms: C_2  and  C_3 
REMARK    2  A    between atoms: C_7  and  N_8 
REMARK    3  A    between atoms: N_8  and  C_9 
REMARK    4  A    between atoms: C_11  and  N_12 
REMARK    5  A    between atoms: C_14  and  N_15 
ROOT
HETATM    1  C   UNL     1      41.807 -16.392   1.740  1.00  0.00     0.111 A 
HETATM    2  N   UNL     1      42.345 -15.315   2.335  1.00  0.00    -0.206 NA
HETATM    3  C   UNL     1      42.248 -14.141   1.709  1.00  0.00     0.202 A 
HETATM    4  N   UNL     1      41.710 -13.957   0.508  1.00  0.00    -0.199 NA
HETATM    5  C   UNL     1      41.197 -15.056  -0.090  1.00  0.00     0.156 A 
HETATM    6  C   UNL     1      41.217 -16.305   0.497  1.00  0.00     0.096 A 
ENDROOT
BRANCH   1   7
HETATM    7  N   UNL     1      41.892 -17.657   2.340  1.00  0.00    -0.265 NA
HETATM    8  H   UNL     1      41.416 -17.638   3.243  1.00  0.00     0.130 HD
BRANCH   7   9
HETATM    9  C   UNL     1      43.239 -18.217   2.507  1.00  0.00     0.133 C 
HETATM   10  C   UNL     1      43.699 -18.146   3.937  1.00  0.00     0.142 A 
HETATM   11  N   UNL     1      44.390 -19.161   4.527  1.00  0.00    -0.253 N 
HETATM   12  N   UNL     1      43.571 -17.157   4.800  1.00  0.00    -0.215 NA
HETATM   13  N   UNL     1      44.737 -18.864   5.786  1.00  0.00    -0.155 NA
HETATM   14  C   UNL     1      44.679 -20.449   3.938  1.00  0.00     0.153 C 
HETATM   15  C   UNL     1      44.225 -17.631   5.915  1.00  0.00     0.151 A 
HETATM   16  C   UNL     1      44.526 -20.414   2.419  1.00  0.00     0.024 C 
HETATM   17  C   UNL     1      43.240 -19.685   2.017  1.00  0.00     0.029 C 
BRANCH  15  18
HETATM   18  C   UNL     1      44.374 -16.826   7.166  1.00  0.00     0.051 C 
HETATM   19  C   UNL     1      43.313 -17.198   8.201  1.00  0.00     0.018 C 
HETATM   20  C   UNL     1      44.329 -15.328   6.864  1.00  0.00     0.018 C 
ENDBRANCH  15  18
ENDBRANCH   7   9
ENDBRANCH   1   7
BRANCH   3  21
HETATM   21  N   UNL     1      42.791 -13.039   2.336  1.00  0.00    -0.271 NA
HETATM   22  H   UNL     1      42.057 -12.402   2.612  1.00  0.00     0.127 HD
HETATM   23  H   UNL     1      43.444 -13.333   3.050  1.00  0.00     0.127 HD
ENDBRANCH   3  21
BRANCH   5  24
HETATM   24  N   UNL     1      40.631 -14.910  -1.390  1.00  0.00    -0.227 N 
HETATM   25  N   UNL     1      39.724 -13.939  -1.689  1.00  0.00    -0.179 NA
HETATM   26  C   UNL     1      39.426 -14.149  -2.972  1.00  0.00     0.141 A 
HETATM   27  C   UNL     1      40.125 -15.234  -3.522  1.00  0.00     0.040 A 
HETATM   28  C   UNL     1      40.894 -15.706  -2.486  1.00  0.00     0.122 A 
ENDBRANCH   5  24
TORSDOF 5
ENDMDL
MODEL 3
REMARK VINA RESULT:      -7.9      5.045      7.587
REMARK  5 active torsions:
REMARK  status: ('A' for Active; 'I' for Inactive)
REMARK    1  A    between atoms: C_2  and  C_3 
REMARK    2  A    between atoms: C_7  and  N_8 
REMARK    3  A    between atoms: N_8  and  C_9 
REMARK    4  A    between atoms: C_11  and  N_12 
REMARK    5  A    between atoms: C_14  and  N_15 
ROOT
HETATM    1  C   UNL     1      42.347 -15.428   3.151  1.00  0.00     0.111 A 
HETATM    2  N   UNL     1      41.148 -16.032   3.131  1.00  0.00    -0.206 NA
HETATM    3  C   UNL     1      40.308 -15.723   2.141  1.00  0.00     0.202 A 
HETATM    4  N   UNL     1      40.540 -14.815   1.199  1.00  0.00    -0.199 NA
HETATM    5  C   UNL     1      41.740 -14.196   1.249  1.00  0.00     0.156 A 
HETATM    6  C   UNL     1      42.688 -14.479   2.212  1.00  0.00     0.096 A 
ENDROOT
BRANCH   1   7
HETATM    7  N   UNL     1      43.266 -15.700   4.175  1.00  0.00    -0.265 NA
HETATM    8  H   UNL     1      44.169 -15.946   3.766  1.00  0.00     0.130 HD
BRANCH   7   9
HETATM    9  C   UNL     1      42.877 -16.721   5.155  1.00  0.00     0.133 C 
HETATM   10  C   UNL     1      43.520 -18.049   4.862  1.00  0.00     0.142 A 
HETATM   11  N   UNL     1      44.007 -18.852   5.850  1.00  0.00    -0.253 N 
HETATM   12  N   UNL     1      43.678 -18.654   3.701  1.00  0.00    -0.215 NA
HETATM   13  N   UNL     1      44.491 -20.002   5.364  1.00  0.00    -0.155 NA
HETATM   14  C   UNL     1      44.081 -18.523   7.255  1.00  0.00     0.153 C 
HETATM   15  C   UNL     1      44.269 -19.848   4.051  1.00  0.00     0.151 A 
HETATM   16  C   UNL     1      43.153 -17.363   7.605  1.00  0.00     0.024 C 
HETATM   17  C   UNL     1      43.270 -16.238   6.572  1.00  0.00     0.029 C 
BRANCH  15  18
HETATM   18  C   UNL     1      44.613 -20.901   3.048  1.00  0.00     0.051 C 
HETATM   19  C   UNL     1      43.676 -20.855   1.843  1.00  0.00     0.018 C 
HETATM   20  C   UNL     1      44.601 -22.292   3.685  1.00  0.00     0.018 C 
ENDBRANCH  15  18
ENDBRANCH   7   9
ENDBRANCH   1   7
BRANCH   3  21
HETATM   21  N   UNL     1      39.085 -16.359   2.122  1.00  0.00    -0.271 NA
HETATM   22  H   UNL     1      39.010 -16.938   1.297  1.00  0.00     0.127 HD
HETATM   23  H   UNL     1      38.909 -16.798   3.015  1.00  0.00     0.127 HD
ENDBRANCH   3  21
BRANCH   5  24
HETATM   24  N   UNL     1      42.022 -13.198   0.272  1.00  0.00    -0.227 N 
HETATM   25  N   UNL     1      42.500 -11.966   0.601  1.00  0.00    -0.179 NA
HETATM   26  C   UNL     1      42.608 -11.330  -0.568  1.00  0.00     0.141 A 
HETATM   27  C   UNL     1      42.217 -12.124  -1.656  1.00  0.00     0.040 A 
HETATM   28  C   UNL     1      41.846 -13.320  -1.092  1.00  0.00     0.122 A 
ENDBRANCH   5  24
TORSDOF 5
ENDMDL
MODEL 4
REMARK VINA RESULT:      -7.8      5.010      7.969
REMARK  5 active torsions:
REMARK  status: ('A' for Active; 'I' for Inactive)
REMARK    1  A    between atoms: C_2  and  C_3 
REMARK    2  A    between atoms: C_7  and  N_8 
REMARK    3  A    between atoms: N_8  and  C_9 
REMARK    4  A    between atoms: C_11  and  N_12 
REMARK    5  A    between atoms: C_14  and  N_15 
ROOT
HETATM    1  C   UNL     1      41.688 -16.997   6.062  1.00  0.00     0.111 A 
HETATM    2  N   UNL     1      42.117 -16.893   7.330  1.00  0.00    -0.206 NA
HETATM    3  C   UNL     1      43.160 -17.639   7.700  1.00  0.00     0.202 A 
HETATM    4  N   UNL     1      43.777 -18.527   6.927  1.00  0.00    -0.199 NA
HETATM    5  C   UNL     1      43.315 -18.639   5.662  1.00  0.00     0.156 A 
HETATM    6  C   UNL     1      42.267 -17.882   5.179  1.00  0.00     0.096 A 
ENDROOT
BRANCH   1   7
HETATM    7  N   UNL     1      40.585 -16.252   5.618  1.00  0.00    -0.265 NA
HETATM    8  H   UNL     1      40.110 -16.758   4.870  1.00  0.00     0.130 HD
BRANCH   7   9
HETATM    9  C   UNL     1      40.854 -14.875   5.185  1.00  0.00     0.133 C 
HETATM   10  C   UNL     1      40.652 -14.707   3.704  1.00  0.00     0.142 A 
HETATM   11  N   UNL     1      40.063 -13.599   3.173  1.00  0.00    -0.253 N 
HETATM   12  N   UNL     1      41.016 -15.509   2.722  1.00  0.00    -0.215 NA
HETATM   13  N   UNL     1      40.030 -13.643   1.835  1.00  0.00    -0.155 NA
HETATM   14  C   UNL     1      39.467 -12.513   3.918  1.00  0.00     0.153 C 
HETATM   15  C   UNL     1      40.625 -14.820   1.596  1.00  0.00     0.151 A 
HETATM   16  C   UNL     1      39.950 -12.499   5.366  1.00  0.00     0.024 C 
HETATM   17  C   UNL     1      39.927 -13.910   5.963  1.00  0.00     0.029 C 
BRANCH  15  18
HETATM   18  C   UNL     1      40.866 -15.332   0.213  1.00  0.00     0.051 C 
HETATM   19  C   UNL     1      41.662 -16.637   0.230  1.00  0.00     0.018 C 
HETATM   20  C   UNL     1      41.572 -14.283  -0.647  1.00  0.00     0.018 C 
ENDBRANCH  15  18
ENDBRANCH   7   9
ENDBRANCH   1   7
BRANCH   3  21
HETATM   21  N   UNL     1      43.602 -17.513   9.000  1.00  0.00    -0.271 NA
HETATM   22  H   UNL     1      43.412 -18.363   9.513  1.00  0.00     0.127 HD
HETATM   23  H   UNL     1      44.551 -17.166   9.012  1.00  0.00     0.127 HD
ENDBRANCH   3  21
BRANCH   5  24
HETATM   24  N   UNL     1      43.931 -19.596   4.805  1.00  0.00    -0.227 N 
HETATM   25  N   UNL     1      44.532 -20.724   5.278  1.00  0.00    -0.179 NA
HETATM   26  C   UNL     1      44.998 -21.333   4.186  1.00  0.00     0.141 A 
HETATM   27  C   UNL     1      44.709 -20.630   3.007  1.00  0.00     0.040 A 
HETATM   28  C   UNL     1      44.022 -19.519   3.430  1.00  0.00     0.122 A 
ENDBRANCH   5  24
TORSDOF 5
ENDMDL
MODEL 5
REMARK VINA RESULT:      -7.8      2.657      4.547
REMARK  5 active torsions:
REMARK  status: ('A' for Active; 'I' for Inactive)
REMARK    1  A    between atoms: C_2  and  C_3 
REMARK    2  A    between atoms: C_7  and  N_8 
REMARK    3  A    between atoms: N_8  and  C_9 
REMARK    4  A    between atoms: C_11  and  N_12 
REMARK    5  A    between atoms: C_14  and  N_15 
ROOT
HETATM    1  C   UNL     1      42.437 -15.931   5.845  1.00  0.00     0.111 A 
HETATM    2  N   UNL     1      42.503 -17.052   6.581  1.00  0.00    -0.206 NA
HETATM    3  C   UNL     1      43.293 -17.050   7.656  1.00  0.00     0.202 A 
HETATM    4  N   UNL     1      44.073 -16.040   8.028  1.00  0.00    -0.199 NA
HETATM    5  C   UNL     1      44.016 -14.929   7.261  1.00  0.00     0.156 A 
HETATM    6  C   UNL     1      43.200 -14.825   6.153  1.00  0.00     0.096 A 
ENDROOT
BRANCH   1   7
HETATM    7  N   UNL     1      41.637 -15.878   4.694  1.00  0.00    -0.265 NA
HETATM    8  H   UNL     1      41.075 -16.728   4.630  1.00  0.00     0.130 HD
BRANCH   7   9
HETATM    9  C   UNL     1      42.331 -15.651   3.420  1.00  0.00     0.133 C 
HETATM   10  C   UNL     1      42.859 -16.933   2.837  1.00  0.00     0.142 A 
HETATM   11  N   UNL     1      42.800 -17.201   1.502  1.00  0.00    -0.253 N 
HETATM   12  N   UNL     1      43.467 -17.932   3.447  1.00  0.00    -0.215 NA
HETATM   13  N   UNL     1      43.369 -18.376   1.203  1.00  0.00    -0.155 NA
HETATM   14  C   UNL     1      42.151 -16.387   0.499  1.00  0.00     0.153 C 
HETATM   15  C   UNL     1      43.769 -18.790   2.413  1.00  0.00     0.151 A 
HETATM   16  C   UNL     1      41.918 -14.964   1.002  1.00  0.00     0.024 C 
HETATM   17  C   UNL     1      41.357 -14.974   2.427  1.00  0.00     0.029 C 
BRANCH  15  18
HETATM   18  C   UNL     1      44.508 -20.073   2.620  1.00  0.00     0.051 C 
HETATM   19  C   UNL     1      43.838 -21.230   1.881  1.00  0.00     0.018 C 
HETATM   20  C   UNL     1      44.647 -20.394   4.109  1.00  0.00     0.018 C 
ENDBRANCH  15  18
ENDBRANCH   7   9
ENDBRANCH   1   7
BRANCH   3  21
HETATM   21  N   UNL     1      43.342 -18.201   8.412  1.00  0.00    -0.271 NA
HETATM   22  H   UNL     1      42.421 -18.612   8.475  1.00  0.00     0.127 HD
HETATM   23  H   UNL     1      44.094 -18.795   8.093  1.00  0.00     0.127 HD
ENDBRANCH   3  21
BRANCH   5  24
HETATM   24  N   UNL     1      44.854 -13.829   7.609  1.00  0.00    -0.227 N 
HETATM   25  N   UNL     1      45.954 -13.487   6.882  1.00  0.00    -0.179 NA
HETATM   26  C   UNL     1      46.469 -12.443   7.533  1.00  0.00     0.141 A 
HETATM   27  C   UNL     1      45.726 -12.090   8.669  1.00  0.00     0.040 A 
HETATM   28  C   UNL     1      44.692 -12.994   8.696  1.00  0.00     0.122 A 
ENDBRANCH   5  24
TORSDOF 5
ENDMDL
MODEL 6
REMARK VINA RESULT:      -7.7      5.586      8.476
REMARK  5 active torsions:
REMARK  status: ('A' for Active; 'I' for Inactive)
REMARK    1  A    between atoms: C_2  and  C_3 
REMARK    2  A    between atoms: C_7  and  N_8 
REMARK    3  A    between atoms: N_8  and  C_9 
REMARK    4  A    between atoms: C_11  and  N_12 
REMARK    5  A    between atoms: C_14  and  N_15 
ROOT
HETATM    1  C   UNL     1      42.353 -15.717   2.353  1.00  0.00     0.111 A 
HETATM    2  N   UNL     1      41.280 -15.334   3.065  1.00  0.00    -0.206 NA
HETATM    3  C   UNL     1      40.224 -14.863   2.399  1.00  0.00     0.202 A 
HETATM    4  N   UNL     1      40.168 -14.684   1.084  1.00  0.00    -0.199 NA
HETATM    5  C   UNL     1      41.266 -15.049   0.385  1.00  0.00     0.156 A 
HETATM    6  C   UNL     1      42.390 -15.582   0.983  1.00  0.00     0.096 A 
ENDROOT
BRANCH   1   7
HETATM    7  N   UNL     1      43.500 -16.205   2.997  1.00  0.00    -0.265 NA
HETATM    8  H   UNL     1      44.048 -16.762   2.340  1.00  0.00     0.130 HD
BRANCH   7   9
HETATM    9  C   UNL     1      43.286 -16.972   4.231  1.00  0.00     0.133 C 
HETATM   10  C   UNL     1      43.889 -18.347   4.145  1.00  0.00     0.142 A 
HETATM   11  N   UNL     1      44.538 -18.921   5.197  1.00  0.00    -0.253 N 
HETATM   12  N   UNL     1      43.866 -19.200   3.139  1.00  0.00    -0.215 NA
HETATM   13  N   UNL     1      44.952 -20.162   4.911  1.00  0.00    -0.155 NA
HETATM   14  C   UNL     1      44.834 -18.288   6.462  1.00  0.00     0.153 C 
HETATM   15  C   UNL     1      44.519 -20.300   3.649  1.00  0.00     0.151 A 
HETATM   16  C   UNL     1      43.961 -17.056   6.686  1.00  0.00     0.024 C 
HETATM   17  C   UNL     1      43.896 -16.194   5.422  1.00  0.00     0.029 C 
BRANCH  15  18
HETATM   18  C   UNL     1      44.710 -21.559   2.867  1.00  0.00     0.051 C 
HETATM   19  C   UNL     1      43.713 -21.658   1.714  1.00  0.00     0.018 C 
HETATM   20  C   UNL     1      44.611 -22.789   3.771  1.00  0.00     0.018 C 
ENDBRANCH  15  18
ENDBRANCH   7   9
ENDBRANCH   1   7
BRANCH   3  21
HETATM   21  N   UNL     1      39.123 -14.487   3.139  1.00  0.00    -0.271 NA
HETATM   22  H   UNL     1      39.090 -15.012   4.001  1.00  0.00     0.127 HD
HETATM   23  H   UNL     1      39.078 -13.479   3.206  1.00  0.00     0.127 HD
ENDBRANCH   3  21
BRANCH   5  24
HETATM   24  N   UNL     1      41.259 -14.853  -1.027  1.00  0.00    -0.227 N 
HETATM   25  N   UNL     1      41.568 -13.657  -1.602  1.00  0.00    -0.179 NA
HETATM   26  C   UNL     1      41.426 -13.873  -2.911  1.00  0.00     0.141 A 
HETATM   27  C   UNL     1      41.036 -15.188  -3.205  1.00  0.00     0.040 A 
HETATM   28  C   UNL     1      40.936 -15.799  -1.979  1.00  0.00     0.122 A 
ENDBRANCH   5  24
TORSDOF 5
ENDMDL
MODEL 7
REMARK VINA RESULT:      -7.5      4.595      7.363
REMARK  5 active torsions:
REMARK  status: ('A' for Active; 'I' for Inactive)
REMARK    1  A    between atoms: C_2  and  C_3 
REMARK    2  A    between atoms: C_7  and  N_8 
REMARK    3  A    between atoms: N_8  and  C_9 
REMARK    4  A    between atoms: C_11  and  N_12 
REMARK    5  A    between atoms: C_14  and  N_15 
ROOT
HETATM    1  C   UNL     1      42.236 -14.797   4.172  1.00  0.00     0.111 A 
HETATM    2  N   UNL     1      41.412 -13.960   4.824  1.00  0.00    -0.206 NA
HETATM    3  C   UNL     1      40.407 -13.412   4.139  1.00  0.00     0.202 A 
HETATM    4  N   UNL     1      40.187 -13.581   2.839  1.00  0.00    -0.199 NA
HETATM    5  C   UNL     1      41.041 -14.405   2.192  1.00  0.00     0.156 A 
HETATM    6  C   UNL     1      42.086 -15.046   2.825  1.00  0.00     0.096 A 
ENDROOT
BRANCH   1   7
HETATM    7  N   UNL     1      43.321 -15.391   4.834  1.00  0.00    -0.265 NA
HETATM    8  H   UNL     1      44.022 -15.677   4.149  1.00  0.00     0.130 HD
BRANCH   7   9
HETATM    9  C   UNL     1      43.013 -16.519   5.722  1.00  0.00     0.133 C 
HETATM   10  C   UNL     1      43.616 -17.803   5.222  1.00  0.00     0.142 A 
HETATM   11  N   UNL     1      44.183 -18.712   6.063  1.00  0.00    -0.253 N 
HETATM   12  N   UNL     1      43.665 -18.271   3.990  1.00  0.00    -0.215 NA
HETATM   13  N   UNL     1      44.613 -19.798   5.408  1.00  0.00    -0.155 NA
HETATM   14  C   UNL     1      44.386 -18.546   7.485  1.00  0.00     0.153 C 
HETATM   15  C   UNL     1      44.275 -19.495   4.146  1.00  0.00     0.151 A 
HETATM   16  C   UNL     1      43.502 -17.436   8.048  1.00  0.00     0.024 C 
HETATM   17  C   UNL     1      43.535 -16.200   7.143  1.00  0.00     0.029 C 
BRANCH  15  18
HETATM   18  C   UNL     1      44.520 -20.426   3.003  1.00  0.00     0.051 C 
HETATM   19  C   UNL     1      43.477 -20.246   1.901  1.00  0.00     0.018 C 
HETATM   20  C   UNL     1      44.558 -21.880   3.475  1.00  0.00     0.018 C 
ENDBRANCH  15  18
ENDBRANCH   7   9
ENDBRANCH   1   7
BRANCH   3  21
HETATM   21  N   UNL     1      39.559 -12.566   4.821  1.00  0.00    -0.271 NA
HETATM   22  H   UNL     1      40.088 -11.982   5.453  1.00  0.00     0.127 HD
HETATM   23  H   UNL     1      38.934 -12.105   4.175  1.00  0.00     0.127 HD
ENDBRANCH   3  21
BRANCH   5  24
HETATM   24  N   UNL     1      40.856 -14.597   0.792  1.00  0.00    -0.227 N 
HETATM   25  N   UNL     1      39.951 -13.883   0.067  1.00  0.00    -0.179 NA
HETATM   26  C   UNL     1      40.064 -14.365  -1.172  1.00  0.00     0.141 A 
HETATM   27  C   UNL     1      41.030 -15.377  -1.275  1.00  0.00     0.040 A 
HETATM   28  C   UNL     1      41.526 -15.507  -0.001  1.00  0.00     0.122 A 
ENDBRANCH   5  24
TORSDOF 5
ENDMDL
MODEL 8
REMARK VINA RESULT:      -7.5      4.470      5.921
REMARK  5 active torsions:
REMARK  status: ('A' for Active; 'I' for Inactive)
REMARK    1  A    between atoms: C_2  and  C_3 
REMARK    2  A    between atoms: C_7  and  N_8 
REMARK    3  A    between atoms: N_8  and  C_9 
REMARK    4  A    between atoms: C_11  and  N_12 
REMARK    5  A    between atoms: C_14  and  N_15 
ROOT
HETATM    1  C   UNL     1      41.778 -15.301   3.491  1.00  0.00     0.111 A 
HETATM    2  N   UNL     1      40.792 -15.715   2.680  1.00  0.00    -0.206 NA
HETATM    3  C   UNL     1      39.684 -14.974   2.613  1.00  0.00     0.202 A 
HETATM    4  N   UNL     1      39.451 -13.883   3.334  1.00  0.00    -0.199 NA
HETATM    5  C   UNL     1      40.443 -13.495   4.166  1.00  0.00     0.156 A 
HETATM    6  C   UNL     1      41.638 -14.176   4.274  1.00  0.00     0.096 A 
ENDROOT
BRANCH   1   7
HETATM    7  N   UNL     1      42.960 -16.047   3.617  1.00  0.00    -0.265 NA
HETATM    8  H   UNL     1      43.111 -16.592   2.766  1.00  0.00     0.130 HD
BRANCH   7   9
HETATM    9  C   UNL     1      43.061 -16.926   4.788  1.00  0.00     0.133 C 
HETATM   10  C   UNL     1      43.740 -18.226   4.452  1.00  0.00     0.142 A 
HETATM   11  N   UNL     1      44.632 -18.817   5.295  1.00  0.00    -0.253 N 
HETATM   12  N   UNL     1      43.580 -18.995   3.392  1.00  0.00    -0.215 NA
HETATM   13  N   UNL     1      45.075 -19.986   4.815  1.00  0.00    -0.155 NA
HETATM   14  C   UNL     1      45.129 -18.261   6.534  1.00  0.00     0.153 C 
HETATM   15  C   UNL     1      44.407 -20.064   3.655  1.00  0.00     0.151 A 
HETATM   16  C   UNL     1      44.225 -17.141   7.044  1.00  0.00     0.024 C 
HETATM   17  C   UNL     1      43.838 -16.192   5.906  1.00  0.00     0.029 C 
BRANCH  15  18
HETATM   18  C   UNL     1      44.533 -21.232   2.731  1.00  0.00     0.051 C 
HETATM   19  C   UNL     1      43.405 -21.255   1.701  1.00  0.00     0.018 C 
HETATM   20  C   UNL     1      44.576 -22.547   3.511  1.00  0.00     0.018 C 
ENDBRANCH  15  18
ENDBRANCH   7   9
ENDBRANCH   1   7
BRANCH   3  21
HETATM   21  N   UNL     1      38.683 -15.401   1.765  1.00  0.00    -0.271 NA
HETATM   22  H   UNL     1      39.082 -15.910   0.989  1.00  0.00     0.127 HD
HETATM   23  H   UNL     1      37.952 -15.856   2.293  1.00  0.00     0.127 HD
ENDBRANCH   3  21
BRANCH   5  24
HETATM   24  N   UNL     1      40.227 -12.342   4.977  1.00  0.00    -0.227 N 
HETATM   25  N   UNL     1      39.732 -12.420   6.243  1.00  0.00    -0.179 NA
HETATM   26  C   UNL     1      39.657 -11.151   6.647  1.00  0.00     0.141 A 
HETATM   27  C   UNL     1      40.099 -10.243   5.673  1.00  0.00     0.040 A 
HETATM   28  C   UNL     1      40.462 -11.033   4.609  1.00  0.00     0.122 A 
ENDBRANCH   5  24
TORSDOF 5
ENDMDL
MODEL 9
REMARK VINA RESULT:      -7.5      1.690      3.076
REMARK  5 active torsions:
REMARK  status: ('A' for Active; 'I' for Inactive)
REMARK    1  A    between atoms: C_2  and  C_3 
REMARK    2  A    between atoms: C_7  and  N_8 
REMARK    3  A    between atoms: N_8  and  C_9 
REMARK    4  A    between atoms: C_11  and  N_12 
REMARK    5  A    between atoms: C_14  and  N_15 
ROOT
HETATM    1  C   UNL     1      44.928 -13.506   6.809  1.00  0.00     0.111 A 
HETATM    2  N   UNL     1      46.209 -13.115   6.717  1.00  0.00    -0.206 NA
HETATM    3  C   UNL     1      46.726 -12.423   7.735  1.00  0.00     0.202 A 
HETATM    4  N   UNL     1      46.055 -12.035   8.814  1.00  0.00    -0.199 NA
HETATM    5  C   UNL     1      44.759 -12.413   8.878  1.00  0.00     0.156 A 
HETATM    6  C   UNL     1      44.149 -13.163   7.892  1.00  0.00     0.096 A 
ENDROOT
BRANCH   1   7
HETATM    7  N   UNL     1      44.323 -14.221   5.764  1.00  0.00    -0.265 NA
HETATM    8  H   UNL     1      43.657 -13.618   5.279  1.00  0.00     0.130 HD
BRANCH   7   9
HETATM    9  C   UNL     1      43.669 -15.485   6.125  1.00  0.00     0.133 C 
HETATM   10  C   UNL     1      43.005 -16.128   4.938  1.00  0.00     0.142 A 
HETATM   11  N   UNL     1      43.045 -17.473   4.726  1.00  0.00    -0.253 N 
HETATM   12  N   UNL     1      42.284 -15.566   3.987  1.00  0.00    -0.215 NA
HETATM   13  N   UNL     1      42.350 -17.828   3.637  1.00  0.00    -0.155 NA
HETATM   14  C   UNL     1      43.788 -18.436   5.506  1.00  0.00     0.153 C 
HETATM   15  C   UNL     1      41.896 -16.638   3.216  1.00  0.00     0.151 A 
HETATM   16  C   UNL     1      44.175 -17.868   6.869  1.00  0.00     0.024 C 
HETATM   17  C   UNL     1      44.721 -16.443   6.733  1.00  0.00     0.029 C 
BRANCH  15  18
HETATM   18  C   UNL     1      41.016 -16.493   2.016  1.00  0.00     0.051 C 
HETATM   19  C   UNL     1      40.883 -17.812   1.257  1.00  0.00     0.018 C 
HETATM   20  C   UNL     1      41.527 -15.389   1.090  1.00  0.00     0.018 C 
ENDBRANCH  15  18
ENDBRANCH   7   9
ENDBRANCH   1   7
BRANCH   3  21
HETATM   21  N   UNL     1      48.047 -12.040   7.637  1.00  0.00    -0.271 NA
HETATM   22  H   UNL     1      48.268 -11.802   6.680  1.00  0.00     0.127 HD
HETATM   23  H   UNL     1      48.263 -11.355   8.348  1.00  0.00     0.127 HD
ENDBRANCH   3  21
BRANCH   5  24
HETATM   24  N   UNL     1      43.993 -11.999  10.006  1.00  0.00    -0.227 N 
HETATM   25  N   UNL     1      42.935 -11.148   9.901  1.00  0.00    -0.179 NA
HETATM   26  C   UNL     1      42.510 -10.992  11.156  1.00  0.00     0.141 A 
HETATM   27  C   UNL     1      43.264 -11.730  12.081  1.00  0.00     0.040 A 
HETATM   28  C   UNL     1      44.210 -12.370  11.318  1.00  0.00     0.122 A 
ENDBRANCH   5  24
TORSDOF 5
ENDMDL
MODEL 10
REMARK VINA RESULT:      -7.4      4.374      6.783
REMARK  5 active torsions:
REMARK  status: ('A' for Active; 'I' for Inactive)
REMARK    1  A    between atoms: C_2  and  C_3 
REMARK    2  A    between atoms: C_7  and  N_8 
REMARK    3  A    between atoms: N_8  and  C_9 
REMARK    4  A    between atoms: C_11  and  N_12 
REMARK    5  A    between atoms: C_14  and  N_15 
ROOT
HETATM    1  C   UNL     1      41.794 -14.278   5.142  1.00  0.00     0.111 A 
HETATM    2  N   UNL     1      40.839 -13.823   5.969  1.00  0.00    -0.206 NA
HETATM    3  C   UNL     1      39.765 -13.247   5.427  1.00  0.00     0.202 A 
HETATM    4  N   UNL     1      39.587 -13.032   4.128  1.00  0.00    -0.199 NA
HETATM    5  C   UNL     1      40.570 -13.471   3.311  1.00  0.00     0.156 A 
HETATM    6  C   UNL     1      41.699 -14.112   3.777  1.00  0.00     0.096 A 
ENDROOT
BRANCH   1   7
HETATM    7  N   UNL     1      42.955 -14.877   5.652  1.00  0.00    -0.265 NA
HETATM    8  H   UNL     1      43.693 -14.846   4.947  1.00  0.00     0.130 HD
BRANCH   7   9
HETATM    9  C   UNL     1      42.820 -16.248   6.160  1.00  0.00     0.133 C 
HETATM   10  C   UNL     1      43.410 -17.255   5.211  1.00  0.00     0.142 A 
HETATM   11  N   UNL     1      44.124 -18.330   5.648  1.00  0.00    -0.253 N 
HETATM   12  N   UNL     1      43.317 -17.308   3.897  1.00  0.00    -0.215 NA
HETATM   13  N   UNL     1      44.513 -19.116   4.635  1.00  0.00    -0.155 NA
HETATM   14  C   UNL     1      44.506 -18.599   7.016  1.00  0.00     0.153 C 
HETATM   15  C   UNL     1      43.997 -18.464   3.583  1.00  0.00     0.151 A 
HETATM   16  C   UNL     1      43.654 -17.801   7.999  1.00  0.00     0.024 C 
HETATM   17  C   UNL     1      43.510 -16.346   7.541  1.00  0.00     0.029 C 
BRANCH  15  18
HETATM   18  C   UNL     1      44.131 -18.966   2.182  1.00  0.00     0.051 C 
HETATM   19  C   UNL     1      43.721 -17.902   1.165  1.00  0.00     0.018 C 
HETATM   20  C   UNL     1      43.320 -20.246   1.977  1.00  0.00     0.018 C 
ENDBRANCH  15  18
ENDBRANCH   7   9
ENDBRANCH   1   7
BRANCH   3  21
HETATM   21  N   UNL     1      38.784 -12.797   6.285  1.00  0.00    -0.271 NA
HETATM   22  H   UNL     1      39.148 -12.738   7.225  1.00  0.00     0.127 HD
HETATM   23  H   UNL     1      38.342 -11.971   5.905  1.00  0.00     0.127 HD
ENDBRANCH   3  21
BRANCH   5  24
HETATM   24  N   UNL     1      40.432 -13.240   1.911  1.00  0.00    -0.227 N 
HETATM   25  N   UNL     1      39.686 -14.047   1.106  1.00  0.00    -0.179 NA
HETATM   26  C   UNL     1      39.828 -13.520  -0.112  1.00  0.00     0.141 A 
HETATM   27  C   UNL     1      40.646 -12.381  -0.120  1.00  0.00     0.040 A 
HETATM   28  C   UNL     1      41.021 -12.220   1.192  1.00  0.00     0.122 A 
ENDBRANCH   5  24
TORSDOF 5
ENDMDL
