MODEL 1
REMARK VINA RESULT:      -9.5      0.000      0.000
REMARK  3 active torsions:
REMARK  status: ('A' for Active; 'I' for Inactive)
REMARK    1  A    between atoms: C_2  and  N_3 
REMARK    2  A    between atoms: C_7  and  C_8 
REMARK       I    between atoms: C_8  and  N_9 
REMARK    3  A    between atoms: N_9  and  C_10 
ROOT
HETATM    1  C   UNL     1      43.954 -15.073   6.836  1.00  0.00     0.036 A 
HETATM    2  C   UNL     1      43.592 -14.793   5.519  1.00  0.00     0.049 A 
HETATM    3  C   UNL     1      43.607 -15.796   4.526  1.00  0.00     0.061 A 
HETATM    4  C   UNL     1      43.986 -17.102   4.863  1.00  0.00     0.050 A 
HETATM    5  N   UNL     1      43.955 -18.223   4.016  1.00  0.00    -0.324 N 
HETATM    6  C   UNL     1      43.108 -18.479   2.970  1.00  0.00     0.245 C 
HETATM    7  O   UNL     1      43.113 -19.615   2.491  1.00  0.00    -0.271 OA
HETATM    8  C   UNL     1      42.063 -17.427   2.604  1.00  0.00     0.180 C 
HETATM    9  N   UNL     1      42.699 -16.165   2.263  1.00  0.00    -0.334 N 
HETATM   10  C   UNL     1      43.347 -15.331   3.139  1.00  0.00     0.256 C 
HETATM   11  O   UNL     1      43.715 -14.205   2.814  1.00  0.00    -0.267 OA
HETATM   12  C   UNL     1      41.271 -17.806   1.345  1.00  0.00     0.037 C 
HETATM   13  C   UNL     1      41.016 -16.468   0.666  1.00  0.00     0.022 C 
HETATM   14  C   UNL     1      42.300 -15.707   0.944  1.00  0.00     0.127 C 
HETATM   15  C   UNL     1      44.437 -17.353   6.166  1.00  0.00     0.033 A 
HETATM   16  C   UNL     1      44.411 -16.355   7.144  1.00  0.00     0.032 A 
HETATM   17  H   UNL     1      44.452 -19.057   4.305  1.00  0.00     0.169 HD
ENDROOT
BRANCH   1  18
HETATM   18  N   UNL     1      43.853 -14.155   7.901  1.00  0.00    -0.323 N 
HETATM   19  C   UNL     1      44.703 -13.100   8.183  1.00  0.00     0.256 C 
HETATM   20  O   UNL     1      45.799 -12.889   7.681  1.00  0.00    -0.267 OA
HETATM   21  H   UNL     1      43.054 -14.270   8.511  1.00  0.00     0.169 HD
BRANCH  19  22
HETATM   22  C   UNL     1      44.197 -12.139   9.206  1.00  0.00     0.033 A 
HETATM   23  C   UNL     1      43.142 -11.261   8.914  1.00  0.00     0.030 A 
HETATM   24  C   UNL     1      42.725 -10.330   9.886  1.00  0.00    -0.007 A 
HETATM   25  C   UNL     1      43.383 -10.287  11.121  1.00  0.00     0.044 A 
HETATM   26  C   UNL     1      41.718  -9.330   9.904  1.00  0.00     0.031 A 
HETATM   27  N   UNL     1      42.793  -9.271  11.854  1.00  0.00    -0.352 N 
HETATM   28  C   UNL     1      44.444 -11.158  11.419  1.00  0.00     0.031 A 
HETATM   29  C   UNL     1      41.775  -8.702  11.123  1.00  0.00     0.092 A 
HETATM   30  C   UNL     1      44.842 -12.077  10.442  1.00  0.00     0.019 A 
BRANCH  27  31
HETATM   31  C   UNL     1      43.192  -8.834  13.193  1.00  0.00     0.081 C 
HETATM   32  C   UNL     1      42.686  -9.794  14.271  1.00  0.00     0.032 C 
HETATM   33  C   UNL     1      42.750  -7.396  13.472  1.00  0.00     0.032 C 
ENDBRANCH  27  31
ENDBRANCH  19  22
ENDBRANCH   1  18
TORSDOF 3
ENDMDL
MODEL 2
REMARK VINA RESULT:      -9.2      2.281     10.556
REMARK  3 active torsions:
REMARK  status: ('A' for Active; 'I' for Inactive)
REMARK    1  A    between atoms: C_2  and  N_3 
REMARK    2  A    between atoms: C_7  and  C_8 
REMARK       I    between atoms: C_8  and  N_9 
REMARK    3  A    between atoms: N_9  and  C_10 
ROOT
HETATM    1  C   UNL     1      42.667 -11.592   7.776  1.00  0.00     0.036 A 
HETATM    2  C   UNL     1      43.179 -11.400   9.058  1.00  0.00     0.049 A 
HETATM    3  C   UNL     1      42.749 -10.323   9.865  1.00  0.00     0.061 A 
HETATM    4  C   UNL     1      41.785  -9.431   9.377  1.00  0.00     0.050 A 
HETATM    5  N   UNL     1      41.187  -8.379  10.092  1.00  0.00    -0.324 N 
HETATM    6  C   UNL     1      40.937  -8.295  11.436  1.00  0.00     0.245 C 
HETATM    7  O   UNL     1      40.213  -7.377  11.830  1.00  0.00    -0.271 OA
HETATM    8  C   UNL     1      41.379  -9.448  12.334  1.00  0.00     0.180 C 
HETATM    9  N   UNL     1      42.814  -9.656  12.238  1.00  0.00    -0.334 N 
HETATM   10  C   UNL     1      43.483 -10.147  11.145  1.00  0.00     0.256 C 
HETATM   11  O   UNL     1      44.672 -10.451  11.192  1.00  0.00    -0.267 OA
HETATM   12  C   UNL     1      41.135  -9.156  13.821  1.00  0.00     0.037 C 
HETATM   13  C   UNL     1      42.308  -9.833  14.515  1.00  0.00     0.022 C 
HETATM   14  C   UNL     1      43.449  -9.596  13.542  1.00  0.00     0.127 C 
HETATM   15  C   UNL     1      41.345  -9.578   8.054  1.00  0.00     0.033 A 
HETATM   16  C   UNL     1      41.772 -10.650   7.267  1.00  0.00     0.032 A 
HETATM   17  H   UNL     1      40.672  -7.677   9.573  1.00  0.00     0.169 HD
ENDROOT
BRANCH   1  18
HETATM   18  N   UNL     1      42.961 -12.704   6.961  1.00  0.00    -0.323 N 
HETATM   19  C   UNL     1      43.870 -13.715   7.218  1.00  0.00     0.256 C 
HETATM   20  O   UNL     1      44.722 -13.727   8.097  1.00  0.00    -0.267 OA
HETATM   21  H   UNL     1      42.427 -12.780   6.105  1.00  0.00     0.169 HD
BRANCH  19  22
HETATM   22  C   UNL     1      43.772 -14.896   6.312  1.00  0.00     0.033 A 
HETATM   23  C   UNL     1      44.315 -16.137   6.680  1.00  0.00     0.030 A 
HETATM   24  C   UNL     1      44.251 -17.217   5.777  1.00  0.00    -0.007 A 
HETATM   25  C   UNL     1      43.661 -17.028   4.522  1.00  0.00     0.044 A 
HETATM   26  C   UNL     1      44.695 -18.563   5.841  1.00  0.00     0.031 A 
HETATM   27  N   UNL     1      43.767 -18.231   3.844  1.00  0.00    -0.352 N 
HETATM   28  C   UNL     1      43.121 -15.788   4.143  1.00  0.00     0.031 A 
HETATM   29  C   UNL     1      44.379 -19.165   4.648  1.00  0.00     0.092 A 
HETATM   30  C   UNL     1      43.192 -14.727   5.053  1.00  0.00     0.019 A 
BRANCH  27  31
HETATM   31  C   UNL     1      43.326 -18.486   2.472  1.00  0.00     0.081 C 
HETATM   32  C   UNL     1      43.383 -19.976   2.131  1.00  0.00     0.032 C 
HETATM   33  C   UNL     1      44.112 -17.650   1.461  1.00  0.00     0.032 C 
ENDBRANCH  27  31
ENDBRANCH  19  22
ENDBRANCH   1  18
TORSDOF 3
ENDMDL
MODEL 3
REMARK VINA RESULT:      -9.1      2.463     10.394
REMARK  3 active torsions:
REMARK  status: ('A' for Active; 'I' for Inactive)
REMARK    1  A    between atoms: C_2  and  N_3 
REMARK    2  A    between atoms: C_7  and  C_8 
REMARK       I    between atoms: C_8  and  N_9 
REMARK    3  A    between atoms: N_9  and  C_10 
ROOT
HETATM    1  C   UNL     1      43.217 -13.347   6.588  1.00  0.00     0.036 A 
HETATM    2  C   UNL     1      43.811 -12.801   7.725  1.00  0.00     0.049 A 
HETATM    3  C   UNL     1      43.288 -11.643   8.340  1.00  0.00     0.061 A 
HETATM    4  C   UNL     1      42.146 -11.029   7.809  1.00  0.00     0.050 A 
HETATM    5  N   UNL     1      41.453  -9.939   8.362  1.00  0.00    -0.324 N 
HETATM    6  C   UNL     1      41.323  -9.591   9.681  1.00  0.00     0.245 C 
HETATM    7  O   UNL     1      40.498  -8.721   9.968  1.00  0.00    -0.271 OA
HETATM    8  C   UNL     1      42.036 -10.438  10.732  1.00  0.00     0.180 C 
HETATM    9  N   UNL     1      43.470 -10.457  10.495  1.00  0.00    -0.334 N 
HETATM   10  C   UNL     1      44.102 -11.081   9.449  1.00  0.00     0.256 C 
HETATM   11  O   UNL     1      45.325 -11.195   9.402  1.00  0.00    -0.267 OA
HETATM   12  C   UNL     1      41.891  -9.857  12.145  1.00  0.00     0.037 C 
HETATM   13  C   UNL     1      43.222 -10.187  12.806  1.00  0.00     0.022 C 
HETATM   14  C   UNL     1      44.209 -10.015  11.664  1.00  0.00     0.127 C 
HETATM   15  C   UNL     1      41.611 -11.530   6.614  1.00  0.00     0.033 A 
HETATM   16  C   UNL     1      42.133 -12.681   6.017  1.00  0.00     0.032 A 
HETATM   17  H   UNL     1      40.780  -9.452   7.781  1.00  0.00     0.169 HD
ENDROOT
BRANCH   1  18
HETATM   18  N   UNL     1      43.613 -14.561   5.990  1.00  0.00    -0.323 N 
HETATM   19  C   UNL     1      43.710 -15.801   6.595  1.00  0.00     0.256 C 
HETATM   20  O   UNL     1      43.662 -16.036   7.795  1.00  0.00    -0.267 OA
HETATM   21  H   UNL     1      43.824 -14.519   5.001  1.00  0.00     0.169 HD
BRANCH  19  22
HETATM   22  C   UNL     1      43.888 -16.947   5.656  1.00  0.00     0.033 A 
HETATM   23  C   UNL     1      43.158 -17.023   4.460  1.00  0.00     0.030 A 
HETATM   24  C   UNL     1      43.312 -18.146   3.623  1.00  0.00    -0.007 A 
HETATM   25  C   UNL     1      44.179 -19.175   4.008  1.00  0.00     0.044 A 
HETATM   26  C   UNL     1      42.733 -18.518   2.382  1.00  0.00     0.031 A 
HETATM   27  N   UNL     1      44.107 -20.149   3.027  1.00  0.00    -0.352 N 
HETATM   28  C   UNL     1      44.909 -19.111   5.207  1.00  0.00     0.031 A 
HETATM   29  C   UNL     1      43.244 -19.745   2.034  1.00  0.00     0.092 A 
HETATM   30  C   UNL     1      44.745 -17.986   6.024  1.00  0.00     0.019 A 
BRANCH  27  31
HETATM   31  C   UNL     1      44.812 -21.432   3.035  1.00  0.00     0.081 C 
HETATM   32  C   UNL     1      44.541 -22.230   1.759  1.00  0.00     0.032 C 
HETATM   33  C   UNL     1      44.483 -22.248   4.286  1.00  0.00     0.032 C 
ENDBRANCH  27  31
ENDBRANCH  19  22
ENDBRANCH   1  18
TORSDOF 3
ENDMDL
MODEL 4
REMARK VINA RESULT:      -9.0      5.561     10.227
REMARK  3 active torsions:
REMARK  status: ('A' for Active; 'I' for Inactive)
REMARK    1  A    between atoms: C_2  and  N_3 
REMARK    2  A    between atoms: C_7  and  C_8 
REMARK       I    between atoms: C_8  and  N_9 
REMARK    3  A    between atoms: N_9  and  C_10 
ROOT
HETATM    1  C   UNL     1      42.678 -16.775   1.173  1.00  0.00     0.036 A 
HETATM    2  C   UNL     1      42.306 -16.556   2.499  1.00  0.00     0.049 A 
HETATM    3  C   UNL     1      42.598 -17.502   3.506  1.00  0.00     0.061 A 
HETATM    4  C   UNL     1      43.281 -18.681   3.177  1.00  0.00     0.050 A 
HETATM    5  N   UNL     1      43.729 -19.662   4.077  1.00  0.00    -0.324 N 
HETATM    6  C   UNL     1      44.126 -19.508   5.379  1.00  0.00     0.245 C 
HETATM    7  O   UNL     1      44.684 -20.462   5.927  1.00  0.00    -0.271 OA
HETATM    8  C   UNL     1      44.058 -18.116   6.003  1.00  0.00     0.180 C 
HETATM    9  N   UNL     1      42.699 -17.601   5.969  1.00  0.00    -0.334 N 
HETATM   10  C   UNL     1      42.015 -17.217   4.843  1.00  0.00     0.256 C 
HETATM   11  O   UNL     1      40.933 -16.638   4.905  1.00  0.00    -0.267 OA
HETATM   12  C   UNL     1      44.423 -18.126   7.493  1.00  0.00     0.037 C 
HETATM   13  C   UNL     1      43.520 -17.057   8.090  1.00  0.00     0.022 C 
HETATM   14  C   UNL     1      42.239 -17.225   7.293  1.00  0.00     0.127 C 
HETATM   15  C   UNL     1      43.568 -18.933   1.829  1.00  0.00     0.033 A 
HETATM   16  C   UNL     1      43.281 -17.988   0.840  1.00  0.00     0.032 A 
HETATM   17  H   UNL     1      44.013 -20.561   3.706  1.00  0.00     0.169 HD
ENDROOT
BRANCH   1  18
HETATM   18  N   UNL     1      42.524 -15.830   0.138  1.00  0.00    -0.323 N 
HETATM   19  C   UNL     1      41.434 -15.009  -0.093  1.00  0.00     0.256 C 
HETATM   20  O   UNL     1      40.332 -15.090   0.435  1.00  0.00    -0.267 OA
HETATM   21  H   UNL     1      43.311 -15.726  -0.489  1.00  0.00     0.169 HD
BRANCH  19  22
HETATM   22  C   UNL     1      41.662 -13.924  -1.091  1.00  0.00     0.033 A 
HETATM   23  C   UNL     1      42.185 -12.682  -0.701  1.00  0.00     0.030 A 
HETATM   24  C   UNL     1      42.337 -11.661  -1.661  1.00  0.00    -0.007 A 
HETATM   25  C   UNL     1      41.948 -11.900  -2.984  1.00  0.00     0.044 A 
HETATM   26  C   UNL     1      42.820 -10.328  -1.593  1.00  0.00     0.031 A 
HETATM   27  N   UNL     1      42.177 -10.730  -3.688  1.00  0.00    -0.352 N 
HETATM   28  C   UNL     1      41.418 -13.139  -3.382  1.00  0.00     0.031 A 
HETATM   29  C   UNL     1      42.720  -9.783  -2.849  1.00  0.00     0.092 A 
HETATM   30  C   UNL     1      41.277 -14.141  -2.415  1.00  0.00     0.019 A 
BRANCH  27  31
HETATM   31  C   UNL     1      41.874 -10.503  -5.101  1.00  0.00     0.081 C 
HETATM   32  C   UNL     1      42.621  -9.286  -5.648  1.00  0.00     0.032 C 
HETATM   33  C   UNL     1      40.368 -10.391  -5.344  1.00  0.00     0.032 C 
ENDBRANCH  27  31
ENDBRANCH  19  22
ENDBRANCH   1  18
TORSDOF 3
ENDMDL
MODEL 5
REMARK VINA RESULT:      -9.0      7.448     10.446
REMARK  3 active torsions:
REMARK  status: ('A' for Active; 'I' for Inactive)
REMARK    1  A    between atoms: C_2  and  N_3 
REMARK    2  A    between atoms: C_7  and  C_8 
REMARK       I    between atoms: C_8  and  N_9 
REMARK    3  A    between atoms: N_9  and  C_10 
ROOT
HETATM    1  C   UNL     1      41.339 -15.297  -1.014  1.00  0.00     0.036 A 
HETATM    2  C   UNL     1      40.865 -14.027  -0.687  1.00  0.00     0.049 A 
HETATM    3  C   UNL     1      40.015 -13.315  -1.562  1.00  0.00     0.061 A 
HETATM    4  C   UNL     1      39.630 -13.892  -2.780  1.00  0.00     0.050 A 
HETATM    5  N   UNL     1      38.716 -13.356  -3.703  1.00  0.00    -0.324 N 
HETATM    6  C   UNL     1      37.633 -12.553  -3.463  1.00  0.00     0.245 C 
HETATM    7  O   UNL     1      36.838 -12.367  -4.387  1.00  0.00    -0.271 OA
HETATM    8  C   UNL     1      37.353 -12.116  -2.027  1.00  0.00     0.180 C 
HETATM    9  N   UNL     1      38.483 -11.384  -1.480  1.00  0.00    -0.334 N 
HETATM   10  C   UNL     1      39.707 -11.917  -1.163  1.00  0.00     0.256 C 
HETATM   11  O   UNL     1      40.559 -11.275  -0.553  1.00  0.00    -0.267 OA
HETATM   12  C   UNL     1      36.181 -11.130  -1.935  1.00  0.00     0.037 C 
HETATM   13  C   UNL     1      36.584 -10.198  -0.801  1.00  0.00     0.022 C 
HETATM   14  C   UNL     1      38.085 -10.075  -0.994  1.00  0.00     0.127 C 
HETATM   15  C   UNL     1      40.185 -15.128  -3.140  1.00  0.00     0.033 A 
HETATM   16  C   UNL     1      41.020 -15.827  -2.265  1.00  0.00     0.032 A 
HETATM   17  H   UNL     1      38.685 -13.754  -4.634  1.00  0.00     0.169 HD
ENDROOT
BRANCH   1  18
HETATM   18  N   UNL     1      42.094 -16.111  -0.145  1.00  0.00    -0.323 N 
HETATM   19  C   UNL     1      42.241 -15.966   1.223  1.00  0.00     0.256 C 
HETATM   20  O   UNL     1      41.908 -15.000   1.897  1.00  0.00    -0.267 OA
HETATM   21  H   UNL     1      42.557 -16.903  -0.571  1.00  0.00     0.169 HD
BRANCH  19  22
HETATM   22  C   UNL     1      42.871 -17.128   1.915  1.00  0.00     0.033 A 
HETATM   23  C   UNL     1      42.964 -18.380   1.287  1.00  0.00     0.030 A 
HETATM   24  C   UNL     1      43.518 -19.469   1.991  1.00  0.00    -0.007 A 
HETATM   25  C   UNL     1      43.949 -19.286   3.309  1.00  0.00     0.044 A 
HETATM   26  C   UNL     1      43.746 -20.828   1.651  1.00  0.00     0.031 A 
HETATM   27  N   UNL     1      44.409 -20.514   3.754  1.00  0.00    -0.352 N 
HETATM   28  C   UNL     1      43.854 -18.038   3.947  1.00  0.00     0.031 A 
HETATM   29  C   UNL     1      44.301 -21.444   2.746  1.00  0.00     0.092 A 
HETATM   30  C   UNL     1      43.304 -16.968   3.232  1.00  0.00     0.019 A 
BRANCH  27  31
HETATM   31  C   UNL     1      44.915 -20.807   5.096  1.00  0.00     0.081 C 
HETATM   32  C   UNL     1      45.239 -22.293   5.262  1.00  0.00     0.032 C 
HETATM   33  C   UNL     1      43.953 -20.319   6.181  1.00  0.00     0.032 C 
ENDBRANCH  27  31
ENDBRANCH  19  22
ENDBRANCH   1  18
TORSDOF 3
ENDMDL
MODEL 6
REMARK VINA RESULT:      -8.9      7.263     10.358
REMARK  3 active torsions:
REMARK  status: ('A' for Active; 'I' for Inactive)
REMARK    1  A    between atoms: C_2  and  N_3 
REMARK    2  A    between atoms: C_7  and  C_8 
REMARK       I    between atoms: C_8  and  N_9 
REMARK    3  A    between atoms: N_9  and  C_10 
ROOT
HETATM    1  C   UNL     1      41.004 -15.124  -0.001  1.00  0.00     0.036 A 
HETATM    2  C   UNL     1      41.304 -14.504  -1.213  1.00  0.00     0.049 A 
HETATM    3  C   UNL     1      40.495 -13.466  -1.725  1.00  0.00     0.061 A 
HETATM    4  C   UNL     1      39.372 -13.040  -1.003  1.00  0.00     0.050 A 
HETATM    5  N   UNL     1      38.534 -11.960  -1.329  1.00  0.00    -0.324 N 
HETATM    6  C   UNL     1      38.852 -10.802  -1.988  1.00  0.00     0.245 C 
HETATM    7  O   UNL     1      38.020  -9.891  -1.985  1.00  0.00    -0.271 OA
HETATM    8  C   UNL     1      40.281 -10.620  -2.495  1.00  0.00     0.180 C 
HETATM    9  N   UNL     1      40.639 -11.682  -3.421  1.00  0.00    -0.334 N 
HETATM   10  C   UNL     1      40.839 -12.999  -3.093  1.00  0.00     0.256 C 
HETATM   11  O   UNL     1      41.300 -13.807  -3.895  1.00  0.00    -0.267 OA
HETATM   12  C   UNL     1      40.451  -9.331  -3.311  1.00  0.00     0.037 C 
HETATM   13  C   UNL     1      41.466  -9.714  -4.378  1.00  0.00     0.022 C 
HETATM   14  C   UNL     1      41.086 -11.149  -4.695  1.00  0.00     0.127 C 
HETATM   15  C   UNL     1      39.026 -13.730   0.167  1.00  0.00     0.033 A 
HETATM   16  C   UNL     1      39.837 -14.752   0.668  1.00  0.00     0.032 A 
HETATM   17  H   UNL     1      37.641 -11.886  -0.857  1.00  0.00     0.169 HD
ENDROOT
BRANCH   1  18
HETATM   18  N   UNL     1      41.825 -16.083   0.627  1.00  0.00    -0.323 N 
HETATM   19  C   UNL     1      42.599 -15.911   1.761  1.00  0.00     0.256 C 
HETATM   20  O   UNL     1      42.867 -14.851   2.310  1.00  0.00    -0.267 OA
HETATM   21  H   UNL     1      41.826 -17.006   0.212  1.00  0.00     0.169 HD
BRANCH  19  22
HETATM   22  C   UNL     1      43.145 -17.169   2.347  1.00  0.00     0.033 A 
HETATM   23  C   UNL     1      43.137 -18.369   1.619  1.00  0.00     0.030 A 
HETATM   24  C   UNL     1      43.611 -19.550   2.225  1.00  0.00    -0.007 A 
HETATM   25  C   UNL     1      44.066 -19.509   3.547  1.00  0.00     0.044 A 
HETATM   26  C   UNL     1      43.733 -20.891   1.773  1.00  0.00     0.031 A 
HETATM   27  N   UNL     1      44.435 -20.800   3.885  1.00  0.00    -0.352 N 
HETATM   28  C   UNL     1      44.071 -18.314   4.285  1.00  0.00     0.031 A 
HETATM   29  C   UNL     1      44.248 -21.634   2.807  1.00  0.00     0.092 A 
HETATM   30  C   UNL     1      43.599 -17.150   3.667  1.00  0.00     0.019 A 
BRANCH  27  31
HETATM   31  C   UNL     1      44.927 -21.240   5.192  1.00  0.00     0.081 C 
HETATM   32  C   UNL     1      45.384 -22.699   5.158  1.00  0.00     0.032 C 
HETATM   33  C   UNL     1      43.892 -21.002   6.293  1.00  0.00     0.032 C 
ENDBRANCH  27  31
ENDBRANCH  19  22
ENDBRANCH   1  18
TORSDOF 3
ENDMDL
MODEL 7
REMARK VINA RESULT:      -8.9      2.701      3.718
REMARK  3 active torsions:
REMARK  status: ('A' for Active; 'I' for Inactive)
REMARK    1  A    between atoms: C_2  and  N_3 
REMARK    2  A    between atoms: C_7  and  C_8 
REMARK       I    between atoms: C_8  and  N_9 
REMARK    3  A    between atoms: N_9  and  C_10 
ROOT
HETATM    1  C   UNL     1      40.828 -13.254   5.360  1.00  0.00     0.036 A 
HETATM    2  C   UNL     1      41.354 -14.543   5.283  1.00  0.00     0.049 A 
HETATM    3  C   UNL     1      41.237 -15.312   4.104  1.00  0.00     0.061 A 
HETATM    4  C   UNL     1      40.589 -14.774   2.985  1.00  0.00     0.050 A 
HETATM    5  N   UNL     1      40.483 -15.371   1.717  1.00  0.00    -0.324 N 
HETATM    6  C   UNL     1      41.357 -16.229   1.102  1.00  0.00     0.245 C 
HETATM    7  O   UNL     1      41.180 -16.470  -0.094  1.00  0.00    -0.271 OA
HETATM    8  C   UNL     1      42.610 -16.660   1.860  1.00  0.00     0.180 C 
HETATM    9  N   UNL     1      42.259 -17.322   3.105  1.00  0.00    -0.334 N 
HETATM   10  C   UNL     1      41.705 -16.719   4.206  1.00  0.00     0.256 C 
HETATM   11  O   UNL     1      41.587 -17.305   5.280  1.00  0.00    -0.267 OA
HETATM   12  C   UNL     1      43.426 -17.708   1.090  1.00  0.00     0.037 C 
HETATM   13  C   UNL     1      43.989 -18.600   2.187  1.00  0.00     0.022 C 
HETATM   14  C   UNL     1      42.853 -18.644   3.193  1.00  0.00     0.127 C 
HETATM   15  C   UNL     1      39.984 -13.515   3.102  1.00  0.00     0.033 A 
HETATM   16  C   UNL     1      40.111 -12.759   4.271  1.00  0.00     0.032 A 
HETATM   17  H   UNL     1      39.813 -14.988   1.060  1.00  0.00     0.169 HD
ENDROOT
BRANCH   1  18
HETATM   18  N   UNL     1      41.006 -12.388   6.459  1.00  0.00    -0.323 N 
HETATM   19  C   UNL     1      40.058 -11.562   7.038  1.00  0.00     0.256 C 
HETATM   20  O   UNL     1      38.954 -11.286   6.586  1.00  0.00    -0.267 OA
HETATM   21  H   UNL     1      41.925 -12.392   6.882  1.00  0.00     0.169 HD
BRANCH  19  22
HETATM   22  C   UNL     1      40.456 -10.968   8.347  1.00  0.00     0.033 A 
HETATM   23  C   UNL     1      39.504 -10.727   9.350  1.00  0.00     0.030 A 
HETATM   24  C   UNL     1      39.906 -10.115  10.554  1.00  0.00    -0.007 A 
HETATM   25  C   UNL     1      41.245  -9.744  10.722  1.00  0.00     0.044 A 
HETATM   26  C   UNL     1      39.209  -9.741  11.733  1.00  0.00     0.031 A 
HETATM   27  N   UNL     1      41.343  -9.145  11.967  1.00  0.00    -0.352 N 
HETATM   28  C   UNL     1      42.203  -9.976   9.720  1.00  0.00     0.031 A 
HETATM   29  C   UNL     1      40.113  -9.157  12.585  1.00  0.00     0.092 A 
HETATM   30  C   UNL     1      41.785 -10.587   8.532  1.00  0.00     0.019 A 
BRANCH  27  31
HETATM   31  C   UNL     1      42.552  -8.558  12.546  1.00  0.00     0.081 C 
HETATM   32  C   UNL     1      43.338  -9.585  13.363  1.00  0.00     0.032 C 
HETATM   33  C   UNL     1      42.234  -7.310  13.371  1.00  0.00     0.032 C 
ENDBRANCH  27  31
ENDBRANCH  19  22
ENDBRANCH   1  18
TORSDOF 3
ENDMDL
MODEL 8
REMARK VINA RESULT:      -8.8      3.215     10.241
REMARK  3 active torsions:
REMARK  status: ('A' for Active; 'I' for Inactive)
REMARK    1  A    between atoms: C_2  and  N_3 
REMARK    2  A    between atoms: C_7  and  C_8 
REMARK       I    between atoms: C_8  and  N_9 
REMARK    3  A    between atoms: N_9  and  C_10 
ROOT
HETATM    1  C   UNL     1      41.521 -12.842   5.284  1.00  0.00     0.036 A 
HETATM    2  C   UNL     1      41.876 -12.281   6.509  1.00  0.00     0.049 A 
HETATM    3  C   UNL     1      41.339 -11.045   6.932  1.00  0.00     0.061 A 
HETATM    4  C   UNL     1      40.426 -10.367   6.113  1.00  0.00     0.050 A 
HETATM    5  N   UNL     1      39.733  -9.188   6.436  1.00  0.00    -0.324 N 
HETATM    6  C   UNL     1      39.326  -8.749   7.668  1.00  0.00     0.245 C 
HETATM    7  O   UNL     1      38.548  -7.793   7.710  1.00  0.00    -0.271 OA
HETATM    8  C   UNL     1      39.676  -9.588   8.895  1.00  0.00     0.180 C 
HETATM    9  N   UNL     1      41.115  -9.748   9.018  1.00  0.00    -0.334 N 
HETATM   10  C   UNL     1      41.915 -10.489   8.184  1.00  0.00     0.256 C 
HETATM   11  O   UNL     1      43.095 -10.713   8.443  1.00  0.00    -0.267 OA
HETATM   12  C   UNL     1      39.255  -8.910  10.205  1.00  0.00     0.037 C 
HETATM   13  C   UNL     1      40.348  -9.314  11.184  1.00  0.00     0.022 C 
HETATM   14  C   UNL     1      41.592  -9.301  10.314  1.00  0.00     0.127 C 
HETATM   15  C   UNL     1      40.147 -10.893   4.844  1.00  0.00     0.033 A 
HETATM   16  C   UNL     1      40.678 -12.120   4.438  1.00  0.00     0.032 A 
HETATM   17  H   UNL     1      39.273  -8.681   5.690  1.00  0.00     0.169 HD
ENDROOT
BRANCH   1  18
HETATM   18  N   UNL     1      41.924 -14.121   4.848  1.00  0.00    -0.323 N 
HETATM   19  C   UNL     1      43.120 -14.461   4.241  1.00  0.00     0.256 C 
HETATM   20  O   UNL     1      43.960 -13.691   3.795  1.00  0.00    -0.267 OA
HETATM   21  H   UNL     1      41.273 -14.875   5.024  1.00  0.00     0.169 HD
BRANCH  19  22
HETATM   22  C   UNL     1      43.381 -15.927   4.140  1.00  0.00     0.033 A 
HETATM   23  C   UNL     1      43.561 -16.710   5.291  1.00  0.00     0.030 A 
HETATM   24  C   UNL     1      43.859 -18.081   5.156  1.00  0.00    -0.007 A 
HETATM   25  C   UNL     1      43.985 -18.634   3.877  1.00  0.00     0.044 A 
HETATM   26  C   UNL     1      44.095 -19.119   6.095  1.00  0.00     0.031 A 
HETATM   27  N   UNL     1      44.308 -19.970   4.047  1.00  0.00    -0.352 N 
HETATM   28  C   UNL     1      43.813 -17.856   2.720  1.00  0.00     0.031 A 
HETATM   29  C   UNL     1      44.359 -20.267   5.390  1.00  0.00     0.092 A 
HETATM   30  C   UNL     1      43.515 -16.497   2.873  1.00  0.00     0.019 A 
BRANCH  27  31
HETATM   31  C   UNL     1      44.582 -20.931   2.978  1.00  0.00     0.081 C 
HETATM   32  C   UNL     1      43.530 -20.854   1.870  1.00  0.00     0.032 C 
HETATM   33  C   UNL     1      44.721 -22.354   3.521  1.00  0.00     0.032 C 
ENDBRANCH  27  31
ENDBRANCH  19  22
ENDBRANCH   1  18
TORSDOF 3
ENDMDL
MODEL 9
REMARK VINA RESULT:      -8.7      6.831     10.183
REMARK  3 active torsions:
REMARK  status: ('A' for Active; 'I' for Inactive)
REMARK    1  A    between atoms: C_2  and  N_3 
REMARK    2  A    between atoms: C_7  and  C_8 
REMARK       I    between atoms: C_8  and  N_9 
REMARK    3  A    between atoms: N_9  and  C_10 
ROOT
HETATM    1  C   UNL     1      41.848 -13.814   1.339  1.00  0.00     0.036 A 
HETATM    2  C   UNL     1      41.665 -13.694  -0.038  1.00  0.00     0.049 A 
HETATM    3  C   UNL     1      41.376 -12.446  -0.633  1.00  0.00     0.061 A 
HETATM    4  C   UNL     1      41.277 -11.301   0.169  1.00  0.00     0.050 A 
HETATM    5  N   UNL     1      41.097  -9.982  -0.282  1.00  0.00    -0.324 N 
HETATM    6  C   UNL     1      41.514  -9.419  -1.460  1.00  0.00     0.245 C 
HETATM    7  O   UNL     1      41.439  -8.193  -1.569  1.00  0.00    -0.271 OA
HETATM    8  C   UNL     1      42.241 -10.300  -2.473  1.00  0.00     0.180 C 
HETATM    9  N   UNL     1      41.407 -11.420  -2.875  1.00  0.00    -0.334 N 
HETATM   10  C   UNL     1      41.055 -12.485  -2.083  1.00  0.00     0.256 C 
HETATM   11  O   UNL     1      40.487 -13.474  -2.537  1.00  0.00    -0.267 OA
HETATM   12  C   UNL     1      42.539  -9.558  -3.783  1.00  0.00     0.037 C 
HETATM   13  C   UNL     1      42.394 -10.637  -4.846  1.00  0.00     0.022 C 
HETATM   14  C   UNL     1      41.239 -11.469  -4.316  1.00  0.00     0.127 C 
HETATM   15  C   UNL     1      41.370 -11.447   1.560  1.00  0.00     0.033 A 
HETATM   16  C   UNL     1      41.663 -12.685   2.137  1.00  0.00     0.032 A 
HETATM   17  H   UNL     1      40.825  -9.277   0.392  1.00  0.00     0.169 HD
ENDROOT
BRANCH   1  18
HETATM   18  N   UNL     1      42.250 -15.000   1.987  1.00  0.00    -0.323 N 
HETATM   19  C   UNL     1      41.570 -16.204   2.030  1.00  0.00     0.256 C 
HETATM   20  O   UNL     1      40.413 -16.405   1.685  1.00  0.00    -0.267 OA
HETATM   21  H   UNL     1      43.149 -14.968   2.450  1.00  0.00     0.169 HD
BRANCH  19  22
HETATM   22  C   UNL     1      42.361 -17.355   2.555  1.00  0.00     0.033 A 
HETATM   23  C   UNL     1      42.629 -18.475   1.751  1.00  0.00     0.030 A 
HETATM   24  C   UNL     1      43.333 -19.567   2.296  1.00  0.00    -0.007 A 
HETATM   25  C   UNL     1      43.738 -19.523   3.635  1.00  0.00     0.044 A 
HETATM   26  C   UNL     1      43.750 -20.815   1.764  1.00  0.00     0.031 A 
HETATM   27  N   UNL     1      44.369 -20.727   3.903  1.00  0.00    -0.352 N 
HETATM   28  C   UNL     1      43.469 -18.410   4.448  1.00  0.00     0.031 A 
HETATM   29  C   UNL     1      44.390 -21.502   2.766  1.00  0.00     0.092 A 
HETATM   30  C   UNL     1      42.771 -17.333   3.889  1.00  0.00     0.019 A 
BRANCH  27  31
HETATM   31  C   UNL     1      44.915 -21.142   5.196  1.00  0.00     0.081 C 
HETATM   32  C   UNL     1      45.389 -22.596   5.164  1.00  0.00     0.032 C 
HETATM   33  C   UNL     1      43.920 -20.901   6.332  1.00  0.00     0.032 C 
ENDBRANCH  27  31
ENDBRANCH  19  22
ENDBRANCH   1  18
TORSDOF 3
ENDMDL
MODEL 10
REMARK VINA RESULT:      -8.6      5.633     10.507
REMARK  3 active torsions:
REMARK  status: ('A' for Active; 'I' for Inactive)
REMARK    1  A    between atoms: C_2  and  N_3 
REMARK    2  A    between atoms: C_7  and  C_8 
REMARK       I    between atoms: C_8  and  N_9 
REMARK    3  A    between atoms: N_9  and  C_10 
ROOT
HETATM    1  C   UNL     1      41.846 -16.029   3.107  1.00  0.00     0.036 A 
HETATM    2  C   UNL     1      42.562 -17.225   3.074  1.00  0.00     0.049 A 
HETATM    3  C   UNL     1      43.277 -17.682   4.203  1.00  0.00     0.061 A 
HETATM    4  C   UNL     1      43.266 -16.929   5.384  1.00  0.00     0.050 A 
HETATM    5  N   UNL     1      43.839 -17.299   6.613  1.00  0.00    -0.324 N 
HETATM    6  C   UNL     1      44.016 -18.556   7.128  1.00  0.00     0.245 C 
HETATM    7  O   UNL     1      44.346 -18.651   8.312  1.00  0.00    -0.271 OA
HETATM    8  C   UNL     1      43.588 -19.756   6.286  1.00  0.00     0.180 C 
HETATM    9  N   UNL     1      44.296 -19.775   5.017  1.00  0.00    -0.334 N 
HETATM   10  C   UNL     1      44.118 -18.888   3.985  1.00  0.00     0.256 C 
HETATM   11  O   UNL     1      44.629 -19.061   2.882  1.00  0.00    -0.267 OA
HETATM   12  C   UNL     1      43.954 -21.092   6.946  1.00  0.00     0.037 C 
HETATM   13  C   UNL     1      44.300 -21.991   5.767  1.00  0.00     0.022 C 
HETATM   14  C   UNL     1      44.992 -21.033   4.814  1.00  0.00     0.127 C 
HETATM   15  C   UNL     1      42.620 -15.685   5.380  1.00  0.00     0.033 A 
HETATM   16  C   UNL     1      41.910 -15.245   4.259  1.00  0.00     0.032 A 
HETATM   17  H   UNL     1      43.953 -16.587   7.324  1.00  0.00     0.169 HD
ENDROOT
BRANCH   1  18
HETATM   18  N   UNL     1      41.019 -15.568   2.062  1.00  0.00    -0.323 N 
HETATM   19  C   UNL     1      41.287 -14.546   1.169  1.00  0.00     0.256 C 
HETATM   20  O   UNL     1      42.196 -13.729   1.243  1.00  0.00    -0.267 OA
HETATM   21  H   UNL     1      40.143 -16.060   1.941  1.00  0.00     0.169 HD
BRANCH  19  22
HETATM   22  C   UNL     1      40.354 -14.463   0.009  1.00  0.00     0.033 A 
HETATM   23  C   UNL     1      40.614 -15.162  -1.180  1.00  0.00     0.030 A 
HETATM   24  C   UNL     1      39.739 -15.017  -2.275  1.00  0.00    -0.007 A 
HETATM   25  C   UNL     1      38.634 -14.166  -2.163  1.00  0.00     0.044 A 
HETATM   26  C   UNL     1      39.722 -15.569  -3.583  1.00  0.00     0.031 A 
HETATM   27  N   UNL     1      37.980 -14.195  -3.384  1.00  0.00    -0.352 N 
HETATM   28  C   UNL     1      38.369 -13.458  -0.979  1.00  0.00     0.031 A 
HETATM   29  C   UNL     1      38.629 -15.056  -4.238  1.00  0.00     0.092 A 
HETATM   30  C   UNL     1      39.248 -13.615   0.099  1.00  0.00     0.019 A 
BRANCH  27  31
HETATM   31  C   UNL     1      36.792 -13.417  -3.741  1.00  0.00     0.081 C 
HETATM   32  C   UNL     1      35.966 -14.117  -4.821  1.00  0.00     0.032 C 
HETATM   33  C   UNL     1      37.156 -11.989  -4.152  1.00  0.00     0.032 C 
ENDBRANCH  27  31
ENDBRANCH  19  22
ENDBRANCH   1  18
TORSDOF 3
ENDMDL
