MODEL 1
REMARK VINA RESULT:      -9.4      0.000      0.000
REMARK  3 active torsions:
REMARK  status: ('A' for Active; 'I' for Inactive)
REMARK    1  A    between atoms: N_3  and  C_4 
REMARK    2  A    between atoms: C_12  and  C_13 
REMARK       I    between atoms: C_13  and  N_14 
REMARK    3  A    between atoms: N_14  and  C_15 
ROOT
HETATM    1  C   UNL     1      41.017 -11.848  -2.284  1.00  0.00     0.070 C 
HETATM    2  C   UNL     1      41.252 -12.834  -1.163  1.00  0.00     0.036 C 
HETATM    3  N   UNL     1      40.621 -14.089  -1.168  1.00  0.00    -0.235 N 
HETATM    4  N   UNL     1      40.794 -15.030  -0.177  1.00  0.00    -0.157 NA
HETATM    5  C   UNL     1      41.535 -14.710   0.845  1.00  0.00     0.195 C 
HETATM    6  C   UNL     1      42.136 -13.341   0.999  1.00  0.00     0.209 C 
HETATM    7  O   UNL     1      42.640 -12.987   2.055  1.00  0.00    -0.286 OA
HETATM    8  C   UNL     1      42.017 -12.429  -0.139  1.00  0.00     0.084 C 
ENDROOT
BRANCH   5   9
HETATM    9  C   UNL     1      41.736 -15.767   1.908  1.00  0.00     0.280 C 
HETATM   10  N   UNL     1      43.048 -16.195   2.023  1.00  0.00    -0.322 N 
HETATM   11  H   UNL     1      43.742 -15.610   1.562  1.00  0.00     0.169 HD
HETATM   12  O   UNL     1      40.776 -16.132   2.570  1.00  0.00    -0.265 OA
BRANCH  10  13
HETATM   13  C   UNL     1      43.487 -17.318   2.749  1.00  0.00     0.035 A 
HETATM   14  C   UNL     1      43.400 -17.390   4.144  1.00  0.00     0.039 A 
HETATM   15  C   UNL     1      43.788 -18.557   4.784  1.00  0.00    -0.022 A 
HETATM   16  C   UNL     1      44.271 -19.650   4.067  1.00  0.00    -0.025 A 
HETATM   17  C   UNL     1      43.708 -18.860   6.239  1.00  0.00     0.274 C 
HETATM   18  C   UNL     1      44.572 -20.784   4.984  1.00  0.00     0.273 C 
HETATM   19  C   UNL     1      44.373 -19.597   2.686  1.00  0.00     0.012 A 
HETATM   20  N   UNL     1      44.351 -20.235   6.393  1.00  0.00    -0.067 N 
HETATM   21  H   UNL     1      45.282 -20.070   6.790  1.00  0.00     0.280 HD
HETATM   22  C   UNL     1      43.599 -21.152   7.295  1.00  0.00     0.270 C 
HETATM   23  C   UNL     1      43.969 -18.426   2.029  1.00  0.00     0.030 A 
ENDBRANCH  10  13
ENDBRANCH   5   9
BRANCH   3  24
HETATM   24  C   UNL     1      39.702 -14.509  -2.174  1.00  0.00     0.097 A 
HETATM   25  C   UNL     1      40.095 -15.405  -3.183  1.00  0.00     0.145 A 
HETATM   26  F   UNL     1      41.352 -15.880  -3.216  1.00  0.00    -0.204 F 
HETATM   27  C   UNL     1      39.198 -15.853  -4.152  1.00  0.00     0.045 A 
HETATM   28  C   UNL     1      37.882 -15.396  -4.142  1.00  0.00     0.003 A 
HETATM   29  C   UNL     1      37.475 -14.480  -3.172  1.00  0.00     0.002 A 
HETATM   30  C   UNL     1      38.378 -14.036  -2.202  1.00  0.00     0.035 A 
ENDBRANCH   3  24
TORSDOF 3
ENDMDL
MODEL 2
REMARK VINA RESULT:      -8.7      7.449      9.553
REMARK  3 active torsions:
REMARK  status: ('A' for Active; 'I' for Inactive)
REMARK    1  A    between atoms: N_3  and  C_4 
REMARK    2  A    between atoms: C_12  and  C_13 
REMARK       I    between atoms: C_13  and  N_14 
REMARK    3  A    between atoms: N_14  and  C_15 
ROOT
HETATM    1  C   UNL     1      42.898  -9.085  11.753  1.00  0.00     0.070 C 
HETATM    2  C   UNL     1      43.417 -10.116  10.779  1.00  0.00     0.036 C 
HETATM    3  N   UNL     1      42.697 -10.428   9.614  1.00  0.00    -0.235 N 
HETATM    4  N   UNL     1      43.115 -11.358   8.688  1.00  0.00    -0.157 NA
HETATM    5  C   UNL     1      44.207 -12.023   8.941  1.00  0.00     0.195 C 
HETATM    6  C   UNL     1      44.966 -11.853  10.227  1.00  0.00     0.209 C 
HETATM    7  O   UNL     1      45.853 -12.630  10.545  1.00  0.00    -0.286 OA
HETATM    8  C   UNL     1      44.540 -10.768  11.113  1.00  0.00     0.084 C 
ENDROOT
BRANCH   5   9
HETATM    9  C   UNL     1      44.665 -13.018   7.899  1.00  0.00     0.280 C 
HETATM   10  N   UNL     1      43.633 -13.754   7.343  1.00  0.00    -0.322 N 
HETATM   11  H   UNL     1      42.696 -13.398   7.519  1.00  0.00     0.169 HD
HETATM   12  O   UNL     1      45.854 -13.081   7.623  1.00  0.00    -0.265 OA
BRANCH  10  13
HETATM   13  C   UNL     1      43.779 -14.898   6.535  1.00  0.00     0.035 A 
HETATM   14  C   UNL     1      44.432 -16.053   6.981  1.00  0.00     0.039 A 
HETATM   15  C   UNL     1      44.475 -17.164   6.153  1.00  0.00    -0.022 A 
HETATM   16  C   UNL     1      43.892 -17.147   4.888  1.00  0.00    -0.025 A 
HETATM   17  C   UNL     1      45.053 -18.501   6.463  1.00  0.00     0.274 C 
HETATM   18  C   UNL     1      44.040 -18.475   4.227  1.00  0.00     0.273 C 
HETATM   19  C   UNL     1      43.248 -16.012   4.424  1.00  0.00     0.012 A 
HETATM   20  N   UNL     1      44.909 -19.302   5.173  1.00  0.00    -0.067 N 
HETATM   21  H   UNL     1      45.845 -19.334   4.754  1.00  0.00     0.280 HD
HETATM   22  C   UNL     1      44.428 -20.697   5.382  1.00  0.00     0.270 C 
HETATM   23  C   UNL     1      43.187 -14.888   5.260  1.00  0.00     0.030 A 
ENDBRANCH  10  13
ENDBRANCH   5   9
BRANCH   3  24
HETATM   24  C   UNL     1      41.435  -9.850   9.284  1.00  0.00     0.097 A 
HETATM   25  C   UNL     1      40.242 -10.369   9.815  1.00  0.00     0.145 A 
HETATM   26  F   UNL     1      40.272 -11.425  10.645  1.00  0.00    -0.204 F 
HETATM   27  C   UNL     1      39.005  -9.791   9.531  1.00  0.00     0.045 A 
HETATM   28  C   UNL     1      38.934  -8.685   8.688  1.00  0.00     0.003 A 
HETATM   29  C   UNL     1      40.100  -8.171   8.121  1.00  0.00     0.002 A 
HETATM   30  C   UNL     1      41.338  -8.753   8.410  1.00  0.00     0.035 A 
ENDBRANCH   3  24
TORSDOF 3
ENDMDL
MODEL 3
REMARK VINA RESULT:      -8.7      1.743      2.804
REMARK  3 active torsions:
REMARK  status: ('A' for Active; 'I' for Inactive)
REMARK    1  A    between atoms: N_3  and  C_4 
REMARK    2  A    between atoms: C_12  and  C_13 
REMARK       I    between atoms: C_13  and  N_14 
REMARK    3  A    between atoms: N_14  and  C_15 
ROOT
HETATM    1  C   UNL     1      38.399 -12.283  -1.364  1.00  0.00     0.070 C 
HETATM    2  C   UNL     1      39.355 -13.083  -0.511  1.00  0.00     0.036 C 
HETATM    3  N   UNL     1      40.742 -13.000  -0.716  1.00  0.00    -0.235 N 
HETATM    4  N   UNL     1      41.664 -13.703   0.027  1.00  0.00    -0.157 NA
HETATM    5  C   UNL     1      41.218 -14.532   0.927  1.00  0.00     0.195 C 
HETATM    6  C   UNL     1      39.749 -14.787   1.120  1.00  0.00     0.209 C 
HETATM    7  O   UNL     1      39.354 -15.717   1.806  1.00  0.00    -0.286 OA
HETATM    8  C   UNL     1      38.821 -13.924   0.388  1.00  0.00     0.084 C 
ENDROOT
BRANCH   5   9
HETATM    9  C   UNL     1      42.245 -15.273   1.753  1.00  0.00     0.280 C 
HETATM   10  N   UNL     1      42.199 -16.647   1.592  1.00  0.00    -0.322 N 
HETATM   11  H   UNL     1      41.659 -16.977   0.794  1.00  0.00     0.169 HD
HETATM   12  O   UNL     1      43.016 -14.633   2.451  1.00  0.00    -0.265 OA
BRANCH  10  13
HETATM   13  C   UNL     1      42.863 -17.593   2.395  1.00  0.00     0.035 A 
HETATM   14  C   UNL     1      42.707 -17.639   3.785  1.00  0.00     0.039 A 
HETATM   15  C   UNL     1      43.339 -18.644   4.502  1.00  0.00    -0.022 A 
HETATM   16  C   UNL     1      44.132 -19.597   3.866  1.00  0.00    -0.025 A 
HETATM   17  C   UNL     1      43.245 -18.908   5.963  1.00  0.00     0.274 C 
HETATM   18  C   UNL     1      44.654 -20.583   4.853  1.00  0.00     0.273 C 
HETATM   19  C   UNL     1      44.307 -19.565   2.492  1.00  0.00     0.012 A 
HETATM   20  N   UNL     1      44.207 -20.064   6.219  1.00  0.00    -0.067 N 
HETATM   21  H   UNL     1      45.037 -19.649   6.657  1.00  0.00     0.280 HD
HETATM   22  C   UNL     1      43.659 -21.114   7.123  1.00  0.00     0.270 C 
HETATM   23  C   UNL     1      43.660 -18.562   1.758  1.00  0.00     0.030 A 
ENDBRANCH  10  13
ENDBRANCH   5   9
BRANCH   3  24
HETATM   24  C   UNL     1      41.344 -12.214  -1.743  1.00  0.00     0.097 A 
HETATM   25  C   UNL     1      41.463 -12.707  -3.054  1.00  0.00     0.145 A 
HETATM   26  F   UNL     1      41.009 -13.934  -3.360  1.00  0.00    -0.204 F 
HETATM   27  C   UNL     1      42.016 -11.936  -4.076  1.00  0.00     0.045 A 
HETATM   28  C   UNL     1      42.482 -10.653  -3.802  1.00  0.00     0.003 A 
HETATM   29  C   UNL     1      42.407 -10.153  -2.502  1.00  0.00     0.002 A 
HETATM   30  C   UNL     1      41.850 -10.929  -1.481  1.00  0.00     0.035 A 
ENDBRANCH   3  24
TORSDOF 3
ENDMDL
MODEL 4
REMARK VINA RESULT:      -8.4      7.424      9.743
REMARK  3 active torsions:
REMARK  status: ('A' for Active; 'I' for Inactive)
REMARK    1  A    between atoms: N_3  and  C_4 
REMARK    2  A    between atoms: C_12  and  C_13 
REMARK       I    between atoms: C_13  and  N_14 
REMARK    3  A    between atoms: N_14  and  C_15 
ROOT
HETATM    1  C   UNL     1      43.223  -9.230  11.746  1.00  0.00     0.070 C 
HETATM    2  C   UNL     1      43.636 -10.253  10.713  1.00  0.00     0.036 C 
HETATM    3  N   UNL     1      42.803 -10.545   9.621  1.00  0.00    -0.235 N 
HETATM    4  N   UNL     1      43.121 -11.466   8.647  1.00  0.00    -0.157 NA
HETATM    5  C   UNL     1      44.227 -12.141   8.784  1.00  0.00     0.195 C 
HETATM    6  C   UNL     1      45.109 -11.992   9.992  1.00  0.00     0.209 C 
HETATM    7  O   UNL     1      46.017 -12.780  10.212  1.00  0.00    -0.286 OA
HETATM    8  C   UNL     1      44.781 -10.916  10.928  1.00  0.00     0.084 C 
ENDROOT
BRANCH   5   9
HETATM    9  C   UNL     1      44.573 -13.126   7.691  1.00  0.00     0.280 C 
HETATM   10  N   UNL     1      43.471 -13.772   7.157  1.00  0.00    -0.322 N 
HETATM   11  H   UNL     1      42.569 -13.361   7.386  1.00  0.00     0.169 HD
HETATM   12  O   UNL     1      45.742 -13.258   7.361  1.00  0.00    -0.265 OA
BRANCH  10  13
HETATM   13  C   UNL     1      43.506 -14.893   6.306  1.00  0.00     0.035 A 
HETATM   14  C   UNL     1      43.130 -14.825   4.960  1.00  0.00     0.039 A 
HETATM   15  C   UNL     1      43.258 -15.954   4.166  1.00  0.00    -0.022 A 
HETATM   16  C   UNL     1      43.742 -17.153   4.686  1.00  0.00    -0.025 A 
HETATM   17  C   UNL     1      42.983 -16.070   2.708  1.00  0.00     0.274 C 
HETATM   18  C   UNL     1      43.822 -18.190   3.619  1.00  0.00     0.273 C 
HETATM   19  C   UNL     1      44.112 -17.245   6.018  1.00  0.00     0.012 A 
HETATM   20  N   UNL     1      43.200 -17.545   2.381  1.00  0.00    -0.067 N 
HETATM   21  H   UNL     1      42.265 -17.953   2.279  1.00  0.00     0.280 HD
HETATM   22  C   UNL     1      43.966 -17.775   1.123  1.00  0.00     0.270 C 
HETATM   23  C   UNL     1      44.000 -16.104   6.824  1.00  0.00     0.030 A 
ENDBRANCH  10  13
ENDBRANCH   5   9
BRANCH   3  24
HETATM   24  C   UNL     1      41.520  -9.953   9.423  1.00  0.00     0.097 A 
HETATM   25  C   UNL     1      40.379 -10.477  10.055  1.00  0.00     0.145 A 
HETATM   26  F   UNL     1      40.480 -11.550  10.857  1.00  0.00    -0.204 F 
HETATM   27  C   UNL     1      39.124  -9.888   9.900  1.00  0.00     0.045 A 
HETATM   28  C   UNL     1      38.981  -8.765   9.089  1.00  0.00     0.003 A 
HETATM   29  C   UNL     1      40.092  -8.245   8.424  1.00  0.00     0.002 A 
HETATM   30  C   UNL     1      41.348  -8.839   8.584  1.00  0.00     0.035 A 
ENDBRANCH   3  24
TORSDOF 3
ENDMDL
MODEL 5
REMARK VINA RESULT:      -8.3      2.322      8.877
REMARK  3 active torsions:
REMARK  status: ('A' for Active; 'I' for Inactive)
REMARK    1  A    between atoms: N_3  and  C_4 
REMARK    2  A    between atoms: C_12  and  C_13 
REMARK       I    between atoms: C_13  and  N_14 
REMARK    3  A    between atoms: N_14  and  C_15 
ROOT
HETATM    1  C   UNL     1      44.550 -16.924   6.749  1.00  0.00     0.070 C 
HETATM    2  C   UNL     1      43.650 -16.757   5.547  1.00  0.00     0.036 C 
HETATM    3  N   UNL     1      43.280 -17.865   4.768  1.00  0.00    -0.235 N 
HETATM    4  N   UNL     1      42.465 -17.779   3.661  1.00  0.00    -0.157 NA
HETATM    5  C   UNL     1      42.066 -16.597   3.288  1.00  0.00     0.195 C 
HETATM    6  C   UNL     1      42.524 -15.344   3.981  1.00  0.00     0.209 C 
HETATM    7  O   UNL     1      42.322 -14.242   3.492  1.00  0.00    -0.286 OA
HETATM    8  C   UNL     1      43.289 -15.508   5.217  1.00  0.00     0.084 C 
ENDROOT
BRANCH   5   9
HETATM    9  C   UNL     1      41.147 -16.525   2.089  1.00  0.00     0.280 C 
HETATM   10  N   UNL     1      41.659 -15.776   1.043  1.00  0.00    -0.322 N 
HETATM   11  H   UNL     1      42.652 -15.560   1.103  1.00  0.00     0.169 HD
HETATM   12  O   UNL     1      40.082 -17.122   2.123  1.00  0.00    -0.265 OA
BRANCH  10  13
HETATM   13  C   UNL     1      40.941 -15.344  -0.089  1.00  0.00     0.035 A 
HETATM   14  C   UNL     1      39.938 -14.372  -0.015  1.00  0.00     0.039 A 
HETATM   15  C   UNL     1      39.324 -13.947  -1.183  1.00  0.00    -0.022 A 
HETATM   16  C   UNL     1      39.679 -14.478  -2.422  1.00  0.00    -0.025 A 
HETATM   17  C   UNL     1      38.294 -12.882  -1.328  1.00  0.00     0.274 C 
HETATM   18  C   UNL     1      38.905 -13.821  -3.512  1.00  0.00     0.273 C 
HETATM   19  C   UNL     1      40.664 -15.447  -2.516  1.00  0.00     0.012 A 
HETATM   20  N   UNL     1      37.912 -12.900  -2.804  1.00  0.00    -0.067 N 
HETATM   21  H   UNL     1      36.998 -13.365  -2.855  1.00  0.00     0.280 HD
HETATM   22  C   UNL     1      37.796 -11.544  -3.412  1.00  0.00     0.270 C 
HETATM   23  C   UNL     1      41.301 -15.872  -1.342  1.00  0.00     0.030 A 
ENDBRANCH  10  13
ENDBRANCH   5   9
BRANCH   3  24
HETATM   24  C   UNL     1      43.744 -19.193   5.010  1.00  0.00     0.097 A 
HETATM   25  C   UNL     1      44.466 -19.896   4.030  1.00  0.00     0.145 A 
HETATM   26  F   UNL     1      44.730 -19.325   2.842  1.00  0.00    -0.204 F 
HETATM   27  C   UNL     1      44.956 -21.180   4.265  1.00  0.00     0.045 A 
HETATM   28  C   UNL     1      44.717 -21.799   5.489  1.00  0.00     0.003 A 
HETATM   29  C   UNL     1      43.975 -21.137   6.467  1.00  0.00     0.002 A 
HETATM   30  C   UNL     1      43.487 -19.849   6.226  1.00  0.00     0.035 A 
ENDBRANCH   3  24
TORSDOF 3
ENDMDL
MODEL 6
REMARK VINA RESULT:      -8.3      5.092      7.044
REMARK  3 active torsions:
REMARK  status: ('A' for Active; 'I' for Inactive)
REMARK    1  A    between atoms: N_3  and  C_4 
REMARK    2  A    between atoms: C_12  and  C_13 
REMARK       I    between atoms: C_13  and  N_14 
REMARK    3  A    between atoms: N_14  and  C_15 
ROOT
HETATM    1  C   UNL     1      38.725 -10.402   4.721  1.00  0.00     0.070 C 
HETATM    2  C   UNL     1      39.369 -11.769   4.725  1.00  0.00     0.036 C 
HETATM    3  N   UNL     1      40.142 -12.195   5.817  1.00  0.00    -0.235 N 
HETATM    4  N   UNL     1      40.755 -13.426   5.881  1.00  0.00    -0.157 NA
HETATM    5  C   UNL     1      40.659 -14.210   4.845  1.00  0.00     0.195 C 
HETATM    6  C   UNL     1      39.969 -13.781   3.581  1.00  0.00     0.209 C 
HETATM    7  O   UNL     1      40.075 -14.431   2.551  1.00  0.00    -0.286 OA
HETATM    8  C   UNL     1      39.236 -12.514   3.618  1.00  0.00     0.084 C 
ENDROOT
BRANCH   5   9
HETATM    9  C   UNL     1      41.314 -15.569   4.945  1.00  0.00     0.280 C 
HETATM   10  N   UNL     1      42.327 -15.765   4.023  1.00  0.00    -0.322 N 
HETATM   11  H   UNL     1      42.663 -14.925   3.555  1.00  0.00     0.169 HD
HETATM   12  O   UNL     1      40.932 -16.349   5.805  1.00  0.00    -0.265 OA
BRANCH  10  13
HETATM   13  C   UNL     1      42.946 -16.995   3.727  1.00  0.00     0.035 A 
HETATM   14  C   UNL     1      43.530 -17.796   4.714  1.00  0.00     0.039 A 
HETATM   15  C   UNL     1      44.058 -19.028   4.357  1.00  0.00    -0.022 A 
HETATM   16  C   UNL     1      44.026 -19.473   3.037  1.00  0.00    -0.025 A 
HETATM   17  C   UNL     1      44.655 -20.052   5.257  1.00  0.00     0.274 C 
HETATM   18  C   UNL     1      44.614 -20.838   2.933  1.00  0.00     0.273 C 
HETATM   19  C   UNL     1      43.459 -18.692   2.043  1.00  0.00     0.012 A 
HETATM   20  N   UNL     1      45.151 -21.155   4.328  1.00  0.00    -0.067 N 
HETATM   21  H   UNL     1      46.170 -21.047   4.278  1.00  0.00     0.280 HD
HETATM   22  C   UNL     1      44.835 -22.531   4.806  1.00  0.00     0.270 C 
HETATM   23  C   UNL     1      42.910 -17.452   2.398  1.00  0.00     0.030 A 
ENDBRANCH  10  13
ENDBRANCH   5   9
BRANCH   3  24
HETATM   24  C   UNL     1      40.412 -11.384   6.960  1.00  0.00     0.097 A 
HETATM   25  C   UNL     1      39.692 -11.557   8.155  1.00  0.00     0.145 A 
HETATM   26  F   UNL     1      38.732 -12.494   8.238  1.00  0.00    -0.204 F 
HETATM   27  C   UNL     1      39.969 -10.797   9.291  1.00  0.00     0.045 A 
HETATM   28  C   UNL     1      40.968  -9.828   9.249  1.00  0.00     0.003 A 
HETATM   29  C   UNL     1      41.674  -9.612   8.066  1.00  0.00     0.002 A 
HETATM   30  C   UNL     1      41.394 -10.378   6.930  1.00  0.00     0.035 A 
ENDBRANCH   3  24
TORSDOF 3
ENDMDL
MODEL 7
REMARK VINA RESULT:      -8.2      2.744      9.025
REMARK  3 active torsions:
REMARK  status: ('A' for Active; 'I' for Inactive)
REMARK    1  A    between atoms: N_3  and  C_4 
REMARK    2  A    between atoms: C_12  and  C_13 
REMARK       I    between atoms: C_13  and  N_14 
REMARK    3  A    between atoms: N_14  and  C_15 
ROOT
HETATM    1  C   UNL     1      41.749 -18.041   4.937  1.00  0.00     0.070 C 
HETATM    2  C   UNL     1      41.636 -17.394   3.576  1.00  0.00     0.036 C 
HETATM    3  N   UNL     1      42.254 -17.971   2.455  1.00  0.00    -0.235 N 
HETATM    4  N   UNL     1      42.188 -17.431   1.189  1.00  0.00    -0.157 NA
HETATM    5  C   UNL     1      41.570 -16.294   1.042  1.00  0.00     0.195 C 
HETATM    6  C   UNL     1      41.000 -15.538   2.209  1.00  0.00     0.209 C 
HETATM    7  O   UNL     1      40.622 -14.382   2.090  1.00  0.00    -0.286 OA
HETATM    8  C   UNL     1      40.995 -16.218   3.505  1.00  0.00     0.084 C 
ENDROOT
BRANCH   5   9
HETATM    9  C   UNL     1      41.484 -15.732  -0.359  1.00  0.00     0.280 C 
HETATM   10  N   UNL     1      41.818 -14.391  -0.439  1.00  0.00    -0.322 N 
HETATM   11  H   UNL     1      42.289 -14.007   0.377  1.00  0.00     0.169 HD
HETATM   12  O   UNL     1      41.161 -16.473  -1.275  1.00  0.00    -0.265 OA
BRANCH  10  13
HETATM   13  C   UNL     1      41.605 -13.555  -1.552  1.00  0.00     0.035 A 
HETATM   14  C   UNL     1      40.328 -13.289  -2.057  1.00  0.00     0.039 A 
HETATM   15  C   UNL     1      40.192 -12.400  -3.113  1.00  0.00    -0.022 A 
HETATM   16  C   UNL     1      41.301 -11.778  -3.682  1.00  0.00    -0.025 A 
HETATM   17  C   UNL     1      38.927 -11.931  -3.743  1.00  0.00     0.274 C 
HETATM   18  C   UNL     1      40.877 -10.841  -4.761  1.00  0.00     0.273 C 
HETATM   19  C   UNL     1      42.575 -12.033  -3.202  1.00  0.00     0.012 A 
HETATM   20  N   UNL     1      39.369 -11.044  -4.903  1.00  0.00    -0.067 N 
HETATM   21  H   UNL     1      39.230 -11.600  -5.754  1.00  0.00     0.280 HD
HETATM   22  C   UNL     1      38.591  -9.778  -5.021  1.00  0.00     0.270 C 
HETATM   23  C   UNL     1      42.721 -12.919  -2.126  1.00  0.00     0.030 A 
ENDBRANCH  10  13
ENDBRANCH   5   9
BRANCH   3  24
HETATM   24  C   UNL     1      43.050 -19.153   2.510  1.00  0.00     0.097 A 
HETATM   25  C   UNL     1      44.216 -19.202   3.295  1.00  0.00     0.145 A 
HETATM   26  F   UNL     1      44.600 -18.129   4.007  1.00  0.00    -0.204 F 
HETATM   27  C   UNL     1      44.984 -20.362   3.388  1.00  0.00     0.045 A 
HETATM   28  C   UNL     1      44.610 -21.500   2.678  1.00  0.00     0.003 A 
HETATM   29  C   UNL     1      43.477 -21.468   1.866  1.00  0.00     0.002 A 
HETATM   30  C   UNL     1      42.708 -20.303   1.777  1.00  0.00     0.035 A 
ENDBRANCH   3  24
TORSDOF 3
ENDMDL
MODEL 8
REMARK VINA RESULT:      -8.2      2.291      3.984
REMARK  3 active torsions:
REMARK  status: ('A' for Active; 'I' for Inactive)
REMARK    1  A    between atoms: N_3  and  C_4 
REMARK    2  A    between atoms: C_12  and  C_13 
REMARK       I    between atoms: C_13  and  N_14 
REMARK    3  A    between atoms: N_14  and  C_15 
ROOT
HETATM    1  C   UNL     1      40.861 -11.861  -3.855  1.00  0.00     0.070 C 
HETATM    2  C   UNL     1      41.012 -12.858  -2.730  1.00  0.00     0.036 C 
HETATM    3  N   UNL     1      41.577 -12.476  -1.503  1.00  0.00    -0.235 N 
HETATM    4  N   UNL     1      41.741 -13.336  -0.440  1.00  0.00    -0.157 NA
HETATM    5  C   UNL     1      41.409 -14.584  -0.608  1.00  0.00     0.195 C 
HETATM    6  C   UNL     1      40.925 -15.110  -1.931  1.00  0.00     0.209 C 
HETATM    7  O   UNL     1      40.827 -16.311  -2.136  1.00  0.00    -0.286 OA
HETATM    8  C   UNL     1      40.658 -14.127  -2.982  1.00  0.00     0.084 C 
ENDROOT
BRANCH   5   9
HETATM    9  C   UNL     1      41.569 -15.507   0.578  1.00  0.00     0.280 C 
HETATM   10  N   UNL     1      42.877 -15.904   0.799  1.00  0.00    -0.322 N 
HETATM   11  H   UNL     1      43.587 -15.368   0.303  1.00  0.00     0.169 HD
HETATM   12  O   UNL     1      40.583 -15.804   1.235  1.00  0.00    -0.265 OA
BRANCH  10  13
HETATM   13  C   UNL     1      43.291 -16.930   1.669  1.00  0.00     0.035 A 
HETATM   14  C   UNL     1      43.488 -16.718   3.038  1.00  0.00     0.039 A 
HETATM   15  C   UNL     1      43.828 -17.793   3.845  1.00  0.00    -0.022 A 
HETATM   16  C   UNL     1      43.987 -19.072   3.316  1.00  0.00    -0.025 A 
HETATM   17  C   UNL     1      44.010 -17.793   5.322  1.00  0.00     0.274 C 
HETATM   18  C   UNL     1      44.305 -20.047   4.397  1.00  0.00     0.273 C 
HETATM   19  C   UNL     1      43.806 -19.303   1.962  1.00  0.00     0.012 A 
HETATM   20  N   UNL     1      44.464 -19.209   5.664  1.00  0.00    -0.067 N 
HETATM   21  H   UNL     1      45.472 -19.146   5.847  1.00  0.00     0.280 HD
HETATM   22  C   UNL     1      43.792 -19.782   6.865  1.00  0.00     0.270 C 
HETATM   23  C   UNL     1      43.447 -18.224   1.142  1.00  0.00     0.030 A 
ENDBRANCH  10  13
ENDBRANCH   5   9
BRANCH   3  24
HETATM   24  C   UNL     1      42.080 -11.167  -1.237  1.00  0.00     0.097 A 
HETATM   25  C   UNL     1      41.268 -10.189  -0.639  1.00  0.00     0.145 A 
HETATM   26  F   UNL     1      39.996 -10.472  -0.309  1.00  0.00    -0.204 F 
HETATM   27  C   UNL     1      41.757  -8.917  -0.340  1.00  0.00     0.045 A 
HETATM   28  C   UNL     1      43.074  -8.591  -0.652  1.00  0.00     0.003 A 
HETATM   29  C   UNL     1      43.892  -9.533  -1.276  1.00  0.00     0.002 A 
HETATM   30  C   UNL     1      43.397 -10.807  -1.572  1.00  0.00     0.035 A 
ENDBRANCH   3  24
TORSDOF 3
ENDMDL
MODEL 9
REMARK VINA RESULT:      -8.2      2.081      2.654
REMARK  3 active torsions:
REMARK  status: ('A' for Active; 'I' for Inactive)
REMARK    1  A    between atoms: N_3  and  C_4 
REMARK    2  A    between atoms: C_12  and  C_13 
REMARK       I    between atoms: C_13  and  N_14 
REMARK    3  A    between atoms: N_14  and  C_15 
ROOT
HETATM    1  C   UNL     1      39.971 -10.461   0.625  1.00  0.00     0.070 C 
HETATM    2  C   UNL     1      40.250 -11.870   1.093  1.00  0.00     0.036 C 
HETATM    3  N   UNL     1      40.739 -12.839   0.202  1.00  0.00    -0.235 N 
HETATM    4  N   UNL     1      41.012 -14.138   0.566  1.00  0.00    -0.157 NA
HETATM    5  C   UNL     1      40.745 -14.498   1.789  1.00  0.00     0.195 C 
HETATM    6  C   UNL     1      40.092 -13.566   2.771  1.00  0.00     0.209 C 
HETATM    7  O   UNL     1      39.650 -13.976   3.834  1.00  0.00    -0.286 OA
HETATM    8  C   UNL     1      39.939 -12.169   2.363  1.00  0.00     0.084 C 
ENDROOT
BRANCH   5   9
HETATM    9  C   UNL     1      41.078 -15.921   2.179  1.00  0.00     0.280 C 
HETATM   10  N   UNL     1      42.418 -16.117   2.465  1.00  0.00    -0.322 N 
HETATM   11  H   UNL     1      42.966 -15.270   2.603  1.00  0.00     0.169 HD
HETATM   12  O   UNL     1      40.180 -16.747   2.229  1.00  0.00    -0.265 OA
BRANCH  10  13
HETATM   13  C   UNL     1      43.052 -17.364   2.623  1.00  0.00     0.035 A 
HETATM   14  C   UNL     1      43.532 -17.810   3.860  1.00  0.00     0.039 A 
HETATM   15  C   UNL     1      44.082 -19.079   3.952  1.00  0.00    -0.022 A 
HETATM   16  C   UNL     1      44.175 -19.910   2.837  1.00  0.00    -0.025 A 
HETATM   17  C   UNL     1      44.580 -19.763   5.177  1.00  0.00     0.274 C 
HETATM   18  C   UNL     1      44.759 -21.227   3.215  1.00  0.00     0.273 C 
HETATM   19  C   UNL     1      43.714 -19.485   1.601  1.00  0.00     0.012 A 
HETATM   20  N   UNL     1      45.155 -21.087   4.685  1.00  0.00    -0.067 N 
HETATM   21  H   UNL     1      46.174 -20.977   4.701  1.00  0.00     0.280 HD
HETATM   22  C   UNL     1      44.783 -22.256   5.531  1.00  0.00     0.270 C 
HETATM   23  C   UNL     1      43.143 -18.209   1.503  1.00  0.00     0.030 A 
ENDBRANCH  10  13
ENDBRANCH   5   9
BRANCH   3  24
HETATM   24  C   UNL     1      40.965 -12.595  -1.186  1.00  0.00     0.097 A 
HETATM   25  C   UNL     1      42.167 -12.019  -1.631  1.00  0.00     0.145 A 
HETATM   26  F   UNL     1      43.126 -11.685  -0.751  1.00  0.00    -0.204 F 
HETATM   27  C   UNL     1      42.416 -11.808  -2.987  1.00  0.00     0.045 A 
HETATM   28  C   UNL     1      41.454 -12.156  -3.931  1.00  0.00     0.003 A 
HETATM   29  C   UNL     1      40.239 -12.699  -3.514  1.00  0.00     0.002 A 
HETATM   30  C   UNL     1      39.994 -12.910  -2.153  1.00  0.00     0.035 A 
ENDBRANCH   3  24
TORSDOF 3
ENDMDL
MODEL 10
REMARK VINA RESULT:      -8.0      7.818      9.475
REMARK  3 active torsions:
REMARK  status: ('A' for Active; 'I' for Inactive)
REMARK    1  A    between atoms: N_3  and  C_4 
REMARK    2  A    between atoms: C_12  and  C_13 
REMARK       I    between atoms: C_13  and  N_14 
REMARK    3  A    between atoms: N_14  and  C_15 
ROOT
HETATM    1  C   UNL     1      39.356 -13.626   3.207  1.00  0.00     0.070 C 
HETATM    2  C   UNL     1      39.953 -12.788   4.314  1.00  0.00     0.036 C 
HETATM    3  N   UNL     1      41.206 -13.108   4.861  1.00  0.00    -0.235 N 
HETATM    4  N   UNL     1      41.802 -12.386   5.870  1.00  0.00    -0.157 NA
HETATM    5  C   UNL     1      41.138 -11.388   6.381  1.00  0.00     0.195 C 
HETATM    6  C   UNL     1      39.736 -11.059   5.952  1.00  0.00     0.209 C 
HETATM    7  O   UNL     1      39.050 -10.270   6.585  1.00  0.00    -0.286 OA
HETATM    8  C   UNL     1      39.205 -11.784   4.797  1.00  0.00     0.084 C 
ENDROOT
BRANCH   5   9
HETATM    9  C   UNL     1      41.821 -10.589   7.468  1.00  0.00     0.280 C 
HETATM   10  N   UNL     1      42.085 -11.322   8.612  1.00  0.00    -0.322 N 
HETATM   11  H   UNL     1      42.006 -12.332   8.514  1.00  0.00     0.169 HD
HETATM   12  O   UNL     1      42.095  -9.417   7.257  1.00  0.00    -0.265 OA
BRANCH  10  13
HETATM   13  C   UNL     1      42.491 -10.794   9.853  1.00  0.00     0.035 A 
HETATM   14  C   UNL     1      41.617 -10.094  10.692  1.00  0.00     0.039 A 
HETATM   15  C   UNL     1      42.071  -9.665  11.930  1.00  0.00    -0.022 A 
HETATM   16  C   UNL     1      43.378  -9.908  12.346  1.00  0.00    -0.025 A 
HETATM   17  C   UNL     1      41.287  -8.974  12.991  1.00  0.00     0.274 C 
HETATM   18  C   UNL     1      43.593  -9.386  13.725  1.00  0.00     0.273 C 
HETATM   19  C   UNL     1      44.262 -10.592  11.527  1.00  0.00     0.012 A 
HETATM   20  N   UNL     1      42.300  -8.658  14.087  1.00  0.00    -0.067 N 
HETATM   21  H   UNL     1      42.499  -7.654  14.008  1.00  0.00     0.280 HD
HETATM   22  C   UNL     1      41.803  -8.942  15.463  1.00  0.00     0.270 C 
HETATM   23  C   UNL     1      43.808 -11.042  10.280  1.00  0.00     0.030 A 
ENDBRANCH  10  13
ENDBRANCH   5   9
BRANCH   3  24
HETATM   24  C   UNL     1      41.977 -14.241   4.463  1.00  0.00     0.097 A 
HETATM   25  C   UNL     1      42.788 -14.194   3.315  1.00  0.00     0.145 A 
HETATM   26  F   UNL     1      42.847 -13.076   2.571  1.00  0.00    -0.204 F 
HETATM   27  C   UNL     1      43.575 -15.280   2.933  1.00  0.00     0.045 A 
HETATM   28  C   UNL     1      43.553 -16.450   3.688  1.00  0.00     0.003 A 
HETATM   29  C   UNL     1      42.732 -16.535   4.812  1.00  0.00     0.002 A 
HETATM   30  C   UNL     1      41.946 -15.442   5.191  1.00  0.00     0.035 A 
ENDBRANCH   3  24
TORSDOF 3
ENDMDL
