MODEL 1
REMARK VINA RESULT:      -7.6      0.000      0.000
REMARK  4 active torsions:
REMARK  status: ('A' for Active; 'I' for Inactive)
REMARK    1  A    between atoms: C_4  and  C_5 
REMARK       I    between atoms: C_5  and  N_6 
REMARK    2  A    between atoms: N_6  and  C_7 
REMARK    3  A    between atoms: C_7  and  N_8 
REMARK    4  A    between atoms: N_8  and  C_9 
ROOT
HETATM    1  C   UNL     1      42.110 -16.382   4.846  1.00  0.00     0.257 C 
HETATM    2  N   UNL     1      42.708 -16.525   6.093  1.00  0.00    -0.299 N 
HETATM    3  O   UNL     1      41.041 -15.783   4.753  1.00  0.00    -0.267 OA
HETATM    4  H   UNL     1      42.025 -16.249   6.787  1.00  0.00     0.171 HD
ENDROOT
BRANCH   2   5
HETATM    5  C   UNL     1      44.003 -16.153   6.523  1.00  0.00     0.180 C 
HETATM    6  S   UNL     1      44.486 -14.578   6.789  1.00  0.00    -0.040 SA
BRANCH   5   7
HETATM    7  N   UNL     1      44.757 -17.310   6.677  1.00  0.00    -0.318 N 
HETATM    8  H   UNL     1      45.706 -17.187   7.009  1.00  0.00     0.170 HD
BRANCH   7   9
HETATM    9  C   UNL     1      44.495 -18.680   6.568  1.00  0.00     0.129 A 
HETATM   10  N   UNL     1      43.846 -19.148   7.658  1.00  0.00    -0.243 NA
HETATM   11  C   UNL     1      43.553 -20.466   7.699  1.00  0.00     0.119 A 
HETATM   12  C   UNL     1      43.879 -21.359   6.695  1.00  0.00     0.026 A 
HETATM   13  C   UNL     1      44.551 -20.872   5.576  1.00  0.00    -0.057 A 
HETATM   14  C   UNL     1      44.931 -21.802   4.463  1.00  0.00     0.048 C 
HETATM   15  C   UNL     1      44.871 -19.509   5.522  1.00  0.00     0.057 A 
ENDBRANCH   7   9
ENDBRANCH   5   7
ENDBRANCH   2   5
BRANCH   1  16
HETATM   16  C   UNL     1      42.743 -16.984   3.644  1.00  0.00     0.032 A 
HETATM   17  C   UNL     1      42.625 -18.349   3.349  1.00  0.00     0.023 A 
HETATM   18  C   UNL     1      43.223 -18.878   2.196  1.00  0.00    -0.061 A 
HETATM   19  C   UNL     1      43.085 -20.334   1.867  1.00  0.00     0.048 C 
HETATM   20  C   UNL     1      43.906 -18.018   1.325  1.00  0.00     0.007 A 
HETATM   21  C   UNL     1      44.007 -16.656   1.606  1.00  0.00     0.002 A 
HETATM   22  C   UNL     1      43.424 -16.137   2.761  1.00  0.00     0.017 A 
ENDBRANCH   1  16
TORSDOF 4
ENDMDL
MODEL 2
REMARK VINA RESULT:      -7.2      1.802      2.604
REMARK  4 active torsions:
REMARK  status: ('A' for Active; 'I' for Inactive)
REMARK    1  A    between atoms: C_4  and  C_5 
REMARK       I    between atoms: C_5  and  N_6 
REMARK    2  A    between atoms: N_6  and  C_7 
REMARK    3  A    between atoms: C_7  and  N_8 
REMARK    4  A    between atoms: N_8  and  C_9 
ROOT
HETATM    1  C   UNL     1      40.682 -16.315   2.451  1.00  0.00     0.257 C 
HETATM    2  N   UNL     1      40.243 -16.099   3.753  1.00  0.00    -0.299 N 
HETATM    3  O   UNL     1      40.003 -15.909   1.510  1.00  0.00    -0.267 OA
HETATM    4  H   UNL     1      39.284 -15.780   3.698  1.00  0.00     0.171 HD
ENDROOT
BRANCH   2   5
HETATM    5  C   UNL     1      40.898 -15.461   4.833  1.00  0.00     0.180 C 
HETATM    6  S   UNL     1      41.064 -13.807   4.985  1.00  0.00    -0.040 SA
BRANCH   5   7
HETATM    7  N   UNL     1      41.350 -16.443   5.706  1.00  0.00    -0.318 N 
HETATM    8  H   UNL     1      40.658 -16.853   6.320  1.00  0.00     0.170 HD
BRANCH   7   9
HETATM    9  C   UNL     1      42.567 -17.107   5.898  1.00  0.00     0.129 A 
HETATM   10  N   UNL     1      43.476 -16.310   6.504  1.00  0.00    -0.243 NA
HETATM   11  C   UNL     1      44.708 -16.815   6.727  1.00  0.00     0.119 A 
HETATM   12  C   UNL     1      45.091 -18.095   6.373  1.00  0.00     0.026 A 
HETATM   13  C   UNL     1      44.153 -18.911   5.745  1.00  0.00    -0.057 A 
HETATM   14  C   UNL     1      44.522 -20.305   5.336  1.00  0.00     0.048 C 
HETATM   15  C   UNL     1      42.873 -18.399   5.497  1.00  0.00     0.057 A 
ENDBRANCH   7   9
ENDBRANCH   5   7
ENDBRANCH   2   5
BRANCH   1  16
HETATM   16  C   UNL     1      41.940 -17.064   2.205  1.00  0.00     0.032 A 
HETATM   17  C   UNL     1      41.975 -18.465   2.179  1.00  0.00     0.023 A 
HETATM   18  C   UNL     1      43.180 -19.138   1.927  1.00  0.00    -0.061 A 
HETATM   19  C   UNL     1      43.220 -20.637   1.882  1.00  0.00     0.048 C 
HETATM   20  C   UNL     1      44.337 -18.392   1.662  1.00  0.00     0.007 A 
HETATM   21  C   UNL     1      44.299 -16.998   1.667  1.00  0.00     0.002 A 
HETATM   22  C   UNL     1      43.103 -16.334   1.934  1.00  0.00     0.017 A 
ENDBRANCH   1  16
TORSDOF 4
ENDMDL
MODEL 3
REMARK VINA RESULT:      -6.8      2.300      4.802
REMARK  4 active torsions:
REMARK  status: ('A' for Active; 'I' for Inactive)
REMARK    1  A    between atoms: C_4  and  C_5 
REMARK       I    between atoms: C_5  and  N_6 
REMARK    2  A    between atoms: N_6  and  C_7 
REMARK    3  A    between atoms: C_7  and  N_8 
REMARK    4  A    between atoms: N_8  and  C_9 
ROOT
HETATM    1  C   UNL     1      43.561 -15.015   5.836  1.00  0.00     0.257 C 
HETATM    2  N   UNL     1      42.677 -14.800   4.785  1.00  0.00    -0.299 N 
HETATM    3  O   UNL     1      44.227 -14.076   6.267  1.00  0.00    -0.267 OA
HETATM    4  H   UNL     1      42.876 -13.882   4.407  1.00  0.00     0.171 HD
ENDROOT
BRANCH   2   5
HETATM    5  C   UNL     1      41.287 -15.058   4.704  1.00  0.00     0.180 C 
HETATM    6  S   UNL     1      40.123 -14.182   5.519  1.00  0.00    -0.040 SA
BRANCH   5   7
HETATM    7  N   UNL     1      41.096 -16.134   3.848  1.00  0.00    -0.318 N 
HETATM    8  H   UNL     1      40.150 -16.486   3.773  1.00  0.00     0.170 HD
BRANCH   7   9
HETATM    9  C   UNL     1      41.906 -16.834   2.947  1.00  0.00     0.129 A 
HETATM   10  N   UNL     1      42.347 -16.033   1.950  1.00  0.00    -0.243 NA
HETATM   11  C   UNL     1      43.119 -16.588   0.991  1.00  0.00     0.119 A 
HETATM   12  C   UNL     1      43.483 -17.921   0.971  1.00  0.00     0.026 A 
HETATM   13  C   UNL     1      43.025 -18.742   1.998  1.00  0.00    -0.057 A 
HETATM   14  C   UNL     1      43.388 -20.197   2.017  1.00  0.00     0.048 C 
HETATM   15  C   UNL     1      42.214 -18.186   2.995  1.00  0.00     0.057 A 
ENDBRANCH   7   9
ENDBRANCH   5   7
ENDBRANCH   2   5
BRANCH   1  16
HETATM   16  C   UNL     1      43.724 -16.378   6.404  1.00  0.00     0.032 A 
HETATM   17  C   UNL     1      44.171 -17.455   5.628  1.00  0.00     0.023 A 
HETATM   18  C   UNL     1      44.328 -18.724   6.204  1.00  0.00    -0.061 A 
HETATM   19  C   UNL     1      44.823 -19.877   5.382  1.00  0.00     0.048 C 
HETATM   20  C   UNL     1      44.071 -18.891   7.571  1.00  0.00     0.007 A 
HETATM   21  C   UNL     1      43.645 -17.815   8.350  1.00  0.00     0.002 A 
HETATM   22  C   UNL     1      43.475 -16.559   7.770  1.00  0.00     0.017 A 
ENDBRANCH   1  16
TORSDOF 4
ENDMDL
MODEL 4
REMARK VINA RESULT:      -6.8      1.683      2.385
REMARK  4 active torsions:
REMARK  status: ('A' for Active; 'I' for Inactive)
REMARK    1  A    between atoms: C_4  and  C_5 
REMARK       I    between atoms: C_5  and  N_6 
REMARK    2  A    between atoms: N_6  and  C_7 
REMARK    3  A    between atoms: C_7  and  N_8 
REMARK    4  A    between atoms: N_8  and  C_9 
ROOT
HETATM    1  C   UNL     1      42.466 -13.828   4.824  1.00  0.00     0.257 C 
HETATM    2  N   UNL     1      42.806 -13.865   6.172  1.00  0.00    -0.299 N 
HETATM    3  O   UNL     1      42.253 -12.744   4.285  1.00  0.00    -0.267 OA
HETATM    4  H   UNL     1      42.634 -12.942   6.552  1.00  0.00     0.171 HD
ENDROOT
BRANCH   2   5
HETATM    5  C   UNL     1      43.935 -14.437   6.804  1.00  0.00     0.180 C 
HETATM    6  S   UNL     1      45.451 -13.740   6.826  1.00  0.00    -0.040 SA
BRANCH   5   7
HETATM    7  N   UNL     1      43.546 -15.640   7.380  1.00  0.00    -0.318 N 
HETATM    8  H   UNL     1      42.915 -15.577   8.170  1.00  0.00     0.170 HD
BRANCH   7   9
HETATM    9  C   UNL     1      43.744 -16.990   7.073  1.00  0.00     0.129 A 
HETATM   10  N   UNL     1      43.569 -17.777   8.159  1.00  0.00    -0.243 NA
HETATM   11  C   UNL     1      43.758 -19.106   8.013  1.00  0.00     0.119 A 
HETATM   12  C   UNL     1      44.119 -19.705   6.821  1.00  0.00     0.026 A 
HETATM   13  C   UNL     1      44.302 -18.891   5.706  1.00  0.00    -0.057 A 
HETATM   14  C   UNL     1      44.699 -19.493   4.391  1.00  0.00     0.048 C 
HETATM   15  C   UNL     1      44.120 -17.509   5.843  1.00  0.00     0.057 A 
ENDBRANCH   7   9
ENDBRANCH   5   7
ENDBRANCH   2   5
BRANCH   1  16
HETATM   16  C   UNL     1      42.324 -15.092   4.058  1.00  0.00     0.032 A 
HETATM   17  C   UNL     1      43.278 -15.497   3.114  1.00  0.00     0.023 A 
HETATM   18  C   UNL     1      43.117 -16.706   2.421  1.00  0.00    -0.061 A 
HETATM   19  C   UNL     1      44.144 -17.152   1.422  1.00  0.00     0.048 C 
HETATM   20  C   UNL     1      42.015 -17.521   2.713  1.00  0.00     0.007 A 
HETATM   21  C   UNL     1      41.076 -17.129   3.668  1.00  0.00     0.002 A 
HETATM   22  C   UNL     1      41.231 -15.919   4.342  1.00  0.00     0.017 A 
ENDBRANCH   1  16
TORSDOF 4
ENDMDL
MODEL 5
REMARK VINA RESULT:      -6.8      2.366      4.646
REMARK  4 active torsions:
REMARK  status: ('A' for Active; 'I' for Inactive)
REMARK    1  A    between atoms: C_4  and  C_5 
REMARK       I    between atoms: C_5  and  N_6 
REMARK    2  A    between atoms: N_6  and  C_7 
REMARK    3  A    between atoms: C_7  and  N_8 
REMARK    4  A    between atoms: N_8  and  C_9 
ROOT
HETATM    1  C   UNL     1      41.203 -16.562   6.380  1.00  0.00     0.257 C 
HETATM    2  N   UNL     1      41.107 -15.177   6.308  1.00  0.00    -0.299 N 
HETATM    3  O   UNL     1      40.197 -17.226   6.618  1.00  0.00    -0.267 OA
HETATM    4  H   UNL     1      40.196 -14.919   6.666  1.00  0.00     0.171 HD
ENDROOT
BRANCH   2   5
HETATM    5  C   UNL     1      41.474 -14.298   5.261  1.00  0.00     0.180 C 
HETATM    6  S   UNL     1      42.414 -12.934   5.469  1.00  0.00    -0.040 SA
BRANCH   5   7
HETATM    7  N   UNL     1      40.923 -14.777   4.080  1.00  0.00    -0.318 N 
HETATM    8  H   UNL     1      40.046 -14.361   3.791  1.00  0.00     0.170 HD
BRANCH   7   9
HETATM    9  C   UNL     1      41.340 -15.674   3.090  1.00  0.00     0.129 A 
HETATM   10  N   UNL     1      40.287 -16.262   2.478  1.00  0.00    -0.243 NA
HETATM   11  C   UNL     1      40.545 -17.175   1.517  1.00  0.00     0.119 A 
HETATM   12  C   UNL     1      41.819 -17.541   1.125  1.00  0.00     0.026 A 
HETATM   13  C   UNL     1      42.900 -16.935   1.760  1.00  0.00    -0.057 A 
HETATM   14  C   UNL     1      44.302 -17.302   1.375  1.00  0.00     0.048 C 
HETATM   15  C   UNL     1      42.650 -15.993   2.767  1.00  0.00     0.057 A 
ENDBRANCH   7   9
ENDBRANCH   5   7
ENDBRANCH   2   5
BRANCH   1  16
HETATM   16  C   UNL     1      42.521 -17.225   6.209  1.00  0.00     0.032 A 
HETATM   17  C   UNL     1      42.723 -18.240   5.263  1.00  0.00     0.023 A 
HETATM   18  C   UNL     1      43.986 -18.832   5.119  1.00  0.00    -0.061 A 
HETATM   19  C   UNL     1      44.211 -19.906   4.097  1.00  0.00     0.048 C 
HETATM   20  C   UNL     1      45.051 -18.369   5.903  1.00  0.00     0.007 A 
HETATM   21  C   UNL     1      44.857 -17.345   6.830  1.00  0.00     0.002 A 
HETATM   22  C   UNL     1      43.596 -16.771   6.981  1.00  0.00     0.017 A 
ENDBRANCH   1  16
TORSDOF 4
ENDMDL
MODEL 6
REMARK VINA RESULT:      -6.6      2.542      4.316
REMARK  4 active torsions:
REMARK  status: ('A' for Active; 'I' for Inactive)
REMARK    1  A    between atoms: C_4  and  C_5 
REMARK       I    between atoms: C_5  and  N_6 
REMARK    2  A    between atoms: N_6  and  C_7 
REMARK    3  A    between atoms: C_7  and  N_8 
REMARK    4  A    between atoms: N_8  and  C_9 
ROOT
HETATM    1  C   UNL     1      42.037 -14.268   3.810  1.00  0.00     0.257 C 
HETATM    2  N   UNL     1      42.247 -14.943   2.613  1.00  0.00    -0.299 N 
HETATM    3  O   UNL     1      41.272 -13.306   3.836  1.00  0.00    -0.267 OA
HETATM    4  H   UNL     1      41.844 -14.379   1.875  1.00  0.00     0.171 HD
ENDROOT
BRANCH   2   5
HETATM    5  C   UNL     1      42.083 -16.315   2.308  1.00  0.00     0.180 C 
HETATM    6  S   UNL     1      40.647 -16.998   1.801  1.00  0.00    -0.040 SA
BRANCH   5   7
HETATM    7  N   UNL     1      43.303 -16.950   2.502  1.00  0.00    -0.318 N 
HETATM    8  H   UNL     1      44.126 -16.361   2.475  1.00  0.00     0.170 HD
BRANCH   7   9
HETATM    9  C   UNL     1      43.696 -18.252   2.830  1.00  0.00     0.129 A 
HETATM   10  N   UNL     1      44.197 -18.317   4.085  1.00  0.00    -0.243 NA
HETATM   11  C   UNL     1      44.643 -19.514   4.524  1.00  0.00     0.119 A 
HETATM   12  C   UNL     1      44.615 -20.671   3.767  1.00  0.00     0.026 A 
HETATM   13  C   UNL     1      44.102 -20.598   2.475  1.00  0.00    -0.057 A 
HETATM   14  C   UNL     1      44.056 -21.824   1.613  1.00  0.00     0.048 C 
HETATM   15  C   UNL     1      43.645 -19.362   2.000  1.00  0.00     0.057 A 
ENDBRANCH   7   9
ENDBRANCH   5   7
ENDBRANCH   2   5
BRANCH   1  16
HETATM   16  C   UNL     1      42.763 -14.685   5.037  1.00  0.00     0.032 A 
HETATM   17  C   UNL     1      42.411 -15.839   5.750  1.00  0.00     0.023 A 
HETATM   18  C   UNL     1      43.131 -16.210   6.895  1.00  0.00    -0.061 A 
HETATM   19  C   UNL     1      42.769 -17.453   7.652  1.00  0.00     0.048 C 
HETATM   20  C   UNL     1      44.229 -15.436   7.292  1.00  0.00     0.007 A 
HETATM   21  C   UNL     1      44.594 -14.298   6.572  1.00  0.00     0.002 A 
HETATM   22  C   UNL     1      43.866 -13.925   5.444  1.00  0.00     0.017 A 
ENDBRANCH   1  16
TORSDOF 4
ENDMDL
MODEL 7
REMARK VINA RESULT:      -6.6      4.105      5.939
REMARK  4 active torsions:
REMARK  status: ('A' for Active; 'I' for Inactive)
REMARK    1  A    between atoms: C_4  and  C_5 
REMARK       I    between atoms: C_5  and  N_6 
REMARK    2  A    between atoms: N_6  and  C_7 
REMARK    3  A    between atoms: C_7  and  N_8 
REMARK    4  A    between atoms: N_8  and  C_9 
ROOT
HETATM    1  C   UNL     1      42.117 -13.094   1.321  1.00  0.00     0.257 C 
HETATM    2  N   UNL     1      41.650 -13.989   0.365  1.00  0.00    -0.299 N 
HETATM    3  O   UNL     1      42.484 -11.975   0.973  1.00  0.00    -0.267 OA
HETATM    4  H   UNL     1      41.875 -13.603  -0.544  1.00  0.00     0.171 HD
ENDROOT
BRANCH   2   5
HETATM    5  C   UNL     1      40.416 -14.679   0.297  1.00  0.00     0.180 C 
HETATM    6  S   UNL     1      38.960 -13.959  -0.087  1.00  0.00    -0.040 SA
BRANCH   5   7
HETATM    7  N   UNL     1      40.650 -16.015   0.597  1.00  0.00    -0.318 N 
HETATM    8  H   UNL     1      40.152 -16.695   0.037  1.00  0.00     0.170 HD
BRANCH   7   9
HETATM    9  C   UNL     1      41.513 -16.695   1.464  1.00  0.00     0.129 A 
HETATM   10  N   UNL     1      42.672 -17.024   0.851  1.00  0.00    -0.243 NA
HETATM   11  C   UNL     1      43.590 -17.712   1.566  1.00  0.00     0.119 A 
HETATM   12  C   UNL     1      43.410 -18.095   2.882  1.00  0.00     0.026 A 
HETATM   13  C   UNL     1      42.213 -17.757   3.507  1.00  0.00    -0.057 A 
HETATM   14  C   UNL     1      41.969 -18.155   4.932  1.00  0.00     0.048 C 
HETATM   15  C   UNL     1      41.247 -17.052   2.777  1.00  0.00     0.057 A 
ENDBRANCH   7   9
ENDBRANCH   5   7
ENDBRANCH   2   5
BRANCH   1  16
HETATM   16  C   UNL     1      42.205 -13.507   2.745  1.00  0.00     0.032 A 
HETATM   17  C   UNL     1      41.092 -13.475   3.597  1.00  0.00     0.023 A 
HETATM   18  C   UNL     1      41.211 -13.887   4.932  1.00  0.00    -0.061 A 
HETATM   19  C   UNL     1      40.019 -13.871   5.843  1.00  0.00     0.048 C 
HETATM   20  C   UNL     1      42.444 -14.370   5.391  1.00  0.00     0.007 A 
HETATM   21  C   UNL     1      43.547 -14.423   4.539  1.00  0.00     0.002 A 
HETATM   22  C   UNL     1      43.429 -13.996   3.217  1.00  0.00     0.017 A 
ENDBRANCH   1  16
TORSDOF 4
ENDMDL
MODEL 8
REMARK VINA RESULT:      -6.6      1.723      2.510
REMARK  4 active torsions:
REMARK  status: ('A' for Active; 'I' for Inactive)
REMARK    1  A    between atoms: C_4  and  C_5 
REMARK       I    between atoms: C_5  and  N_6 
REMARK    2  A    between atoms: N_6  and  C_7 
REMARK    3  A    between atoms: C_7  and  N_8 
REMARK    4  A    between atoms: N_8  and  C_9 
ROOT
HETATM    1  C   UNL     1      41.332 -14.918   5.671  1.00  0.00     0.257 C 
HETATM    2  N   UNL     1      42.075 -15.672   6.572  1.00  0.00    -0.299 N 
HETATM    3  O   UNL     1      40.465 -14.155   6.093  1.00  0.00    -0.267 OA
HETATM    4  H   UNL     1      41.623 -15.595   7.474  1.00  0.00     0.171 HD
ENDROOT
BRANCH   2   5
HETATM    5  C   UNL     1      43.477 -15.751   6.746  1.00  0.00     0.180 C 
HETATM    6  S   UNL     1      44.472 -14.425   6.947  1.00  0.00    -0.040 SA
BRANCH   5   7
HETATM    7  N   UNL     1      43.842 -17.091   6.721  1.00  0.00    -0.318 N 
HETATM    8  H   UNL     1      43.959 -17.541   7.620  1.00  0.00     0.170 HD
BRANCH   7   9
HETATM    9  C   UNL     1      44.012 -18.048   5.715  1.00  0.00     0.129 A 
HETATM   10  N   UNL     1      44.361 -19.250   6.228  1.00  0.00    -0.243 NA
HETATM   11  C   UNL     1      44.585 -20.263   5.364  1.00  0.00     0.119 A 
HETATM   12  C   UNL     1      44.479 -20.141   3.991  1.00  0.00     0.026 A 
HETATM   13  C   UNL     1      44.123 -18.901   3.467  1.00  0.00    -0.057 A 
HETATM   14  C   UNL     1      44.000 -18.718   1.984  1.00  0.00     0.048 C 
HETATM   15  C   UNL     1      43.897 -17.837   4.349  1.00  0.00     0.057 A 
ENDBRANCH   7   9
ENDBRANCH   5   7
ENDBRANCH   2   5
BRANCH   1  16
HETATM   16  C   UNL     1      41.562 -15.064   4.211  1.00  0.00     0.032 A 
HETATM   17  C   UNL     1      41.021 -16.130   3.479  1.00  0.00     0.023 A 
HETATM   18  C   UNL     1      41.246 -16.227   2.098  1.00  0.00    -0.061 A 
HETATM   19  C   UNL     1      40.656 -17.356   1.307  1.00  0.00     0.048 C 
HETATM   20  C   UNL     1      41.984 -15.224   1.455  1.00  0.00     0.007 A 
HETATM   21  C   UNL     1      42.505 -14.151   2.178  1.00  0.00     0.002 A 
HETATM   22  C   UNL     1      42.292 -14.068   3.553  1.00  0.00     0.017 A 
ENDBRANCH   1  16
TORSDOF 4
ENDMDL
MODEL 9
REMARK VINA RESULT:      -6.5      2.138      2.765
REMARK  4 active torsions:
REMARK  status: ('A' for Active; 'I' for Inactive)
REMARK    1  A    between atoms: C_4  and  C_5 
REMARK       I    between atoms: C_5  and  N_6 
REMARK    2  A    between atoms: N_6  and  C_7 
REMARK    3  A    between atoms: C_7  and  N_8 
REMARK    4  A    between atoms: N_8  and  C_9 
ROOT
HETATM    1  C   UNL     1      43.434 -14.126   3.645  1.00  0.00     0.257 C 
HETATM    2  N   UNL     1      42.528 -13.746   4.628  1.00  0.00    -0.299 N 
HETATM    3  O   UNL     1      44.556 -13.625   3.632  1.00  0.00    -0.267 OA
HETATM    4  H   UNL     1      42.911 -12.931   5.092  1.00  0.00     0.171 HD
ENDROOT
BRANCH   2   5
HETATM    5  C   UNL     1      41.822 -14.539   5.564  1.00  0.00     0.180 C 
HETATM    6  S   UNL     1      40.164 -14.736   5.564  1.00  0.00    -0.040 SA
BRANCH   5   7
HETATM    7  N   UNL     1      42.743 -15.099   6.440  1.00  0.00    -0.318 N 
HETATM    8  H   UNL     1      43.111 -14.486   7.157  1.00  0.00     0.170 HD
BRANCH   7   9
HETATM    9  C   UNL     1      43.251 -16.386   6.647  1.00  0.00     0.129 A 
HETATM   10  N   UNL     1      43.235 -16.720   7.957  1.00  0.00    -0.243 NA
HETATM   11  C   UNL     1      43.725 -17.930   8.305  1.00  0.00     0.119 A 
HETATM   12  C   UNL     1      44.240 -18.840   7.402  1.00  0.00     0.026 A 
HETATM   13  C   UNL     1      44.258 -18.490   6.054  1.00  0.00    -0.057 A 
HETATM   14  C   UNL     1      44.811 -19.442   5.036  1.00  0.00     0.048 C 
HETATM   15  C   UNL     1      43.763 -17.235   5.677  1.00  0.00     0.057 A 
ENDBRANCH   7   9
ENDBRANCH   5   7
ENDBRANCH   2   5
BRANCH   1  16
HETATM   16  C   UNL     1      43.031 -15.101   2.599  1.00  0.00     0.032 A 
HETATM   17  C   UNL     1      43.562 -16.397   2.550  1.00  0.00     0.023 A 
HETATM   18  C   UNL     1      43.145 -17.295   1.557  1.00  0.00    -0.061 A 
HETATM   19  C   UNL     1      43.698 -18.689   1.511  1.00  0.00     0.048 C 
HETATM   20  C   UNL     1      42.164 -16.894   0.641  1.00  0.00     0.007 A 
HETATM   21  C   UNL     1      41.619 -15.611   0.701  1.00  0.00     0.002 A 
HETATM   22  C   UNL     1      42.048 -14.716   1.680  1.00  0.00     0.017 A 
ENDBRANCH   1  16
TORSDOF 4
ENDMDL
MODEL 10
REMARK VINA RESULT:      -6.5      3.393      5.153
REMARK  4 active torsions:
REMARK  status: ('A' for Active; 'I' for Inactive)
REMARK    1  A    between atoms: C_4  and  C_5 
REMARK       I    between atoms: C_5  and  N_6 
REMARK    2  A    between atoms: N_6  and  C_7 
REMARK    3  A    between atoms: C_7  and  N_8 
REMARK    4  A    between atoms: N_8  and  C_9 
ROOT
HETATM    1  C   UNL     1      41.637 -14.106   3.785  1.00  0.00     0.257 C 
HETATM    2  N   UNL     1      41.310 -14.489   2.489  1.00  0.00    -0.299 N 
HETATM    3  O   UNL     1      41.808 -12.916   4.037  1.00  0.00    -0.267 OA
HETATM    4  H   UNL     1      41.453 -13.685   1.892  1.00  0.00     0.171 HD
ENDROOT
BRANCH   2   5
HETATM    5  C   UNL     1      40.207 -15.241   2.019  1.00  0.00     0.180 C 
HETATM    6  S   UNL     1      38.714 -14.588   1.655  1.00  0.00    -0.040 SA
BRANCH   5   7
HETATM    7  N   UNL     1      40.598 -16.570   1.922  1.00  0.00    -0.318 N 
HETATM    8  H   UNL     1      39.883 -17.230   1.641  1.00  0.00     0.170 HD
BRANCH   7   9
HETATM    9  C   UNL     1      41.815 -17.251   2.035  1.00  0.00     0.129 A 
HETATM   10  N   UNL     1      42.605 -17.036   0.958  1.00  0.00    -0.243 NA
HETATM   11  C   UNL     1      43.804 -17.657   0.922  1.00  0.00     0.119 A 
HETATM   12  C   UNL     1      44.266 -18.496   1.918  1.00  0.00     0.026 A 
HETATM   13  C   UNL     1      43.448 -18.717   3.023  1.00  0.00    -0.057 A 
HETATM   14  C   UNL     1      43.903 -19.623   4.128  1.00  0.00     0.048 C 
HETATM   15  C   UNL     1      42.197 -18.088   3.072  1.00  0.00     0.057 A 
ENDBRANCH   7   9
ENDBRANCH   5   7
ENDBRANCH   2   5
BRANCH   1  16
HETATM   16  C   UNL     1      41.815 -15.134   4.842  1.00  0.00     0.032 A 
HETATM   17  C   UNL     1      43.085 -15.560   5.254  1.00  0.00     0.023 A 
HETATM   18  C   UNL     1      43.214 -16.522   6.267  1.00  0.00    -0.061 A 
HETATM   19  C   UNL     1      44.571 -16.968   6.724  1.00  0.00     0.048 C 
HETATM   20  C   UNL     1      42.061 -17.020   6.887  1.00  0.00     0.007 A 
HETATM   21  C   UNL     1      40.797 -16.582   6.492  1.00  0.00     0.002 A 
HETATM   22  C   UNL     1      40.673 -15.638   5.474  1.00  0.00     0.017 A 
ENDBRANCH   1  16
TORSDOF 4
ENDMDL
