MODEL 1
REMARK VINA RESULT:      -9.1      0.000      0.000
REMARK  8 active torsions:
REMARK  status: ('A' for Active; 'I' for Inactive)
REMARK    1  A    between atoms: C_2  and  C_3 
REMARK    2  A    between atoms: N_4  and  C_5 
REMARK    3  A    between atoms: C_5  and  C_6 
REMARK    4  A    between atoms: C_14  and  C_15 
REMARK       I    between atoms: C_15  and  N_16 
REMARK    5  A    between atoms: N_16  and  N_17 
REMARK       I    between atoms: N_17  and  C_18 
REMARK    6  A    between atoms: C_18  and  C_19 
REMARK    7  A    between atoms: C_23  and  C_24 
REMARK    8  A    between atoms: C_27  and  O_28 
ROOT
HETATM    1  C   UNL     1      44.175 -12.489   8.698  1.00  0.00     0.273 C 
HETATM    2  N   UNL     1      43.344 -12.587   7.603  1.00  0.00    -0.263 N 
HETATM    3  O   UNL     1      45.100 -13.288   8.856  1.00  0.00    -0.266 OA
HETATM    4  H   UNL     1      42.613 -11.925   7.373  1.00  0.00     0.190 HD
ENDROOT
BRANCH   2   5
HETATM    5  N   UNL     1      43.583 -13.609   6.675  1.00  0.00    -0.262 N 
HETATM    6  C   UNL     1      42.779 -13.708   5.561  1.00  0.00     0.288 C 
HETATM    7  O   UNL     1      41.898 -12.882   5.323  1.00  0.00    -0.264 OA
HETATM    8  H   UNL     1      44.270 -14.310   6.943  1.00  0.00     0.190 HD
BRANCH   6   9
HETATM    9  C   UNL     1      43.044 -14.831   4.707  1.00  0.00     0.121 A 
HETATM   10  N   UNL     1      43.216 -14.685   3.359  1.00  0.00    -0.272 N 
HETATM   11  H   UNL     1      43.174 -13.821   2.828  1.00  0.00     0.189 HD
HETATM   12  N   UNL     1      43.478 -15.829   2.711  1.00  0.00    -0.174 NA
HETATM   13  C   UNL     1      43.469 -16.774   3.665  1.00  0.00     0.089 A 
HETATM   14  C   UNL     1      43.195 -16.185   4.933  1.00  0.00     0.071 A 
BRANCH  13  15
HETATM   15  C   UNL     1      43.735 -18.184   3.357  1.00  0.00    -0.005 A 
HETATM   16  C   UNL     1      44.332 -19.019   4.309  1.00  0.00     0.016 A 
HETATM   17  C   UNL     1      44.562 -20.370   4.033  1.00  0.00     0.037 A 
HETATM   18  C   UNL     1      44.204 -20.915   2.799  1.00  0.00     0.068 A 
HETATM   19  C   UNL     1      43.625 -20.089   1.836  1.00  0.00     0.037 A 
HETATM   20  C   UNL     1      43.391 -18.735   2.114  1.00  0.00     0.016 A 
BRANCH  18  21
HETATM   21  O   UNL     1      44.474 -22.248   2.661  1.00  0.00    -0.356 OA
HETATM   22  C   UNL     1      44.706 -22.985   3.855  1.00  0.00     0.210 C 
ENDBRANCH  18  21
ENDBRANCH  13  15
ENDBRANCH   6   9
ENDBRANCH   2   5
BRANCH   1  23
HETATM   23  C   UNL     1      43.929 -11.405   9.639  1.00  0.00     0.077 A 
HETATM   24  C   UNL     1      42.886 -10.488   9.788  1.00  0.00     0.048 A 
HETATM   25  N   UNL     1      43.228  -9.716  10.887  1.00  0.00    -0.269 N 
HETATM   26  N   UNL     1      44.394 -10.085  11.454  1.00  0.00    -0.183 NA
HETATM   27  C   UNL     1      44.811 -11.096  10.701  1.00  0.00     0.158 A 
BRANCH  24  28
HETATM   28  C   UNL     1      41.609 -10.278   9.034  1.00  0.00     0.055 C 
HETATM   29  C   UNL     1      40.428 -10.973   9.696  1.00  0.00     0.011 C 
ENDBRANCH  24  28
BRANCH  25  30
HETATM   30  C   UNL     1      42.467  -8.647  11.536  1.00  0.00     0.189 C 
BRANCH  30  31
HETATM   31  C   UNL     1      42.318  -8.834  13.027  1.00  0.00    -0.038 A 
HETATM   32  C   UNL     1      42.064  -7.726  13.849  1.00  0.00     0.009 A 
HETATM   33  C   UNL     1      41.872  -7.888  15.224  1.00  0.00     0.001 A 
HETATM   34  C   UNL     1      41.923  -9.160  15.790  1.00  0.00     0.000 A 
HETATM   35  C   UNL     1      42.158 -10.270  14.985  1.00  0.00     0.001 A 
HETATM   36  C   UNL     1      42.346 -10.111  13.611  1.00  0.00     0.009 A 
ENDBRANCH  30  31
ENDBRANCH  25  30
ENDBRANCH   1  23
TORSDOF 8
ENDMDL
MODEL 2
REMARK VINA RESULT:      -9.0      7.963     12.234
REMARK  8 active torsions:
REMARK  status: ('A' for Active; 'I' for Inactive)
REMARK    1  A    between atoms: C_2  and  C_3 
REMARK    2  A    between atoms: N_4  and  C_5 
REMARK    3  A    between atoms: C_5  and  C_6 
REMARK    4  A    between atoms: C_14  and  C_15 
REMARK       I    between atoms: C_15  and  N_16 
REMARK    5  A    between atoms: N_16  and  N_17 
REMARK       I    between atoms: N_17  and  C_18 
REMARK    6  A    between atoms: C_18  and  C_19 
REMARK    7  A    between atoms: C_23  and  C_24 
REMARK    8  A    between atoms: C_27  and  O_28 
ROOT
HETATM    1  C   UNL     1      40.580 -16.031   2.395  1.00  0.00     0.273 C 
HETATM    2  N   UNL     1      40.699 -16.174   1.030  1.00  0.00    -0.263 N 
HETATM    3  O   UNL     1      39.740 -15.267   2.874  1.00  0.00    -0.266 OA
HETATM    4  H   UNL     1      41.315 -16.834   0.571  1.00  0.00     0.190 HD
ENDROOT
BRANCH   2   5
HETATM    5  N   UNL     1      39.838 -15.437   0.206  1.00  0.00    -0.262 N 
HETATM    6  C   UNL     1      40.366 -14.709  -0.838  1.00  0.00     0.288 C 
HETATM    7  O   UNL     1      41.566 -14.742  -1.109  1.00  0.00    -0.264 OA
HETATM    8  H   UNL     1      38.868 -15.379   0.504  1.00  0.00     0.190 HD
BRANCH   6   9
HETATM    9  C   UNL     1      39.422 -13.921  -1.579  1.00  0.00     0.121 A 
HETATM   10  N   UNL     1      39.468 -12.555  -1.579  1.00  0.00    -0.272 N 
HETATM   11  H   UNL     1      40.129 -11.967  -1.081  1.00  0.00     0.189 HD
HETATM   12  N   UNL     1      38.531 -11.973  -2.340  1.00  0.00    -0.174 NA
HETATM   13  C   UNL     1      37.828 -12.993  -2.859  1.00  0.00     0.089 A 
HETATM   14  C   UNL     1      38.356 -14.234  -2.399  1.00  0.00     0.071 A 
BRANCH  13  15
HETATM   15  C   UNL     1      36.704 -12.767  -3.776  1.00  0.00    -0.005 A 
HETATM   16  C   UNL     1      36.195 -13.820  -4.547  1.00  0.00     0.016 A 
HETATM   17  C   UNL     1      35.106 -13.619  -5.401  1.00  0.00     0.037 A 
HETATM   18  C   UNL     1      34.506 -12.364  -5.506  1.00  0.00     0.068 A 
HETATM   19  C   UNL     1      35.016 -11.304  -4.757  1.00  0.00     0.037 A 
HETATM   20  C   UNL     1      36.106 -11.505  -3.898  1.00  0.00     0.016 A 
BRANCH  18  21
HETATM   21  O   UNL     1      33.446 -12.305  -6.368  1.00  0.00    -0.356 OA
HETATM   22  C   UNL     1      33.695 -11.758  -7.656  1.00  0.00     0.210 C 
ENDBRANCH  18  21
ENDBRANCH  13  15
ENDBRANCH   6   9
ENDBRANCH   2   5
BRANCH   1  23
HETATM   23  C   UNL     1      41.465 -16.824   3.238  1.00  0.00     0.077 A 
HETATM   24  C   UNL     1      42.813 -17.177   3.141  1.00  0.00     0.048 A 
HETATM   25  N   UNL     1      43.077 -17.936   4.271  1.00  0.00    -0.269 N 
HETATM   26  N   UNL     1      42.008 -18.075   5.080  1.00  0.00    -0.183 NA
HETATM   27  C   UNL     1      41.044 -17.409   4.456  1.00  0.00     0.158 A 
BRANCH  24  28
HETATM   28  C   UNL     1      43.871 -16.861   2.130  1.00  0.00     0.055 C 
HETATM   29  C   UNL     1      43.785 -17.760   0.905  1.00  0.00     0.011 C 
ENDBRANCH  24  28
BRANCH  25  30
HETATM   30  C   UNL     1      44.346 -18.512   4.719  1.00  0.00     0.189 C 
BRANCH  30  31
HETATM   31  C   UNL     1      44.505 -19.970   4.360  1.00  0.00    -0.038 A 
HETATM   32  C   UNL     1      44.705 -20.921   5.372  1.00  0.00     0.009 A 
HETATM   33  C   UNL     1      44.802 -22.281   5.062  1.00  0.00     0.001 A 
HETATM   34  C   UNL     1      44.691 -22.705   3.740  1.00  0.00     0.000 A 
HETATM   35  C   UNL     1      44.476 -21.774   2.727  1.00  0.00     0.001 A 
HETATM   36  C   UNL     1      44.374 -20.416   3.035  1.00  0.00     0.009 A 
ENDBRANCH  30  31
ENDBRANCH  25  30
ENDBRANCH   1  23
TORSDOF 8
ENDMDL
MODEL 3
REMARK VINA RESULT:      -8.9      1.446      2.439
REMARK  8 active torsions:
REMARK  status: ('A' for Active; 'I' for Inactive)
REMARK    1  A    between atoms: C_2  and  C_3 
REMARK    2  A    between atoms: N_4  and  C_5 
REMARK    3  A    between atoms: C_5  and  C_6 
REMARK    4  A    between atoms: C_14  and  C_15 
REMARK       I    between atoms: C_15  and  N_16 
REMARK    5  A    between atoms: N_16  and  N_17 
REMARK       I    between atoms: N_17  and  C_18 
REMARK    6  A    between atoms: C_18  and  C_19 
REMARK    7  A    between atoms: C_23  and  C_24 
REMARK    8  A    between atoms: C_27  and  O_28 
ROOT
HETATM    1  C   UNL     1      41.425 -10.793   8.622  1.00  0.00     0.273 C 
HETATM    2  N   UNL     1      42.595 -11.305   8.107  1.00  0.00    -0.263 N 
HETATM    3  O   UNL     1      40.333 -11.192   8.213  1.00  0.00    -0.266 OA
HETATM    4  H   UNL     1      43.522 -11.078   8.446  1.00  0.00     0.190 HD
ENDROOT
BRANCH   2   5
HETATM    5  N   UNL     1      42.511 -12.292   7.116  1.00  0.00    -0.262 N 
HETATM    6  C   UNL     1      43.523 -13.220   7.003  1.00  0.00     0.288 C 
HETATM    7  O   UNL     1      44.467 -13.248   7.793  1.00  0.00    -0.264 OA
HETATM    8  H   UNL     1      41.757 -12.191   6.442  1.00  0.00     0.190 HD
BRANCH   6   9
HETATM    9  C   UNL     1      43.395 -14.142   5.910  1.00  0.00     0.121 A 
HETATM   10  N   UNL     1      42.966 -13.741   4.677  1.00  0.00    -0.272 N 
HETATM   11  H   UNL     1      42.694 -12.803   4.400  1.00  0.00     0.189 HD
HETATM   12  N   UNL     1      42.925 -14.721   3.762  1.00  0.00    -0.174 NA
HETATM   13  C   UNL     1      43.334 -15.819   4.418  1.00  0.00     0.089 A 
HETATM   14  C   UNL     1      43.635 -15.495   5.773  1.00  0.00     0.071 A 
BRANCH  13  15
HETATM   15  C   UNL     1      43.445 -17.120   3.749  1.00  0.00    -0.005 A 
HETATM   16  C   UNL     1      43.240 -17.228   2.368  1.00  0.00     0.016 A 
HETATM   17  C   UNL     1      43.372 -18.460   1.719  1.00  0.00     0.037 A 
HETATM   18  C   UNL     1      43.708 -19.609   2.435  1.00  0.00     0.068 A 
HETATM   19  C   UNL     1      43.898 -19.517   3.814  1.00  0.00     0.037 A 
HETATM   20  C   UNL     1      43.768 -18.282   4.465  1.00  0.00     0.016 A 
BRANCH  18  21
HETATM   21  O   UNL     1      43.815 -20.745   1.681  1.00  0.00    -0.356 OA
HETATM   22  C   UNL     1      44.254 -21.921   2.349  1.00  0.00     0.210 C 
ENDBRANCH  18  21
ENDBRANCH  13  15
ENDBRANCH   6   9
ENDBRANCH   2   5
BRANCH   1  23
HETATM   23  C   UNL     1      41.530  -9.787   9.671  1.00  0.00     0.077 A 
HETATM   24  C   UNL     1      42.452  -9.571  10.697  1.00  0.00     0.048 A 
HETATM   25  N   UNL     1      42.010  -8.434  11.355  1.00  0.00    -0.269 N 
HETATM   26  N   UNL     1      40.893  -7.907  10.815  1.00  0.00    -0.183 NA
HETATM   27  C   UNL     1      40.608  -8.723   9.807  1.00  0.00     0.158 A 
BRANCH  24  28
HETATM   28  C   UNL     1      43.700 -10.292  11.104  1.00  0.00     0.055 C 
HETATM   29  C   UNL     1      43.402 -11.608  11.808  1.00  0.00     0.011 C 
ENDBRANCH  24  28
BRANCH  25  30
HETATM   30  C   UNL     1      42.630  -7.713  12.469  1.00  0.00     0.189 C 
BRANCH  30  31
HETATM   31  C   UNL     1      42.121  -8.147  13.823  1.00  0.00    -0.038 A 
HETATM   32  C   UNL     1      41.027  -7.486  14.403  1.00  0.00     0.009 A 
HETATM   33  C   UNL     1      40.511  -7.908  15.631  1.00  0.00     0.001 A 
HETATM   34  C   UNL     1      41.076  -8.998  16.289  1.00  0.00     0.000 A 
HETATM   35  C   UNL     1      42.151  -9.672  15.718  1.00  0.00     0.001 A 
HETATM   36  C   UNL     1      42.666  -9.256  14.489  1.00  0.00     0.009 A 
ENDBRANCH  30  31
ENDBRANCH  25  30
ENDBRANCH   1  23
TORSDOF 8
ENDMDL
MODEL 4
REMARK VINA RESULT:      -8.8      1.704      2.289
REMARK  8 active torsions:
REMARK  status: ('A' for Active; 'I' for Inactive)
REMARK    1  A    between atoms: C_2  and  C_3 
REMARK    2  A    between atoms: N_4  and  C_5 
REMARK    3  A    between atoms: C_5  and  C_6 
REMARK    4  A    between atoms: C_14  and  C_15 
REMARK       I    between atoms: C_15  and  N_16 
REMARK    5  A    between atoms: N_16  and  N_17 
REMARK       I    between atoms: N_17  and  C_18 
REMARK    6  A    between atoms: C_18  and  C_19 
REMARK    7  A    between atoms: C_23  and  C_24 
REMARK    8  A    between atoms: C_27  and  O_28 
ROOT
HETATM    1  C   UNL     1      42.438 -11.289   8.262  1.00  0.00     0.273 C 
HETATM    2  N   UNL     1      41.390 -11.698   7.467  1.00  0.00    -0.263 N 
HETATM    3  O   UNL     1      43.539 -11.838   8.179  1.00  0.00    -0.266 OA
HETATM    4  H   UNL     1      40.484 -11.247   7.430  1.00  0.00     0.190 HD
ENDROOT
BRANCH   2   5
HETATM    5  N   UNL     1      41.611 -12.744   6.560  1.00  0.00    -0.262 N 
HETATM    6  C   UNL     1      40.530 -13.405   6.019  1.00  0.00     0.288 C 
HETATM    7  O   UNL     1      39.373 -13.058   6.259  1.00  0.00    -0.264 OA
HETATM    8  H   UNL     1      42.575 -13.045   6.444  1.00  0.00     0.190 HD
BRANCH   6   9
HETATM    9  C   UNL     1      40.849 -14.513   5.165  1.00  0.00     0.121 A 
HETATM   10  N   UNL     1      40.100 -14.809   4.061  1.00  0.00    -0.272 N 
HETATM   11  H   UNL     1      39.274 -14.318   3.733  1.00  0.00     0.189 HD
HETATM   12  N   UNL     1      40.546 -15.860   3.358  1.00  0.00    -0.174 NA
HETATM   13  C   UNL     1      41.629 -16.285   4.028  1.00  0.00     0.089 A 
HETATM   14  C   UNL     1      41.849 -15.466   5.173  1.00  0.00     0.071 A 
BRANCH  13  15
HETATM   15  C   UNL     1      42.424 -17.427   3.563  1.00  0.00    -0.005 A 
HETATM   16  C   UNL     1      43.263 -18.116   4.448  1.00  0.00     0.016 A 
HETATM   17  C   UNL     1      44.002 -19.223   4.019  1.00  0.00     0.037 A 
HETATM   18  C   UNL     1      43.923 -19.663   2.697  1.00  0.00     0.068 A 
HETATM   19  C   UNL     1      43.105 -18.974   1.802  1.00  0.00     0.037 A 
HETATM   20  C   UNL     1      42.361 -17.866   2.233  1.00  0.00     0.016 A 
BRANCH  18  21
HETATM   21  O   UNL     1      44.687 -20.759   2.410  1.00  0.00    -0.356 OA
HETATM   22  C   UNL     1      44.040 -21.839   1.749  1.00  0.00     0.210 C 
ENDBRANCH  18  21
ENDBRANCH  13  15
ENDBRANCH   6   9
ENDBRANCH   2   5
BRANCH   1  23
HETATM   23  C   UNL     1      42.199 -10.184   9.180  1.00  0.00     0.077 A 
HETATM   24  C   UNL     1      42.857  -9.737  10.328  1.00  0.00     0.048 A 
HETATM   25  N   UNL     1      42.150  -8.620  10.746  1.00  0.00    -0.269 N 
HETATM   26  N   UNL     1      41.110  -8.318   9.944  1.00  0.00    -0.183 NA
HETATM   27  C   UNL     1      41.142  -9.259   9.008  1.00  0.00     0.158 A 
BRANCH  24  28
HETATM   28  C   UNL     1      44.076 -10.224  11.049  1.00  0.00     0.055 C 
HETATM   29  C   UNL     1      43.854 -11.577  11.708  1.00  0.00     0.011 C 
ENDBRANCH  24  28
BRANCH  25  30
HETATM   30  C   UNL     1      42.434  -7.714  11.860  1.00  0.00     0.189 C 
BRANCH  30  31
HETATM   31  C   UNL     1      41.970  -8.241  13.197  1.00  0.00    -0.038 A 
HETATM   32  C   UNL     1      42.860  -8.955  14.014  1.00  0.00     0.009 A 
HETATM   33  C   UNL     1      42.463  -9.405  15.276  1.00  0.00     0.001 A 
HETATM   34  C   UNL     1      41.176  -9.138  15.739  1.00  0.00     0.000 A 
HETATM   35  C   UNL     1      40.288  -8.417  14.946  1.00  0.00     0.001 A 
HETATM   36  C   UNL     1      40.683  -7.963  13.687  1.00  0.00     0.009 A 
ENDBRANCH  30  31
ENDBRANCH  25  30
ENDBRANCH   1  23
TORSDOF 8
ENDMDL
MODEL 5
REMARK VINA RESULT:      -8.4      7.717     12.501
REMARK  8 active torsions:
REMARK  status: ('A' for Active; 'I' for Inactive)
REMARK    1  A    between atoms: C_2  and  C_3 
REMARK    2  A    between atoms: N_4  and  C_5 
REMARK    3  A    between atoms: C_5  and  C_6 
REMARK    4  A    between atoms: C_14  and  C_15 
REMARK       I    between atoms: C_15  and  N_16 
REMARK    5  A    between atoms: N_16  and  N_17 
REMARK       I    between atoms: N_17  and  C_18 
REMARK    6  A    between atoms: C_18  and  C_19 
REMARK    7  A    between atoms: C_23  and  C_24 
REMARK    8  A    between atoms: C_27  and  O_28 
ROOT
HETATM    1  C   UNL     1      41.137 -16.077   1.228  1.00  0.00     0.273 C 
HETATM    2  N   UNL     1      41.254 -15.959  -0.139  1.00  0.00    -0.263 N 
HETATM    3  O   UNL     1      40.137 -15.654   1.811  1.00  0.00    -0.266 OA
HETATM    4  H   UNL     1      42.011 -16.347  -0.689  1.00  0.00     0.190 HD
ENDROOT
BRANCH   2   5
HETATM    5  N   UNL     1      40.206 -15.356  -0.848  1.00  0.00    -0.262 N 
HETATM    6  C   UNL     1      40.384 -14.092  -1.364  1.00  0.00     0.288 C 
HETATM    7  O   UNL     1      41.461 -13.502  -1.279  1.00  0.00    -0.264 OA
HETATM    8  H   UNL     1      39.314 -15.843  -0.834  1.00  0.00     0.190 HD
BRANCH   6   9
HETATM    9  C   UNL     1      39.233 -13.519  -2.003  1.00  0.00     0.121 A 
HETATM   10  N   UNL     1      38.637 -12.384  -1.530  1.00  0.00    -0.272 N 
HETATM   11  H   UNL     1      38.912 -11.844  -0.716  1.00  0.00     0.189 HD
HETATM   12  N   UNL     1      37.589 -11.969  -2.256  1.00  0.00    -0.174 NA
HETATM   13  C   UNL     1      37.478 -12.871  -3.245  1.00  0.00     0.089 A 
HETATM   14  C   UNL     1      38.492 -13.864  -3.117  1.00  0.00     0.071 A 
BRANCH  13  15
HETATM   15  C   UNL     1      36.442 -12.759  -4.278  1.00  0.00    -0.005 A 
HETATM   16  C   UNL     1      36.089 -13.870  -5.053  1.00  0.00     0.016 A 
HETATM   17  C   UNL     1      35.083 -13.778  -6.020  1.00  0.00     0.037 A 
HETATM   18  C   UNL     1      34.411 -12.575  -6.236  1.00  0.00     0.068 A 
HETATM   19  C   UNL     1      34.767 -11.456  -5.483  1.00  0.00     0.037 A 
HETATM   20  C   UNL     1      35.773 -11.548  -4.511  1.00  0.00     0.016 A 
BRANCH  18  21
HETATM   21  O   UNL     1      33.444 -12.622  -7.201  1.00  0.00    -0.356 OA
HETATM   22  C   UNL     1      32.669 -11.446  -7.393  1.00  0.00     0.210 C 
ENDBRANCH  18  21
ENDBRANCH  13  15
ENDBRANCH   6   9
ENDBRANCH   2   5
BRANCH   1  23
HETATM   23  C   UNL     1      42.224 -16.730   1.947  1.00  0.00     0.077 A 
HETATM   24  C   UNL     1      42.316 -17.317   3.210  1.00  0.00     0.048 A 
HETATM   25  N   UNL     1      43.619 -17.781   3.307  1.00  0.00    -0.269 N 
HETATM   26  N   UNL     1      44.349 -17.548   2.198  1.00  0.00    -0.183 NA
HETATM   27  C   UNL     1      43.510 -16.916   1.387  1.00  0.00     0.158 A 
BRANCH  24  28
HETATM   28  C   UNL     1      41.318 -17.510   4.310  1.00  0.00     0.055 C 
HETATM   29  C   UNL     1      41.241 -16.305   5.236  1.00  0.00     0.011 C 
ENDBRANCH  24  28
BRANCH  25  30
HETATM   30  C   UNL     1      44.249 -18.539   4.388  1.00  0.00     0.189 C 
BRANCH  30  31
HETATM   31  C   UNL     1      44.355 -20.019   4.103  1.00  0.00    -0.038 A 
HETATM   32  C   UNL     1      44.194 -20.491   2.792  1.00  0.00     0.009 A 
HETATM   33  C   UNL     1      44.339 -21.850   2.502  1.00  0.00     0.001 A 
HETATM   34  C   UNL     1      44.656 -22.750   3.517  1.00  0.00     0.000 A 
HETATM   35  C   UNL     1      44.834 -22.294   4.820  1.00  0.00     0.001 A 
HETATM   36  C   UNL     1      44.694 -20.936   5.111  1.00  0.00     0.009 A 
ENDBRANCH  30  31
ENDBRANCH  25  30
ENDBRANCH   1  23
TORSDOF 8
ENDMDL
MODEL 6
REMARK VINA RESULT:      -8.4      7.706     11.912
REMARK  8 active torsions:
REMARK  status: ('A' for Active; 'I' for Inactive)
REMARK    1  A    between atoms: C_2  and  C_3 
REMARK    2  A    between atoms: N_4  and  C_5 
REMARK    3  A    between atoms: C_5  and  C_6 
REMARK    4  A    between atoms: C_14  and  C_15 
REMARK       I    between atoms: C_15  and  N_16 
REMARK    5  A    between atoms: N_16  and  N_17 
REMARK       I    between atoms: N_17  and  C_18 
REMARK    6  A    between atoms: C_18  and  C_19 
REMARK    7  A    between atoms: C_23  and  C_24 
REMARK    8  A    between atoms: C_27  and  O_28 
ROOT
HETATM    1  C   UNL     1      39.357 -14.014  -1.030  1.00  0.00     0.273 C 
HETATM    2  N   UNL     1      38.730 -14.422   0.126  1.00  0.00    -0.263 N 
HETATM    3  O   UNL     1      40.509 -14.376  -1.280  1.00  0.00    -0.266 OA
HETATM    4  H   UNL     1      37.765 -14.224   0.359  1.00  0.00     0.190 HD
ENDROOT
BRANCH   2   5
HETATM    5  N   UNL     1      39.430 -15.261   1.003  1.00  0.00    -0.262 N 
HETATM    6  C   UNL     1      39.755 -14.800   2.260  1.00  0.00     0.288 C 
HETATM    7  O   UNL     1      39.387 -13.696   2.660  1.00  0.00    -0.264 OA
HETATM    8  H   UNL     1      39.776 -16.134   0.613  1.00  0.00     0.190 HD
BRANCH   6   9
HETATM    9  C   UNL     1      40.542 -15.695   3.061  1.00  0.00     0.121 A 
HETATM   10  N   UNL     1      40.472 -15.689   4.426  1.00  0.00    -0.272 N 
HETATM   11  H   UNL     1      39.898 -15.085   5.005  1.00  0.00     0.189 HD
HETATM   12  N   UNL     1      41.253 -16.601   5.021  1.00  0.00    -0.174 NA
HETATM   13  C   UNL     1      41.874 -17.233   4.011  1.00  0.00     0.089 A 
HETATM   14  C   UNL     1      41.455 -16.687   2.763  1.00  0.00     0.071 A 
BRANCH  13  15
HETATM   15  C   UNL     1      42.818 -18.330   4.252  1.00  0.00    -0.005 A 
HETATM   16  C   UNL     1      43.109 -18.743   5.558  1.00  0.00     0.016 A 
HETATM   17  C   UNL     1      43.985 -19.807   5.793  1.00  0.00     0.037 A 
HETATM   18  C   UNL     1      44.592 -20.477   4.731  1.00  0.00     0.068 A 
HETATM   19  C   UNL     1      44.325 -20.063   3.427  1.00  0.00     0.037 A 
HETATM   20  C   UNL     1      43.443 -18.999   3.189  1.00  0.00     0.016 A 
BRANCH  18  21
HETATM   21  O   UNL     1      45.419 -21.503   5.097  1.00  0.00    -0.356 OA
HETATM   22  C   UNL     1      45.029 -22.813   4.706  1.00  0.00     0.210 C 
ENDBRANCH  18  21
ENDBRANCH  13  15
ENDBRANCH   6   9
ENDBRANCH   2   5
BRANCH   1  23
HETATM   23  C   UNL     1      38.606 -13.164  -1.944  1.00  0.00     0.077 A 
HETATM   24  C   UNL     1      37.702 -13.433  -2.974  1.00  0.00     0.048 A 
HETATM   25  N   UNL     1      37.317 -12.193  -3.459  1.00  0.00    -0.269 N 
HETATM   26  N   UNL     1      37.891 -11.164  -2.805  1.00  0.00    -0.183 NA
HETATM   27  C   UNL     1      38.665 -11.751  -1.899  1.00  0.00     0.158 A 
BRANCH  24  28
HETATM   28  C   UNL     1      37.151 -14.711  -3.527  1.00  0.00     0.055 C 
HETATM   29  C   UNL     1      38.234 -15.593  -4.130  1.00  0.00     0.011 C 
ENDBRANCH  24  28
BRANCH  25  30
HETATM   30  C   UNL     1      36.334 -11.873  -4.496  1.00  0.00     0.189 C 
BRANCH  30  31
HETATM   31  C   UNL     1      34.912 -11.846  -3.990  1.00  0.00    -0.038 A 
HETATM   32  C   UNL     1      34.565 -11.002  -2.924  1.00  0.00     0.009 A 
HETATM   33  C   UNL     1      33.243 -10.926  -2.477  1.00  0.00     0.001 A 
HETATM   34  C   UNL     1      32.253 -11.686  -3.095  1.00  0.00     0.000 A 
HETATM   35  C   UNL     1      32.579 -12.516  -4.164  1.00  0.00     0.001 A 
HETATM   36  C   UNL     1      33.898 -12.590  -4.615  1.00  0.00     0.009 A 
ENDBRANCH  30  31
ENDBRANCH  25  30
ENDBRANCH   1  23
TORSDOF 8
ENDMDL
MODEL 7
REMARK VINA RESULT:      -8.2      1.620      2.182
REMARK  8 active torsions:
REMARK  status: ('A' for Active; 'I' for Inactive)
REMARK    1  A    between atoms: C_2  and  C_3 
REMARK    2  A    between atoms: N_4  and  C_5 
REMARK    3  A    between atoms: C_5  and  C_6 
REMARK    4  A    between atoms: C_14  and  C_15 
REMARK       I    between atoms: C_15  and  N_16 
REMARK    5  A    between atoms: N_16  and  N_17 
REMARK       I    between atoms: N_17  and  C_18 
REMARK    6  A    between atoms: C_18  and  C_19 
REMARK    7  A    between atoms: C_23  and  C_24 
REMARK    8  A    between atoms: C_27  and  O_28 
ROOT
HETATM    1  C   UNL     1      43.682 -12.014   8.435  1.00  0.00     0.273 C 
HETATM    2  N   UNL     1      42.804 -12.297   7.412  1.00  0.00    -0.263 N 
HETATM    3  O   UNL     1      44.753 -12.617   8.527  1.00  0.00    -0.266 OA
HETATM    4  H   UNL     1      41.945 -11.793   7.233  1.00  0.00     0.190 HD
ENDROOT
BRANCH   2   5
HETATM    5  N   UNL     1      43.164 -13.279   6.478  1.00  0.00    -0.262 N 
HETATM    6  C   UNL     1      42.180 -13.892   5.735  1.00  0.00     0.288 C 
HETATM    7  O   UNL     1      41.000 -13.554   5.818  1.00  0.00    -0.264 OA
HETATM    8  H   UNL     1      44.135 -13.579   6.491  1.00  0.00     0.190 HD
BRANCH   6   9
HETATM    9  C   UNL     1      42.629 -14.941   4.864  1.00  0.00     0.121 A 
HETATM   10  N   UNL     1      43.059 -14.686   3.592  1.00  0.00    -0.272 N 
HETATM   11  H   UNL     1      43.104 -13.782   3.132  1.00  0.00     0.189 HD
HETATM   12  N   UNL     1      43.466 -15.772   2.920  1.00  0.00    -0.174 NA
HETATM   13  C   UNL     1      43.290 -16.792   3.776  1.00  0.00     0.089 A 
HETATM   14  C   UNL     1      42.761 -16.309   5.008  1.00  0.00     0.071 A 
BRANCH  13  15
HETATM   15  C   UNL     1      43.639 -18.170   3.416  1.00  0.00    -0.005 A 
HETATM   16  C   UNL     1      44.314 -18.993   4.327  1.00  0.00     0.016 A 
HETATM   17  C   UNL     1      44.625 -20.317   4.001  1.00  0.00     0.037 A 
HETATM   18  C   UNL     1      44.272 -20.846   2.760  1.00  0.00     0.068 A 
HETATM   19  C   UNL     1      43.616 -20.031   1.838  1.00  0.00     0.037 A 
HETATM   20  C   UNL     1      43.301 -18.705   2.164  1.00  0.00     0.016 A 
BRANCH  18  21
HETATM   21  O   UNL     1      44.625 -22.154   2.572  1.00  0.00    -0.356 OA
HETATM   22  C   UNL     1      44.688 -22.976   3.730  1.00  0.00     0.210 C 
ENDBRANCH  18  21
ENDBRANCH  13  15
ENDBRANCH   6   9
ENDBRANCH   2   5
BRANCH   1  23
HETATM   23  C   UNL     1      43.305 -10.972   9.381  1.00  0.00     0.077 A 
HETATM   24  C   UNL     1      42.463  -9.861   9.292  1.00  0.00     0.048 A 
HETATM   25  N   UNL     1      42.508  -9.264  10.542  1.00  0.00    -0.269 N 
HETATM   26  N   UNL     1      43.297  -9.920  11.416  1.00  0.00    -0.183 NA
HETATM   27  C   UNL     1      43.774 -10.941  10.715  1.00  0.00     0.158 A 
BRANCH  24  28
HETATM   28  C   UNL     1      41.613  -9.323   8.183  1.00  0.00     0.055 C 
HETATM   29  C   UNL     1      40.233  -9.964   8.150  1.00  0.00     0.011 C 
ENDBRANCH  24  28
BRANCH  25  30
HETATM   30  C   UNL     1      41.766  -8.103  11.036  1.00  0.00     0.189 C 
BRANCH  30  31
HETATM   31  C   UNL     1      40.294  -8.373  11.242  1.00  0.00    -0.038 A 
HETATM   32  C   UNL     1      39.886  -9.495  11.979  1.00  0.00     0.009 A 
HETATM   33  C   UNL     1      38.530  -9.731  12.223  1.00  0.00     0.001 A 
HETATM   34  C   UNL     1      37.569  -8.845  11.740  1.00  0.00     0.000 A 
HETATM   35  C   UNL     1      37.961  -7.720  11.021  1.00  0.00     0.001 A 
HETATM   36  C   UNL     1      39.315  -7.479  10.780  1.00  0.00     0.009 A 
ENDBRANCH  30  31
ENDBRANCH  25  30
ENDBRANCH   1  23
TORSDOF 8
ENDMDL
MODEL 8
REMARK VINA RESULT:      -8.2      7.005     12.497
REMARK  8 active torsions:
REMARK  status: ('A' for Active; 'I' for Inactive)
REMARK    1  A    between atoms: C_2  and  C_3 
REMARK    2  A    between atoms: N_4  and  C_5 
REMARK    3  A    between atoms: C_5  and  C_6 
REMARK    4  A    between atoms: C_14  and  C_15 
REMARK       I    between atoms: C_15  and  N_16 
REMARK    5  A    between atoms: N_16  and  N_17 
REMARK       I    between atoms: N_17  and  C_18 
REMARK    6  A    between atoms: C_18  and  C_19 
REMARK    7  A    between atoms: C_23  and  C_24 
REMARK    8  A    between atoms: C_27  and  O_28 
ROOT
HETATM    1  C   UNL     1      40.520 -15.224   2.418  1.00  0.00     0.273 C 
HETATM    2  N   UNL     1      40.123 -15.261   1.099  1.00  0.00    -0.263 N 
HETATM    3  O   UNL     1      39.901 -14.546   3.240  1.00  0.00    -0.266 OA
HETATM    4  H   UNL     1      40.538 -15.850   0.388  1.00  0.00     0.190 HD
ENDROOT
BRANCH   2   5
HETATM    5  N   UNL     1      38.996 -14.517   0.722  1.00  0.00    -0.262 N 
HETATM    6  C   UNL     1      39.169 -13.342   0.024  1.00  0.00     0.288 C 
HETATM    7  O   UNL     1      40.282 -12.961  -0.337  1.00  0.00    -0.264 OA
HETATM    8  H   UNL     1      38.104 -14.827   1.099  1.00  0.00     0.190 HD
BRANCH   6   9
HETATM    9  C   UNL     1      37.968 -12.605  -0.250  1.00  0.00     0.121 A 
HETATM   10  N   UNL     1      37.711 -12.081  -1.485  1.00  0.00    -0.272 N 
HETATM   11  H   UNL     1      38.304 -12.138  -2.308  1.00  0.00     0.189 HD
HETATM   12  N   UNL     1      36.537 -11.442  -1.580  1.00  0.00    -0.174 NA
HETATM   13  C   UNL     1      35.995 -11.537  -0.354  1.00  0.00     0.089 A 
HETATM   14  C   UNL     1      36.869 -12.258   0.511  1.00  0.00     0.071 A 
BRANCH  13  15
HETATM   15  C   UNL     1      34.679 -10.967  -0.046  1.00  0.00    -0.005 A 
HETATM   16  C   UNL     1      33.749 -10.736  -1.067  1.00  0.00     0.016 A 
HETATM   17  C   UNL     1      32.482 -10.219  -0.777  1.00  0.00     0.037 A 
HETATM   18  C   UNL     1      32.118  -9.921   0.536  1.00  0.00     0.068 A 
HETATM   19  C   UNL     1      33.042 -10.130   1.559  1.00  0.00     0.037 A 
HETATM   20  C   UNL     1      34.312 -10.651   1.270  1.00  0.00     0.016 A 
BRANCH  18  21
HETATM   21  O   UNL     1      30.850  -9.432   0.683  1.00  0.00    -0.356 OA
HETATM   22  C   UNL     1      30.576  -8.703   1.873  1.00  0.00     0.210 C 
ENDBRANCH  18  21
ENDBRANCH  13  15
ENDBRANCH   6   9
ENDBRANCH   2   5
BRANCH   1  23
HETATM   23  C   UNL     1      41.677 -16.023   2.798  1.00  0.00     0.077 A 
HETATM   24  C   UNL     1      41.913 -16.927   3.837  1.00  0.00     0.048 A 
HETATM   25  N   UNL     1      43.212 -17.373   3.648  1.00  0.00    -0.269 N 
HETATM   26  N   UNL     1      43.807 -16.836   2.564  1.00  0.00    -0.183 NA
HETATM   27  C   UNL     1      42.884 -16.026   2.059  1.00  0.00     0.158 A 
BRANCH  24  28
HETATM   28  C   UNL     1      41.054 -17.428   4.956  1.00  0.00     0.055 C 
HETATM   29  C   UNL     1      41.044 -16.480   6.145  1.00  0.00     0.011 C 
ENDBRANCH  24  28
BRANCH  25  30
HETATM   30  C   UNL     1      43.959 -18.381   4.403  1.00  0.00     0.189 C 
BRANCH  30  31
HETATM   31  C   UNL     1      44.103 -19.694   3.672  1.00  0.00    -0.038 A 
HETATM   32  C   UNL     1      44.722 -20.783   4.305  1.00  0.00     0.009 A 
HETATM   33  C   UNL     1      44.817 -22.020   3.662  1.00  0.00     0.001 A 
HETATM   34  C   UNL     1      44.286 -22.186   2.385  1.00  0.00     0.000 A 
HETATM   35  C   UNL     1      43.655 -21.120   1.751  1.00  0.00     0.001 A 
HETATM   36  C   UNL     1      43.555 -19.884   2.392  1.00  0.00     0.009 A 
ENDBRANCH  30  31
ENDBRANCH  25  30
ENDBRANCH   1  23
TORSDOF 8
ENDMDL
MODEL 9
REMARK VINA RESULT:      -8.2      7.808     11.636
REMARK  8 active torsions:
REMARK  status: ('A' for Active; 'I' for Inactive)
REMARK    1  A    between atoms: C_2  and  C_3 
REMARK    2  A    between atoms: N_4  and  C_5 
REMARK    3  A    between atoms: C_5  and  C_6 
REMARK    4  A    between atoms: C_14  and  C_15 
REMARK       I    between atoms: C_15  and  N_16 
REMARK    5  A    between atoms: N_16  and  N_17 
REMARK       I    between atoms: N_17  and  C_18 
REMARK    6  A    between atoms: C_18  and  C_19 
REMARK    7  A    between atoms: C_23  and  C_24 
REMARK    8  A    between atoms: C_27  and  O_28 
ROOT
HETATM    1  C   UNL     1      38.838 -13.947  -0.978  1.00  0.00     0.273 C 
HETATM    2  N   UNL     1      38.302 -14.398   0.207  1.00  0.00    -0.263 N 
HETATM    3  O   UNL     1      40.000 -14.222  -1.286  1.00  0.00    -0.266 OA
HETATM    4  H   UNL     1      37.337 -14.273   0.489  1.00  0.00     0.190 HD
ENDROOT
BRANCH   2   5
HETATM    5  N   UNL     1      39.106 -15.181   1.047  1.00  0.00    -0.262 N 
HETATM    6  C   UNL     1      39.480 -14.683   2.276  1.00  0.00     0.288 C 
HETATM    7  O   UNL     1      39.071 -13.597   2.686  1.00  0.00    -0.264 OA
HETATM    8  H   UNL     1      39.480 -16.037   0.644  1.00  0.00     0.190 HD
BRANCH   6   9
HETATM    9  C   UNL     1      40.369 -15.517   3.034  1.00  0.00     0.121 A 
HETATM   10  N   UNL     1      40.499 -15.385   4.388  1.00  0.00    -0.272 N 
HETATM   11  H   UNL     1      40.020 -14.719   4.986  1.00  0.00     0.189 HD
HETATM   12  N   UNL     1      41.352 -16.256   4.947  1.00  0.00    -0.174 NA
HETATM   13  C   UNL     1      41.815 -16.989   3.921  1.00  0.00     0.089 A 
HETATM   14  C   UNL     1      41.223 -16.551   2.701  1.00  0.00     0.071 A 
BRANCH  13  15
HETATM   15  C   UNL     1      42.776 -18.079   4.123  1.00  0.00    -0.005 A 
HETATM   16  C   UNL     1      43.084 -18.523   5.415  1.00  0.00     0.016 A 
HETATM   17  C   UNL     1      43.978 -19.580   5.615  1.00  0.00     0.037 A 
HETATM   18  C   UNL     1      44.584 -20.213   4.530  1.00  0.00     0.068 A 
HETATM   19  C   UNL     1      44.299 -19.768   3.239  1.00  0.00     0.037 A 
HETATM   20  C   UNL     1      43.401 -18.710   3.038  1.00  0.00     0.016 A 
BRANCH  18  21
HETATM   21  O   UNL     1      45.428 -21.236   4.861  1.00  0.00    -0.356 OA
HETATM   22  C   UNL     1      44.883 -22.550   4.845  1.00  0.00     0.210 C 
ENDBRANCH  18  21
ENDBRANCH  13  15
ENDBRANCH   6   9
ENDBRANCH   2   5
BRANCH   1  23
HETATM   23  C   UNL     1      37.981 -13.156  -1.851  1.00  0.00     0.077 A 
HETATM   24  C   UNL     1      37.246 -11.984  -1.661  1.00  0.00     0.048 A 
HETATM   25  N   UNL     1      36.646 -11.723  -2.884  1.00  0.00    -0.269 N 
HETATM   26  N   UNL     1      36.959 -12.628  -3.833  1.00  0.00    -0.183 NA
HETATM   27  C   UNL     1      37.757 -13.486  -3.209  1.00  0.00     0.158 A 
BRANCH  24  28
HETATM   28  C   UNL     1      37.069 -11.082  -0.479  1.00  0.00     0.055 C 
HETATM   29  C   UNL     1      36.112 -11.662   0.552  1.00  0.00     0.011 C 
ENDBRANCH  24  28
BRANCH  25  30
HETATM   30  C   UNL     1      35.816 -10.584  -3.279  1.00  0.00     0.189 C 
BRANCH  30  31
HETATM   31  C   UNL     1      34.335 -10.842  -3.138  1.00  0.00    -0.038 A 
HETATM   32  C   UNL     1      33.620 -11.410  -4.203  1.00  0.00     0.009 A 
HETATM   33  C   UNL     1      32.260 -11.703  -4.071  1.00  0.00     0.001 A 
HETATM   34  C   UNL     1      31.602 -11.440  -2.871  1.00  0.00     0.000 A 
HETATM   35  C   UNL     1      32.303 -10.891  -1.801  1.00  0.00     0.001 A 
HETATM   36  C   UNL     1      33.662 -10.601  -1.929  1.00  0.00     0.009 A 
ENDBRANCH  30  31
ENDBRANCH  25  30
ENDBRANCH   1  23
TORSDOF 8
ENDMDL
MODEL 10
REMARK VINA RESULT:      -8.2      3.658      4.870
REMARK  8 active torsions:
REMARK  status: ('A' for Active; 'I' for Inactive)
REMARK    1  A    between atoms: C_2  and  C_3 
REMARK    2  A    between atoms: N_4  and  C_5 
REMARK    3  A    between atoms: C_5  and  C_6 
REMARK    4  A    between atoms: C_14  and  C_15 
REMARK       I    between atoms: C_15  and  N_16 
REMARK    5  A    between atoms: N_16  and  N_17 
REMARK       I    between atoms: N_17  and  C_18 
REMARK    6  A    between atoms: C_18  and  C_19 
REMARK    7  A    between atoms: C_23  and  C_24 
REMARK    8  A    between atoms: C_27  and  O_28 
ROOT
HETATM    1  C   UNL     1      41.954 -11.361   6.925  1.00  0.00     0.273 C 
HETATM    2  N   UNL     1      42.327 -12.649   6.612  1.00  0.00    -0.263 N 
HETATM    3  O   UNL     1      41.308 -10.683   6.124  1.00  0.00    -0.266 OA
HETATM    4  H   UNL     1      42.793 -13.286   7.247  1.00  0.00     0.190 HD
ENDROOT
BRANCH   2   5
HETATM    5  N   UNL     1      41.946 -13.168   5.367  1.00  0.00    -0.262 N 
HETATM    6  C   UNL     1      41.782 -14.529   5.227  1.00  0.00     0.288 C 
HETATM    7  O   UNL     1      41.895 -15.296   6.183  1.00  0.00    -0.264 OA
HETATM    8  H   UNL     1      41.933 -12.513   4.590  1.00  0.00     0.190 HD
BRANCH   6   9
HETATM    9  C   UNL     1      41.472 -14.979   3.900  1.00  0.00     0.121 A 
HETATM   10  N   UNL     1      41.212 -16.293   3.628  1.00  0.00    -0.272 N 
HETATM   11  H   UNL     1      41.214 -17.065   4.288  1.00  0.00     0.189 HD
HETATM   12  N   UNL     1      40.917 -16.543   2.345  1.00  0.00    -0.174 NA
HETATM   13  C   UNL     1      40.993 -15.347   1.737  1.00  0.00     0.089 A 
HETATM   14  C   UNL     1      41.344 -14.340   2.682  1.00  0.00     0.071 A 
BRANCH  13  15
HETATM   15  C   UNL     1      40.718 -15.192   0.304  1.00  0.00    -0.005 A 
HETATM   16  C   UNL     1      41.302 -16.058  -0.629  1.00  0.00     0.016 A 
HETATM   17  C   UNL     1      41.022 -15.933  -1.994  1.00  0.00     0.037 A 
HETATM   18  C   UNL     1      40.158 -14.941  -2.455  1.00  0.00     0.068 A 
HETATM   19  C   UNL     1      39.584 -14.061  -1.537  1.00  0.00     0.037 A 
HETATM   20  C   UNL     1      39.862 -14.187  -0.168  1.00  0.00     0.016 A 
BRANCH  18  21
HETATM   21  O   UNL     1      39.962 -14.934  -3.808  1.00  0.00    -0.356 OA
HETATM   22  C   UNL     1      39.017 -15.862  -4.326  1.00  0.00     0.210 C 
ENDBRANCH  18  21
ENDBRANCH  13  15
ENDBRANCH   6   9
ENDBRANCH   2   5
BRANCH   1  23
HETATM   23  C   UNL     1      42.335 -10.846   8.234  1.00  0.00     0.077 A 
HETATM   24  C   UNL     1      43.312 -11.221   9.160  1.00  0.00     0.048 A 
HETATM   25  N   UNL     1      43.184 -10.326  10.211  1.00  0.00    -0.269 N 
HETATM   26  N   UNL     1      42.217  -9.407  10.014  1.00  0.00    -0.183 NA
HETATM   27  C   UNL     1      41.710  -9.724   8.828  1.00  0.00     0.158 A 
BRANCH  24  28
HETATM   28  C   UNL     1      44.353 -12.296   9.152  1.00  0.00     0.055 C 
HETATM   29  C   UNL     1      45.731 -11.762   8.792  1.00  0.00     0.011 C 
ENDBRANCH  24  28
BRANCH  25  30
HETATM   30  C   UNL     1      43.995 -10.207  11.424  1.00  0.00     0.189 C 
BRANCH  30  31
HETATM   31  C   UNL     1      43.175 -10.034  12.681  1.00  0.00    -0.038 A 
HETATM   32  C   UNL     1      42.043 -10.836  12.893  1.00  0.00     0.009 A 
HETATM   33  C   UNL     1      41.303 -10.725  14.073  1.00  0.00     0.001 A 
HETATM   34  C   UNL     1      41.692  -9.819  15.058  1.00  0.00     0.000 A 
HETATM   35  C   UNL     1      42.822  -9.030  14.868  1.00  0.00     0.001 A 
HETATM   36  C   UNL     1      43.565  -9.141  13.692  1.00  0.00     0.009 A 
ENDBRANCH  30  31
ENDBRANCH  25  30
ENDBRANCH   1  23
TORSDOF 8
ENDMDL
