MODEL 1
REMARK VINA RESULT:      -8.7      0.000      0.000
REMARK  3 active torsions:
REMARK  status: ('A' for Active; 'I' for Inactive)
REMARK    1  A    between atoms: N_1  and  C_5 
REMARK    2  A    between atoms: C_8  and  C_10 
REMARK       I    between atoms: C_10  and  N_12 
REMARK    3  A    between atoms: N_12  and  C_13 
ROOT
HETATM    1  C   UNL     1      43.732 -17.844   3.349  1.00  0.00     0.057 A 
HETATM    2  C   UNL     1      44.060 -18.655   4.442  1.00  0.00     0.043 A 
HETATM    3  C   UNL     1      44.297 -20.028   4.261  1.00  0.00    -0.017 A 
HETATM    4  C   UNL     1      44.622 -20.895   5.398  1.00  0.00     0.029 A 
HETATM    5  C   UNL     1      44.834 -22.200   5.189  1.00  0.00     0.092 A 
HETATM    6  N   UNL     1      44.760 -22.744   3.934  1.00  0.00    -0.333 N 
HETATM    7  C   UNL     1      44.464 -22.033   2.792  1.00  0.00     0.256 A 
HETATM    8  O   UNL     1      44.411 -22.559   1.688  1.00  0.00    -0.267 OA
HETATM    9  C   UNL     1      44.213 -20.581   2.974  1.00  0.00     0.044 A 
HETATM   10  C   UNL     1      43.889 -19.787   1.874  1.00  0.00     0.044 A 
HETATM   11  C   UNL     1      43.645 -18.429   2.067  1.00  0.00     0.061 A 
HETATM   12 CL   UNL     1      43.241 -17.465   0.686  1.00  0.00    -0.082 Cl
HETATM   13  H   UNL     1      44.925 -23.736   3.800  1.00  0.00     0.168 HD
ENDROOT
BRANCH   1  14
HETATM   14  N   UNL     1      43.455 -16.459   3.462  1.00  0.00    -0.325 N 
HETATM   15  C   UNL     1      42.235 -15.834   3.548  1.00  0.00     0.226 C 
HETATM   16  O   UNL     1      41.132 -16.371   3.654  1.00  0.00    -0.273 OA
HETATM   17  H   UNL     1      44.291 -15.880   3.511  1.00  0.00     0.169 HD
BRANCH  15  18
HETATM   18  C   UNL     1      42.352 -14.310   3.622  1.00  0.00     0.080 C 
HETATM   19  C   UNL     1      43.467 -13.904   4.583  1.00  0.00     0.016 C 
HETATM   20  C   UNL     1      42.828 -13.971   5.975  1.00  0.00     0.033 C 
HETATM   21  C   UNL     1      41.322 -13.793   5.762  1.00  0.00     0.184 C 
HETATM   22  C   UNL     1      41.120 -13.652   4.252  1.00  0.00     0.046 C 
BRANCH  21  23
HETATM   23  N   UNL     1      40.601 -14.996   6.249  1.00  0.00    -0.075 N 
HETATM   24  H   UNL     1      39.700 -14.774   6.690  1.00  0.00     0.274 HD
HETATM   25  H   UNL     1      40.427 -15.674   5.497  1.00  0.00     0.274 HD
HETATM   26  H   UNL     1      41.171 -15.506   6.958  1.00  0.00     0.274 HD
ENDBRANCH  21  23
ENDBRANCH  15  18
ENDBRANCH   1  14
TORSDOF 3
ENDMDL
MODEL 2
REMARK VINA RESULT:      -8.5      1.660      2.245
REMARK  3 active torsions:
REMARK  status: ('A' for Active; 'I' for Inactive)
REMARK    1  A    between atoms: N_1  and  C_5 
REMARK    2  A    between atoms: C_8  and  C_10 
REMARK       I    between atoms: C_10  and  N_12 
REMARK    3  A    between atoms: N_12  and  C_13 
ROOT
HETATM    1  C   UNL     1      43.618 -17.584   3.840  1.00  0.00     0.057 A 
HETATM    2  C   UNL     1      43.474 -18.478   2.772  1.00  0.00     0.043 A 
HETATM    3  C   UNL     1      43.865 -19.820   2.910  1.00  0.00    -0.017 A 
HETATM    4  C   UNL     1      43.739 -20.763   1.795  1.00  0.00     0.029 A 
HETATM    5  C   UNL     1      44.130 -22.032   1.961  1.00  0.00     0.092 A 
HETATM    6  N   UNL     1      44.639 -22.473   3.154  1.00  0.00    -0.333 N 
HETATM    7  C   UNL     1      44.805 -21.684   4.270  1.00  0.00     0.256 A 
HETATM    8  O   UNL     1      45.263 -22.119   5.318  1.00  0.00    -0.267 OA
HETATM    9  C   UNL     1      44.393 -20.263   4.133  1.00  0.00     0.044 A 
HETATM   10  C   UNL     1      44.543 -19.387   5.208  1.00  0.00     0.044 A 
HETATM   11  C   UNL     1      44.161 -18.057   5.055  1.00  0.00     0.061 A 
HETATM   12 CL   UNL     1      44.359 -16.988   6.404  1.00  0.00    -0.082 Cl
HETATM   13  H   UNL     1      44.929 -23.440   3.256  1.00  0.00     0.168 HD
ENDROOT
BRANCH   1  14
HETATM   14  N   UNL     1      43.269 -16.214   3.762  1.00  0.00    -0.325 N 
HETATM   15  C   UNL     1      42.017 -15.650   3.726  1.00  0.00     0.226 C 
HETATM   16  O   UNL     1      40.939 -16.229   3.865  1.00  0.00    -0.273 OA
HETATM   17  H   UNL     1      44.072 -15.588   3.762  1.00  0.00     0.169 HD
BRANCH  15  18
HETATM   18  C   UNL     1      42.054 -14.125   3.604  1.00  0.00     0.080 C 
HETATM   19  C   UNL     1      43.167 -13.546   4.474  1.00  0.00     0.016 C 
HETATM   20  C   UNL     1      42.563 -13.467   5.881  1.00  0.00     0.033 C 
HETATM   21  C   UNL     1      41.045 -13.393   5.690  1.00  0.00     0.184 C 
HETATM   22  C   UNL     1      40.803 -13.455   4.180  1.00  0.00     0.046 C 
BRANCH  21  23
HETATM   23  N   UNL     1      40.399 -14.558   6.345  1.00  0.00    -0.075 N 
HETATM   24  H   UNL     1      40.453 -15.417   5.784  1.00  0.00     0.274 HD
HETATM   25  H   UNL     1      40.806 -14.757   7.267  1.00  0.00     0.274 HD
HETATM   26  H   UNL     1      39.389 -14.369   6.521  1.00  0.00     0.274 HD
ENDBRANCH  21  23
ENDBRANCH  15  18
ENDBRANCH   1  14
TORSDOF 3
ENDMDL
MODEL 3
REMARK VINA RESULT:      -8.3      1.059      1.399
REMARK  3 active torsions:
REMARK  status: ('A' for Active; 'I' for Inactive)
REMARK    1  A    between atoms: N_1  and  C_5 
REMARK    2  A    between atoms: C_8  and  C_10 
REMARK       I    between atoms: C_10  and  N_12 
REMARK    3  A    between atoms: N_12  and  C_13 
ROOT
HETATM    1  C   UNL     1      43.613 -17.955   3.517  1.00  0.00     0.057 A 
HETATM    2  C   UNL     1      44.024 -18.839   4.523  1.00  0.00     0.043 A 
HETATM    3  C   UNL     1      44.295 -20.183   4.220  1.00  0.00    -0.017 A 
HETATM    4  C   UNL     1      44.706 -21.125   5.264  1.00  0.00     0.029 A 
HETATM    5  C   UNL     1      44.950 -22.401   4.940  1.00  0.00     0.092 A 
HETATM    6  N   UNL     1      44.829 -22.845   3.650  1.00  0.00    -0.333 N 
HETATM    7  C   UNL     1      44.452 -22.057   2.585  1.00  0.00     0.256 A 
HETATM    8  O   UNL     1      44.358 -22.494   1.446  1.00  0.00    -0.267 OA
HETATM    9  C   UNL     1      44.163 -20.634   2.897  1.00  0.00     0.044 A 
HETATM   10  C   UNL     1      43.757 -19.767   1.882  1.00  0.00     0.044 A 
HETATM   11  C   UNL     1      43.479 -18.439   2.197  1.00  0.00     0.061 A 
HETATM   12 CL   UNL     1      42.974 -17.383   0.921  1.00  0.00    -0.082 Cl
HETATM   13  H   UNL     1      45.018 -23.817   3.428  1.00  0.00     0.168 HD
ENDROOT
BRANCH   1  14
HETATM   14  N   UNL     1      43.298 -16.595   3.756  1.00  0.00    -0.325 N 
HETATM   15  C   UNL     1      42.249 -16.072   4.473  1.00  0.00     0.226 C 
HETATM   16  O   UNL     1      41.428 -16.694   5.147  1.00  0.00    -0.273 OA
HETATM   17  H   UNL     1      43.970 -15.944   3.354  1.00  0.00     0.169 HD
BRANCH  15  18
HETATM   18  C   UNL     1      42.231 -14.542   4.471  1.00  0.00     0.080 C 
HETATM   19  C   UNL     1      41.322 -14.016   5.578  1.00  0.00     0.016 C 
HETATM   20  C   UNL     1      39.909 -14.080   4.988  1.00  0.00     0.033 C 
HETATM   21  C   UNL     1      40.079 -14.028   3.467  1.00  0.00     0.184 C 
HETATM   22  C   UNL     1      41.585 -13.959   3.209  1.00  0.00     0.046 C 
BRANCH  21  23
HETATM   23  N   UNL     1      39.527 -15.265   2.858  1.00  0.00    -0.075 N 
HETATM   24  H   UNL     1      40.254 -15.918   2.543  1.00  0.00     0.274 HD
HETATM   25  H   UNL     1      38.906 -15.769   3.502  1.00  0.00     0.274 HD
HETATM   26  H   UNL     1      38.939 -15.036   2.027  1.00  0.00     0.274 HD
ENDBRANCH  21  23
ENDBRANCH  15  18
ENDBRANCH   1  14
TORSDOF 3
ENDMDL
MODEL 4
REMARK VINA RESULT:      -7.4      2.967      3.631
REMARK  3 active torsions:
REMARK  status: ('A' for Active; 'I' for Inactive)
REMARK    1  A    between atoms: N_1  and  C_5 
REMARK    2  A    between atoms: C_8  and  C_10 
REMARK       I    between atoms: C_10  and  N_12 
REMARK    3  A    between atoms: N_12  and  C_13 
ROOT
HETATM    1  C   UNL     1      43.164 -16.989   2.424  1.00  0.00     0.057 A 
HETATM    2  C   UNL     1      43.495 -18.271   1.968  1.00  0.00     0.043 A 
HETATM    3  C   UNL     1      43.915 -19.260   2.873  1.00  0.00    -0.017 A 
HETATM    4  C   UNL     1      44.285 -20.601   2.410  1.00  0.00     0.029 A 
HETATM    5  C   UNL     1      44.688 -21.515   3.300  1.00  0.00     0.092 A 
HETATM    6  N   UNL     1      44.758 -21.228   4.638  1.00  0.00    -0.333 N 
HETATM    7  C   UNL     1      44.438 -20.008   5.192  1.00  0.00     0.256 A 
HETATM    8  O   UNL     1      44.513 -19.794   6.394  1.00  0.00    -0.267 OA
HETATM    9  C   UNL     1      43.992 -18.957   4.242  1.00  0.00     0.044 A 
HETATM   10  C   UNL     1      43.665 -17.686   4.713  1.00  0.00     0.044 A 
HETATM   11  C   UNL     1      43.260 -16.711   3.805  1.00  0.00     0.061 A 
HETATM   12 CL   UNL     1      42.861 -15.139   4.414  1.00  0.00    -0.082 Cl
HETATM   13  H   UNL     1      45.067 -21.937   5.294  1.00  0.00     0.168 HD
ENDROOT
BRANCH   1  14
HETATM   14  N   UNL     1      42.758 -15.938   1.565  1.00  0.00    -0.325 N 
HETATM   15  C   UNL     1      41.769 -15.945   0.613  1.00  0.00     0.226 C 
HETATM   16  O   UNL     1      40.958 -16.845   0.391  1.00  0.00    -0.273 OA
HETATM   17  H   UNL     1      43.266 -15.069   1.717  1.00  0.00     0.169 HD
BRANCH  15  18
HETATM   18  C   UNL     1      41.657 -14.616  -0.138  1.00  0.00     0.080 C 
HETATM   19  C   UNL     1      41.866 -13.443   0.816  1.00  0.00     0.016 C 
HETATM   20  C   UNL     1      40.502 -13.235   1.485  1.00  0.00     0.033 C 
HETATM   21  C   UNL     1      39.461 -13.808   0.519  1.00  0.00     0.184 C 
HETATM   22  C   UNL     1      40.245 -14.357  -0.675  1.00  0.00     0.046 C 
BRANCH  21  23
HETATM   23  N   UNL     1      38.721 -14.914   1.178  1.00  0.00    -0.075 N 
HETATM   24  H   UNL     1      38.666 -14.809   2.198  1.00  0.00     0.274 HD
HETATM   25  H   UNL     1      37.764 -15.007   0.816  1.00  0.00     0.274 HD
HETATM   26  H   UNL     1      39.181 -15.831   0.988  1.00  0.00     0.274 HD
ENDBRANCH  21  23
ENDBRANCH  15  18
ENDBRANCH   1  14
TORSDOF 3
ENDMDL
MODEL 5
REMARK VINA RESULT:      -7.3      3.021      4.022
REMARK  3 active torsions:
REMARK  status: ('A' for Active; 'I' for Inactive)
REMARK    1  A    between atoms: N_1  and  C_5 
REMARK    2  A    between atoms: C_8  and  C_10 
REMARK       I    between atoms: C_10  and  N_12 
REMARK    3  A    between atoms: N_12  and  C_13 
ROOT
HETATM    1  C   UNL     1      41.392 -17.001   3.654  1.00  0.00     0.057 A 
HETATM    2  C   UNL     1      42.163 -17.755   2.761  1.00  0.00     0.043 A 
HETATM    3  C   UNL     1      43.086 -18.699   3.242  1.00  0.00    -0.017 A 
HETATM    4  C   UNL     1      43.915 -19.482   2.321  1.00  0.00     0.029 A 
HETATM    5  C   UNL     1      44.789 -20.367   2.815  1.00  0.00     0.092 A 
HETATM    6  N   UNL     1      44.923 -20.562   4.164  1.00  0.00    -0.333 N 
HETATM    7  C   UNL     1      44.203 -19.889   5.125  1.00  0.00     0.256 A 
HETATM    8  O   UNL     1      44.352 -20.095   6.322  1.00  0.00    -0.267 OA
HETATM    9  C   UNL     1      43.224 -18.889   4.626  1.00  0.00     0.044 A 
HETATM   10  C   UNL     1      42.463 -18.148   5.529  1.00  0.00     0.044 A 
HETATM   11  C   UNL     1      41.559 -17.207   5.041  1.00  0.00     0.061 A 
HETATM   12 CL   UNL     1      40.628 -16.297   6.183  1.00  0.00    -0.082 Cl
HETATM   13  H   UNL     1      45.593 -21.238   4.515  1.00  0.00     0.168 HD
ENDROOT
BRANCH   1  14
HETATM   14  N   UNL     1      40.462 -16.015   3.241  1.00  0.00    -0.325 N 
HETATM   15  C   UNL     1      40.643 -14.658   3.138  1.00  0.00     0.226 C 
HETATM   16  O   UNL     1      41.695 -14.036   3.283  1.00  0.00    -0.273 OA
HETATM   17  H   UNL     1      39.560 -16.398   2.964  1.00  0.00     0.169 HD
BRANCH  15  18
HETATM   18  C   UNL     1      39.379 -13.922   2.686  1.00  0.00     0.080 C 
HETATM   19  C   UNL     1      38.696 -14.681   1.551  1.00  0.00     0.016 C 
HETATM   20  C   UNL     1      39.452 -14.257   0.287  1.00  0.00     0.033 C 
HETATM   21  C   UNL     1      40.072 -12.891   0.598  1.00  0.00     0.184 C 
HETATM   22  C   UNL     1      39.682 -12.566   2.041  1.00  0.00     0.046 C 
BRANCH  21  23
HETATM   23  N   UNL     1      41.550 -12.975   0.489  1.00  0.00    -0.075 N 
HETATM   24  H   UNL     1      41.940 -13.816   0.934  1.00  0.00     0.274 HD
HETATM   25  H   UNL     1      41.868 -12.958  -0.488  1.00  0.00     0.274 HD
HETATM   26  H   UNL     1      42.001 -12.151   0.944  1.00  0.00     0.274 HD
ENDBRANCH  21  23
ENDBRANCH  15  18
ENDBRANCH   1  14
TORSDOF 3
ENDMDL
MODEL 6
REMARK VINA RESULT:      -7.2      1.626      1.985
REMARK  3 active torsions:
REMARK  status: ('A' for Active; 'I' for Inactive)
REMARK    1  A    between atoms: N_1  and  C_5 
REMARK    2  A    between atoms: C_8  and  C_10 
REMARK       I    between atoms: C_10  and  N_12 
REMARK    3  A    between atoms: N_12  and  C_13 
ROOT
HETATM    1  C   UNL     1      42.089 -16.902   3.407  1.00  0.00     0.057 A 
HETATM    2  C   UNL     1      42.850 -17.517   4.409  1.00  0.00     0.043 A 
HETATM    3  C   UNL     1      43.507 -18.732   4.156  1.00  0.00    -0.017 A 
HETATM    4  C   UNL     1      44.290 -19.399   5.200  1.00  0.00     0.029 A 
HETATM    5  C   UNL     1      44.897 -20.560   4.926  1.00  0.00     0.092 A 
HETATM    6  N   UNL     1      44.807 -21.138   3.687  1.00  0.00    -0.333 N 
HETATM    7  C   UNL     1      44.103 -20.608   2.628  1.00  0.00     0.256 A 
HETATM    8  O   UNL     1      44.051 -21.156   1.535  1.00  0.00    -0.267 OA
HETATM    9  C   UNL     1      43.405 -19.322   2.887  1.00  0.00     0.044 A 
HETATM   10  C   UNL     1      42.654 -18.722   1.877  1.00  0.00     0.044 A 
HETATM   11  C   UNL     1      41.997 -17.523   2.142  1.00  0.00     0.061 A 
HETATM   12 CL   UNL     1      41.068 -16.799   0.873  1.00  0.00    -0.082 Cl
HETATM   13  H   UNL     1      45.275 -22.019   3.502  1.00  0.00     0.168 HD
ENDROOT
BRANCH   1  14
HETATM   14  N   UNL     1      41.380 -15.690   3.600  1.00  0.00    -0.325 N 
HETATM   15  C   UNL     1      40.776 -15.225   4.743  1.00  0.00     0.226 C 
HETATM   16  O   UNL     1      40.827 -15.726   5.866  1.00  0.00    -0.273 OA
HETATM   17  H   UNL     1      41.355 -15.097   2.773  1.00  0.00     0.169 HD
BRANCH  15  18
HETATM   18  C   UNL     1      40.075 -13.880   4.539  1.00  0.00     0.080 C 
HETATM   19  C   UNL     1      40.830 -13.032   3.518  1.00  0.00     0.016 C 
HETATM   20  C   UNL     1      41.962 -12.375   4.315  1.00  0.00     0.033 C 
HETATM   21  C   UNL     1      41.493 -12.340   5.773  1.00  0.00     0.184 C 
HETATM   22  C   UNL     1      40.111 -12.998   5.791  1.00  0.00     0.046 C 
BRANCH  21  23
HETATM   23  N   UNL     1      42.428 -13.123   6.620  1.00  0.00    -0.075 N 
HETATM   24  H   UNL     1      41.955 -13.837   7.188  1.00  0.00     0.274 HD
HETATM   25  H   UNL     1      43.154 -13.590   6.064  1.00  0.00     0.274 HD
HETATM   26  H   UNL     1      42.940 -12.497   7.279  1.00  0.00     0.274 HD
ENDBRANCH  21  23
ENDBRANCH  15  18
ENDBRANCH   1  14
TORSDOF 3
ENDMDL
MODEL 7
REMARK VINA RESULT:      -7.0      3.533      6.202
REMARK  3 active torsions:
REMARK  status: ('A' for Active; 'I' for Inactive)
REMARK    1  A    between atoms: N_1  and  C_5 
REMARK    2  A    between atoms: C_8  and  C_10 
REMARK       I    between atoms: C_10  and  N_12 
REMARK    3  A    between atoms: N_12  and  C_13 
ROOT
HETATM    1  C   UNL     1      41.774 -16.627   2.497  1.00  0.00     0.057 A 
HETATM    2  C   UNL     1      40.532 -15.994   2.632  1.00  0.00     0.043 A 
HETATM    3  C   UNL     1      39.938 -15.356   1.531  1.00  0.00    -0.017 A 
HETATM    4  C   UNL     1      38.648 -14.671   1.660  1.00  0.00     0.029 A 
HETATM    5  C   UNL     1      38.115 -14.067   0.592  1.00  0.00     0.092 A 
HETATM    6  N   UNL     1      38.746 -14.078  -0.624  1.00  0.00    -0.333 N 
HETATM    7  C   UNL     1      39.957 -14.686  -0.869  1.00  0.00     0.256 A 
HETATM    8  O   UNL     1      40.486 -14.674  -1.972  1.00  0.00    -0.267 OA
HETATM    9  C   UNL     1      40.593 -15.364   0.290  1.00  0.00     0.044 A 
HETATM   10  C   UNL     1      41.830 -15.991   0.137  1.00  0.00     0.044 A 
HETATM   11  C   UNL     1      42.414 -16.612   1.239  1.00  0.00     0.061 A 
HETATM   12 CL   UNL     1      43.951 -17.381   1.025  1.00  0.00    -0.082 Cl
HETATM   13  H   UNL     1      38.323 -13.613  -1.421  1.00  0.00     0.168 HD
ENDROOT
BRANCH   1  14
HETATM   14  N   UNL     1      42.443 -17.267   3.570  1.00  0.00    -0.325 N 
HETATM   15  C   UNL     1      43.356 -16.737   4.448  1.00  0.00     0.226 C 
HETATM   16  O   UNL     1      43.695 -15.557   4.543  1.00  0.00    -0.273 OA
HETATM   17  H   UNL     1      42.169 -18.239   3.698  1.00  0.00     0.169 HD
BRANCH  15  18
HETATM   18  C   UNL     1      43.882 -17.765   5.452  1.00  0.00     0.080 C 
HETATM   19  C   UNL     1      42.727 -18.401   6.221  1.00  0.00     0.016 C 
HETATM   20  C   UNL     1      42.405 -17.403   7.340  1.00  0.00     0.033 C 
HETATM   21  C   UNL     1      43.686 -16.597   7.574  1.00  0.00     0.184 C 
HETATM   22  C   UNL     1      44.713 -17.128   6.571  1.00  0.00     0.046 C 
BRANCH  21  23
HETATM   23  N   UNL     1      43.429 -15.159   7.307  1.00  0.00    -0.075 N 
HETATM   24  H   UNL     1      42.905 -14.697   8.061  1.00  0.00     0.274 HD
HETATM   25  H   UNL     1      44.298 -14.632   7.158  1.00  0.00     0.274 HD
HETATM   26  H   UNL     1      42.876 -15.039   6.431  1.00  0.00     0.274 HD
ENDBRANCH  21  23
ENDBRANCH  15  18
ENDBRANCH   1  14
TORSDOF 3
ENDMDL
MODEL 8
REMARK VINA RESULT:      -6.9      4.245      5.530
REMARK  3 active torsions:
REMARK  status: ('A' for Active; 'I' for Inactive)
REMARK    1  A    between atoms: N_1  and  C_5 
REMARK    2  A    between atoms: C_8  and  C_10 
REMARK       I    between atoms: C_10  and  N_12 
REMARK    3  A    between atoms: N_12  and  C_13 
ROOT
HETATM    1  C   UNL     1      42.502 -15.803   0.993  1.00  0.00     0.057 A 
HETATM    2  C   UNL     1      42.702 -17.176   0.807  1.00  0.00     0.043 A 
HETATM    3  C   UNL     1      43.179 -17.972   1.861  1.00  0.00    -0.017 A 
HETATM    4  C   UNL     1      43.415 -19.408   1.677  1.00  0.00     0.029 A 
HETATM    5  C   UNL     1      43.877 -20.134   2.701  1.00  0.00     0.092 A 
HETATM    6  N   UNL     1      44.131 -19.567   3.922  1.00  0.00    -0.333 N 
HETATM    7  C   UNL     1      43.950 -18.234   4.216  1.00  0.00     0.256 A 
HETATM    8  O   UNL     1      44.187 -17.768   5.322  1.00  0.00    -0.267 OA
HETATM    9  C   UNL     1      43.445 -17.384   3.107  1.00  0.00     0.044 A 
HETATM   10  C   UNL     1      43.248 -16.018   3.310  1.00  0.00     0.044 A 
HETATM   11  C   UNL     1      42.785 -15.237   2.255  1.00  0.00     0.061 A 
HETATM   12 CL   UNL     1      42.552 -13.542   2.531  1.00  0.00    -0.082 Cl
HETATM   13  H   UNL     1      44.482 -20.138   4.685  1.00  0.00     0.168 HD
ENDROOT
BRANCH   1  14
HETATM   14  N   UNL     1      42.047 -14.936  -0.032  1.00  0.00    -0.325 N 
HETATM   15  C   UNL     1      40.763 -14.532  -0.304  1.00  0.00     0.226 C 
HETATM   16  O   UNL     1      39.756 -14.761   0.365  1.00  0.00    -0.273 OA
HETATM   17  H   UNL     1      42.797 -14.559  -0.608  1.00  0.00     0.169 HD
BRANCH  15  18
HETATM   18  C   UNL     1      40.675 -13.614  -1.526  1.00  0.00     0.080 C 
HETATM   19  C   UNL     1      39.218 -13.295  -1.852  1.00  0.00     0.016 C 
HETATM   20  C   UNL     1      38.727 -14.500  -2.663  1.00  0.00     0.033 C 
HETATM   21  C   UNL     1      39.974 -15.129  -3.291  1.00  0.00     0.184 C 
HETATM   22  C   UNL     1      41.161 -14.290  -2.812  1.00  0.00     0.046 C 
BRANCH  21  23
HETATM   23  N   UNL     1      40.126 -16.526  -2.812  1.00  0.00    -0.075 N 
HETATM   24  H   UNL     1      40.690 -17.108  -3.443  1.00  0.00     0.274 HD
HETATM   25  H   UNL     1      40.550 -16.570  -1.877  1.00  0.00     0.274 HD
HETATM   26  H   UNL     1      39.196 -16.988  -2.718  1.00  0.00     0.274 HD
ENDBRANCH  21  23
ENDBRANCH  15  18
ENDBRANCH   1  14
TORSDOF 3
ENDMDL
MODEL 9
REMARK VINA RESULT:      -6.6      2.624      3.472
REMARK  3 active torsions:
REMARK  status: ('A' for Active; 'I' for Inactive)
REMARK    1  A    between atoms: N_1  and  C_5 
REMARK    2  A    between atoms: C_8  and  C_10 
REMARK       I    between atoms: C_10  and  N_12 
REMARK    3  A    between atoms: N_12  and  C_13 
ROOT
HETATM    1  C   UNL     1      42.523 -16.052   2.489  1.00  0.00     0.057 A 
HETATM    2  C   UNL     1      43.146 -16.458   3.675  1.00  0.00     0.043 A 
HETATM    3  C   UNL     1      43.653 -17.762   3.800  1.00  0.00    -0.017 A 
HETATM    4  C   UNL     1      44.290 -18.210   5.042  1.00  0.00     0.029 A 
HETATM    5  C   UNL     1      44.754 -19.462   5.128  1.00  0.00     0.092 A 
HETATM    6  N   UNL     1      44.652 -20.336   4.077  1.00  0.00    -0.333 N 
HETATM    7  C   UNL     1      44.076 -20.032   2.864  1.00  0.00     0.256 A 
HETATM    8  O   UNL     1      44.008 -20.843   1.949  1.00  0.00    -0.267 OA
HETATM    9  C   UNL     1      43.539 -18.655   2.722  1.00  0.00     0.044 A 
HETATM   10  C   UNL     1      42.923 -18.266   1.533  1.00  0.00     0.044 A 
HETATM   11  C   UNL     1      42.415 -16.974   1.425  1.00  0.00     0.061 A 
HETATM   12 CL   UNL     1      41.651 -16.516  -0.061  1.00  0.00    -0.082 Cl
HETATM   13  H   UNL     1      45.011 -21.281   4.166  1.00  0.00     0.168 HD
ENDROOT
BRANCH   1  14
HETATM   14  N   UNL     1      41.968 -14.762   2.303  1.00  0.00    -0.325 N 
HETATM   15  C   UNL     1      40.664 -14.360   2.463  1.00  0.00     0.226 C 
HETATM   16  O   UNL     1      39.731 -15.027   2.910  1.00  0.00    -0.273 OA
HETATM   17  H   UNL     1      42.654 -14.056   2.043  1.00  0.00     0.169 HD
BRANCH  15  18
HETATM   18  C   UNL     1      40.453 -12.881   2.129  1.00  0.00     0.080 C 
HETATM   19  C   UNL     1      39.068 -12.424   2.580  1.00  0.00     0.016 C 
HETATM   20  C   UNL     1      38.125 -12.861   1.454  1.00  0.00     0.033 C 
HETATM   21  C   UNL     1      38.988 -12.968   0.193  1.00  0.00     0.184 C 
HETATM   22  C   UNL     1      40.413 -12.613   0.621  1.00  0.00     0.046 C 
BRANCH  21  23
HETATM   23  N   UNL     1      38.955 -14.361  -0.321  1.00  0.00    -0.075 N 
HETATM   24  H   UNL     1      38.029 -14.798  -0.239  1.00  0.00     0.274 HD
HETATM   25  H   UNL     1      39.245 -14.416  -1.305  1.00  0.00     0.274 HD
HETATM   26  H   UNL     1      39.627 -14.963   0.202  1.00  0.00     0.274 HD
ENDBRANCH  21  23
ENDBRANCH  15  18
ENDBRANCH   1  14
TORSDOF 3
ENDMDL
MODEL 10
REMARK VINA RESULT:      -6.6      2.800      6.999
REMARK  3 active torsions:
REMARK  status: ('A' for Active; 'I' for Inactive)
REMARK    1  A    between atoms: N_1  and  C_5 
REMARK    2  A    between atoms: C_8  and  C_10 
REMARK       I    between atoms: C_10  and  N_12 
REMARK    3  A    between atoms: N_12  and  C_13 
ROOT
HETATM    1  C   UNL     1      42.408 -15.534   4.603  1.00  0.00     0.057 A 
HETATM    2  C   UNL     1      41.630 -14.862   5.553  1.00  0.00     0.043 A 
HETATM    3  C   UNL     1      40.711 -13.879   5.151  1.00  0.00    -0.017 A 
HETATM    4  C   UNL     1      39.904 -13.150   6.134  1.00  0.00     0.029 A 
HETATM    5  C   UNL     1      39.044 -12.215   5.715  1.00  0.00     0.092 A 
HETATM    6  N   UNL     1      38.896 -11.925   4.384  1.00  0.00    -0.333 N 
HETATM    7  C   UNL     1      39.596 -12.540   3.370  1.00  0.00     0.256 A 
HETATM    8  O   UNL     1      39.431 -12.253   2.192  1.00  0.00    -0.267 OA
HETATM    9  C   UNL     1      40.569 -13.581   3.786  1.00  0.00     0.044 A 
HETATM   10  C   UNL     1      41.335 -14.244   2.826  1.00  0.00     0.044 A 
HETATM   11  C   UNL     1      42.251 -15.208   3.238  1.00  0.00     0.061 A 
HETATM   12 CL   UNL     1      43.191 -16.014   2.028  1.00  0.00    -0.082 Cl
HETATM   13  H   UNL     1      38.238 -11.212   4.090  1.00  0.00     0.168 HD
ENDROOT
BRANCH   1  14
HETATM   14  N   UNL     1      43.372 -16.517   4.940  1.00  0.00    -0.325 N 
HETATM   15  C   UNL     1      43.216 -17.880   5.007  1.00  0.00     0.226 C 
HETATM   16  O   UNL     1      42.224 -18.531   4.678  1.00  0.00    -0.273 OA
HETATM   17  H   UNL     1      44.297 -16.135   5.124  1.00  0.00     0.169 HD
BRANCH  15  18
HETATM   18  C   UNL     1      44.492 -18.604   5.445  1.00  0.00     0.080 C 
HETATM   19  C   UNL     1      44.172 -20.026   5.897  1.00  0.00     0.016 C 
HETATM   20  C   UNL     1      43.701 -19.878   7.349  1.00  0.00     0.033 C 
HETATM   21  C   UNL     1      44.322 -18.578   7.868  1.00  0.00     0.184 C 
HETATM   22  C   UNL     1      45.119 -17.991   6.701  1.00  0.00     0.046 C 
BRANCH  21  23
HETATM   23  N   UNL     1      43.249 -17.632   8.264  1.00  0.00    -0.075 N 
HETATM   24  H   UNL     1      43.151 -17.537   9.282  1.00  0.00     0.274 HD
HETATM   25  H   UNL     1      43.396 -16.695   7.871  1.00  0.00     0.274 HD
HETATM   26  H   UNL     1      42.325 -17.947   7.895  1.00  0.00     0.274 HD
ENDBRANCH  21  23
ENDBRANCH  15  18
ENDBRANCH   1  14
TORSDOF 3
ENDMDL
