MODEL 1
REMARK VINA RESULT:      -8.5      0.000      0.000
REMARK  5 active torsions:
REMARK  status: ('A' for Active; 'I' for Inactive)
REMARK    1  A    between atoms: C_4  and  C_5 
REMARK    2  A    between atoms: C_5  and  C_6 
REMARK    3  A    between atoms: C_6  and  C_7 
REMARK       I    between atoms: C_7  and  N_8 
REMARK    4  A    between atoms: N_8  and  C_9 
REMARK    5  A    between atoms: C_11  and  C_12 
ROOT
HETATM    1  C   UNL     1      43.464 -16.686   3.550  1.00  0.00     0.035 A 
HETATM    2  C   UNL     1      43.761 -18.041   3.731  1.00  0.00     0.042 A 
HETATM    3  C   UNL     1      43.865 -18.920   2.638  1.00  0.00    -0.021 A 
HETATM    4  C   UNL     1      43.664 -18.408   1.348  1.00  0.00     0.012 A 
HETATM    5  C   UNL     1      43.371 -17.058   1.156  1.00  0.00     0.003 A 
HETATM    6  C   UNL     1      43.273 -16.202   2.252  1.00  0.00     0.029 A 
ENDROOT
BRANCH   1   7
HETATM    7  N   UNL     1      43.331 -15.760   4.603  1.00  0.00    -0.327 N 
HETATM    8  C   UNL     1      43.667 -14.420   4.608  1.00  0.00     0.222 C 
HETATM    9  O   UNL     1      44.115 -13.770   3.667  1.00  0.00    -0.273 OA
HETATM   10  H   UNL     1      42.900 -16.110   5.455  1.00  0.00     0.169 HD
BRANCH   8  11
HETATM   11  C   UNL     1      43.430 -13.755   5.951  1.00  0.00     0.110 C 
BRANCH  11  12
HETATM   12  C   UNL     1      44.356 -14.298   7.031  1.00  0.00     0.074 C 
BRANCH  12  13
HETATM   13  C   UNL     1      45.127 -13.268   7.784  1.00  0.00     0.053 A 
HETATM   14  O   UNL     1      44.617 -12.825   8.971  1.00  0.00    -0.320 OA
HETATM   15  C   UNL     1      45.493 -11.907   9.467  1.00  0.00     0.049 A 
HETATM   16  C   UNL     1      45.143 -11.286  10.761  1.00  0.00     0.076 C 
HETATM   17  C   UNL     1      46.563 -11.761   8.612  1.00  0.00     0.035 A 
HETATM   18  C   UNL     1      46.327 -12.637   7.527  1.00  0.00     0.035 A 
ENDBRANCH  12  13
ENDBRANCH  11  12
ENDBRANCH   8  11
ENDBRANCH   1   7
BRANCH   3  19
HETATM   19  C   UNL     1      44.177 -20.333   2.823  1.00  0.00     0.010 A 
HETATM   20  C   UNL     1      44.074 -21.431   1.933  1.00  0.00     0.152 A 
HETATM   21  N   UNL     1      44.457 -22.588   2.480  1.00  0.00    -0.187 NA
HETATM   22  N   UNL     1      44.813 -22.238   3.725  1.00  0.00    -0.289 N 
HETATM   23  H   UNL     1      45.150 -22.961   4.352  1.00  0.00     0.188 HD
HETATM   24  C   UNL     1      44.659 -20.906   3.981  1.00  0.00     0.123 A 
ENDBRANCH   3  19
TORSDOF 5
ENDMDL
MODEL 2
REMARK VINA RESULT:      -8.4      1.951      2.888
REMARK  5 active torsions:
REMARK  status: ('A' for Active; 'I' for Inactive)
REMARK    1  A    between atoms: C_4  and  C_5 
REMARK    2  A    between atoms: C_5  and  C_6 
REMARK    3  A    between atoms: C_6  and  C_7 
REMARK       I    between atoms: C_7  and  N_8 
REMARK    4  A    between atoms: N_8  and  C_9 
REMARK    5  A    between atoms: C_11  and  C_12 
ROOT
HETATM    1  C   UNL     1      44.188 -17.791   6.523  1.00  0.00     0.035 A 
HETATM    2  C   UNL     1      44.358 -18.563   5.368  1.00  0.00     0.042 A 
HETATM    3  C   UNL     1      44.230 -19.964   5.399  1.00  0.00    -0.021 A 
HETATM    4  C   UNL     1      43.924 -20.579   6.621  1.00  0.00     0.012 A 
HETATM    5  C   UNL     1      43.748 -19.819   7.777  1.00  0.00     0.003 A 
HETATM    6  C   UNL     1      43.878 -18.432   7.727  1.00  0.00     0.029 A 
ENDROOT
BRANCH   1   7
HETATM    7  N   UNL     1      44.318 -16.389   6.561  1.00  0.00    -0.327 N 
HETATM    8  C   UNL     1      43.390 -15.436   6.191  1.00  0.00     0.222 C 
HETATM    9  O   UNL     1      42.247 -15.638   5.792  1.00  0.00    -0.273 OA
HETATM   10  H   UNL     1      45.190 -16.032   6.943  1.00  0.00     0.169 HD
BRANCH   8  11
HETATM   11  C   UNL     1      43.914 -14.017   6.320  1.00  0.00     0.110 C 
BRANCH  11  12
HETATM   12  C   UNL     1      45.255 -13.964   7.041  1.00  0.00     0.074 C 
BRANCH  12  13
HETATM   13  C   UNL     1      45.336 -12.982   8.160  1.00  0.00     0.053 A 
HETATM   14  O   UNL     1      44.496 -13.151   9.224  1.00  0.00    -0.320 OA
HETATM   15  C   UNL     1      44.762 -12.149  10.108  1.00  0.00     0.049 A 
HETATM   16  C   UNL     1      43.963 -12.130  11.350  1.00  0.00     0.076 C 
HETATM   17  C   UNL     1      45.768 -11.343   9.623  1.00  0.00     0.035 A 
HETATM   18  C   UNL     1      46.138 -11.879   8.367  1.00  0.00     0.035 A 
ENDBRANCH  12  13
ENDBRANCH  11  12
ENDBRANCH   8  11
ENDBRANCH   1   7
BRANCH   3  19
HETATM   19  C   UNL     1      44.404 -20.771   4.197  1.00  0.00     0.010 A 
HETATM   20  C   UNL     1      44.544 -22.172   4.032  1.00  0.00     0.152 A 
HETATM   21  N   UNL     1      44.690 -22.538   2.755  1.00  0.00    -0.187 NA
HETATM   22  N   UNL     1      44.641 -21.372   2.092  1.00  0.00    -0.289 N 
HETATM   23  H   UNL     1      44.728 -21.388   1.081  1.00  0.00     0.188 HD
HETATM   24  C   UNL     1      44.478 -20.289   2.906  1.00  0.00     0.123 A 
ENDBRANCH   3  19
TORSDOF 5
ENDMDL
MODEL 3
REMARK VINA RESULT:      -8.1      3.445      5.755
REMARK  5 active torsions:
REMARK  status: ('A' for Active; 'I' for Inactive)
REMARK    1  A    between atoms: C_4  and  C_5 
REMARK    2  A    between atoms: C_5  and  C_6 
REMARK    3  A    between atoms: C_6  and  C_7 
REMARK       I    between atoms: C_7  and  N_8 
REMARK    4  A    between atoms: N_8  and  C_9 
REMARK    5  A    between atoms: C_11  and  C_12 
ROOT
HETATM    1  C   UNL     1      43.501 -17.106   5.133  1.00  0.00     0.035 A 
HETATM    2  C   UNL     1      43.555 -18.242   4.318  1.00  0.00     0.042 A 
HETATM    3  C   UNL     1      44.353 -19.349   4.660  1.00  0.00    -0.021 A 
HETATM    4  C   UNL     1      45.100 -19.293   5.844  1.00  0.00     0.012 A 
HETATM    5  C   UNL     1      45.050 -18.167   6.666  1.00  0.00     0.003 A 
HETATM    6  C   UNL     1      44.253 -17.080   6.311  1.00  0.00     0.029 A 
ENDROOT
BRANCH   1   7
HETATM    7  N   UNL     1      42.735 -15.960   4.839  1.00  0.00    -0.327 N 
HETATM    8  C   UNL     1      41.416 -15.710   5.163  1.00  0.00     0.222 C 
HETATM    9  O   UNL     1      40.667 -16.435   5.811  1.00  0.00    -0.273 OA
HETATM   10  H   UNL     1      43.223 -15.207   4.361  1.00  0.00     0.169 HD
BRANCH   8  11
HETATM   11  C   UNL     1      40.915 -14.382   4.625  1.00  0.00     0.110 C 
BRANCH  11  12
HETATM   12  C   UNL     1      40.220 -14.534   3.278  1.00  0.00     0.074 C 
BRANCH  12  13
HETATM   13  C   UNL     1      40.663 -15.701   2.463  1.00  0.00     0.053 A 
HETATM   14  O   UNL     1      41.977 -15.765   2.096  1.00  0.00    -0.320 OA
HETATM   15  C   UNL     1      42.138 -16.911   1.376  1.00  0.00     0.049 A 
HETATM   16  C   UNL     1      43.496 -17.191   0.869  1.00  0.00     0.076 C 
HETATM   17  C   UNL     1      40.941 -17.584   1.283  1.00  0.00     0.035 A 
HETATM   18  C   UNL     1      39.989 -16.805   1.983  1.00  0.00     0.035 A 
ENDBRANCH  12  13
ENDBRANCH  11  12
ENDBRANCH   8  11
ENDBRANCH   1   7
BRANCH   3  19
HETATM   19  C   UNL     1      44.410 -20.537   3.814  1.00  0.00     0.010 A 
HETATM   20  C   UNL     1      44.692 -21.889   4.130  1.00  0.00     0.152 A 
HETATM   21  N   UNL     1      44.653 -22.696   3.066  1.00  0.00    -0.187 NA
HETATM   22  N   UNL     1      44.341 -21.865   2.060  1.00  0.00    -0.289 N 
HETATM   23  H   UNL     1      44.248 -22.252   1.126  1.00  0.00     0.188 HD
HETATM   24  C   UNL     1      44.191 -20.567   2.452  1.00  0.00     0.123 A 
ENDBRANCH   3  19
TORSDOF 5
ENDMDL
MODEL 4
REMARK VINA RESULT:      -7.9      4.007      8.152
REMARK  5 active torsions:
REMARK  status: ('A' for Active; 'I' for Inactive)
REMARK    1  A    between atoms: C_4  and  C_5 
REMARK    2  A    between atoms: C_5  and  C_6 
REMARK    3  A    between atoms: C_6  and  C_7 
REMARK       I    between atoms: C_7  and  N_8 
REMARK    4  A    between atoms: N_8  and  C_9 
REMARK    5  A    between atoms: C_11  and  C_12 
ROOT
HETATM    1  C   UNL     1      43.119 -18.689   3.052  1.00  0.00     0.035 A 
HETATM    2  C   UNL     1      43.052 -18.208   4.364  1.00  0.00     0.042 A 
HETATM    3  C   UNL     1      43.827 -18.777   5.392  1.00  0.00    -0.021 A 
HETATM    4  C   UNL     1      44.677 -19.845   5.074  1.00  0.00     0.012 A 
HETATM    5  C   UNL     1      44.754 -20.329   3.768  1.00  0.00     0.003 A 
HETATM    6  C   UNL     1      43.980 -19.753   2.763  1.00  0.00     0.029 A 
ENDROOT
BRANCH   1   7
HETATM    7  N   UNL     1      42.359 -18.174   1.984  1.00  0.00    -0.327 N 
HETATM    8  C   UNL     1      42.353 -16.887   1.484  1.00  0.00     0.222 C 
HETATM    9  O   UNL     1      43.049 -15.948   1.859  1.00  0.00    -0.273 OA
HETATM   10  H   UNL     1      41.767 -18.841   1.494  1.00  0.00     0.169 HD
BRANCH   8  11
HETATM   11  C   UNL     1      41.354 -16.694   0.357  1.00  0.00     0.110 C 
BRANCH  11  12
HETATM   12  C   UNL     1      41.540 -15.358  -0.351  1.00  0.00     0.074 C 
BRANCH  12  13
HETATM   13  C   UNL     1      40.747 -15.187  -1.602  1.00  0.00     0.053 A 
HETATM   14  O   UNL     1      39.622 -14.413  -1.548  1.00  0.00    -0.320 OA
HETATM   15  C   UNL     1      39.082 -14.401  -2.799  1.00  0.00     0.049 A 
HETATM   16  C   UNL     1      37.844 -13.617  -2.980  1.00  0.00     0.076 C 
HETATM   17  C   UNL     1      39.853 -15.154  -3.656  1.00  0.00     0.035 A 
HETATM   18  C   UNL     1      40.926 -15.662  -2.885  1.00  0.00     0.035 A 
ENDBRANCH  12  13
ENDBRANCH  11  12
ENDBRANCH   8  11
ENDBRANCH   1   7
BRANCH   3  19
HETATM   19  C   UNL     1      43.762 -18.276   6.761  1.00  0.00     0.010 A 
HETATM   20  C   UNL     1      43.436 -16.993   7.265  1.00  0.00     0.152 A 
HETATM   21  N   UNL     1      43.492 -16.923   8.598  1.00  0.00    -0.187 NA
HETATM   22  N   UNL     1      43.851 -18.165   8.958  1.00  0.00    -0.289 N 
HETATM   23  H   UNL     1      43.960 -18.369   9.946  1.00  0.00     0.188 HD
HETATM   24  C   UNL     1      44.030 -19.008   7.900  1.00  0.00     0.123 A 
ENDBRANCH   3  19
TORSDOF 5
ENDMDL
MODEL 5
REMARK VINA RESULT:      -7.9      3.964      7.780
REMARK  5 active torsions:
REMARK  status: ('A' for Active; 'I' for Inactive)
REMARK    1  A    between atoms: C_4  and  C_5 
REMARK    2  A    between atoms: C_5  and  C_6 
REMARK    3  A    between atoms: C_6  and  C_7 
REMARK       I    between atoms: C_7  and  N_8 
REMARK    4  A    between atoms: N_8  and  C_9 
REMARK    5  A    between atoms: C_11  and  C_12 
ROOT
HETATM    1  C   UNL     1      43.136 -18.709   3.089  1.00  0.00     0.035 A 
HETATM    2  C   UNL     1      43.064 -18.208   4.393  1.00  0.00     0.042 A 
HETATM    3  C   UNL     1      43.842 -18.755   5.430  1.00  0.00    -0.021 A 
HETATM    4  C   UNL     1      44.699 -19.823   5.130  1.00  0.00     0.012 A 
HETATM    5  C   UNL     1      44.782 -20.327   3.832  1.00  0.00     0.003 A 
HETATM    6  C   UNL     1      44.004 -19.771   2.817  1.00  0.00     0.029 A 
ENDROOT
BRANCH   1   7
HETATM    7  N   UNL     1      42.373 -18.216   2.012  1.00  0.00    -0.327 N 
HETATM    8  C   UNL     1      42.332 -16.929   1.515  1.00  0.00     0.222 C 
HETATM    9  O   UNL     1      42.992 -15.969   1.901  1.00  0.00    -0.273 OA
HETATM   10  H   UNL     1      41.810 -18.900   1.513  1.00  0.00     0.169 HD
BRANCH   8  11
HETATM   11  C   UNL     1      41.343 -16.765   0.375  1.00  0.00     0.110 C 
BRANCH  11  12
HETATM   12  C   UNL     1      41.001 -15.303   0.118  1.00  0.00     0.074 C 
BRANCH  12  13
HETATM   13  C   UNL     1      41.168 -14.851  -1.293  1.00  0.00     0.053 A 
HETATM   14  O   UNL     1      41.726 -13.624  -1.512  1.00  0.00    -0.320 OA
HETATM   15  C   UNL     1      41.780 -13.442  -2.861  1.00  0.00     0.049 A 
HETATM   16  C   UNL     1      42.354 -12.168  -3.337  1.00  0.00     0.076 C 
HETATM   17  C   UNL     1      41.267 -14.543  -3.509  1.00  0.00     0.035 A 
HETATM   18  C   UNL     1      40.871 -15.452  -2.499  1.00  0.00     0.035 A 
ENDBRANCH  12  13
ENDBRANCH  11  12
ENDBRANCH   8  11
ENDBRANCH   1   7
BRANCH   3  19
HETATM   19  C   UNL     1      43.771 -18.234   6.791  1.00  0.00     0.010 A 
HETATM   20  C   UNL     1      43.463 -16.938   7.274  1.00  0.00     0.152 A 
HETATM   21  N   UNL     1      43.507 -16.850   8.606  1.00  0.00    -0.187 NA
HETATM   22  N   UNL     1      43.841 -18.093   8.987  1.00  0.00    -0.289 N 
HETATM   23  H   UNL     1      43.936 -18.284   9.979  1.00  0.00     0.188 HD
HETATM   24  C   UNL     1      44.015 -18.954   7.943  1.00  0.00     0.123 A 
ENDBRANCH   3  19
TORSDOF 5
ENDMDL
MODEL 6
REMARK VINA RESULT:      -7.9      4.242      6.347
REMARK  5 active torsions:
REMARK  status: ('A' for Active; 'I' for Inactive)
REMARK    1  A    between atoms: C_4  and  C_5 
REMARK    2  A    between atoms: C_5  and  C_6 
REMARK    3  A    between atoms: C_6  and  C_7 
REMARK       I    between atoms: C_7  and  N_8 
REMARK    4  A    between atoms: N_8  and  C_9 
REMARK    5  A    between atoms: C_11  and  C_12 
ROOT
HETATM    1  C   UNL     1      43.273 -17.338   2.815  1.00  0.00     0.035 A 
HETATM    2  C   UNL     1      43.601 -18.694   2.713  1.00  0.00     0.042 A 
HETATM    3  C   UNL     1      44.049 -19.424   3.828  1.00  0.00    -0.021 A 
HETATM    4  C   UNL     1      44.162 -18.762   5.059  1.00  0.00     0.012 A 
HETATM    5  C   UNL     1      43.833 -17.411   5.173  1.00  0.00     0.003 A 
HETATM    6  C   UNL     1      43.390 -16.704   4.057  1.00  0.00     0.029 A 
ENDROOT
BRANCH   1   7
HETATM    7  N   UNL     1      42.835 -16.548   1.734  1.00  0.00    -0.327 N 
HETATM    8  C   UNL     1      41.577 -16.503   1.166  1.00  0.00     0.222 C 
HETATM    9  O   UNL     1      40.582 -17.124   1.529  1.00  0.00    -0.273 OA
HETATM   10  H   UNL     1      43.518 -15.903   1.346  1.00  0.00     0.169 HD
BRANCH   8  11
HETATM   11  C   UNL     1      41.498 -15.566  -0.026  1.00  0.00     0.110 C 
BRANCH  11  12
HETATM   12  C   UNL     1      41.581 -14.103   0.388  1.00  0.00     0.074 C 
BRANCH  12  13
HETATM   13  C   UNL     1      42.072 -13.171  -0.667  1.00  0.00     0.053 A 
HETATM   14  O   UNL     1      42.642 -11.995  -0.270  1.00  0.00    -0.320 OA
HETATM   15  C   UNL     1      43.015 -11.328  -1.399  1.00  0.00     0.049 A 
HETATM   16  C   UNL     1      43.660 -10.014  -1.211  1.00  0.00     0.076 C 
HETATM   17  C   UNL     1      42.694 -12.069  -2.515  1.00  0.00     0.035 A 
HETATM   18  C   UNL     1      42.086 -13.256  -2.044  1.00  0.00     0.035 A 
ENDBRANCH  12  13
ENDBRANCH  11  12
ENDBRANCH   8  11
ENDBRANCH   1   7
BRANCH   3  19
HETATM   19  C   UNL     1      44.390 -20.839   3.726  1.00  0.00     0.010 A 
HETATM   20  C   UNL     1      44.393 -21.714   2.611  1.00  0.00     0.152 A 
HETATM   21  N   UNL     1      44.767 -22.959   2.922  1.00  0.00    -0.187 NA
HETATM   22  N   UNL     1      45.011 -22.888   4.240  1.00  0.00    -0.289 N 
HETATM   23  H   UNL     1      45.319 -23.727   4.719  1.00  0.00     0.188 HD
HETATM   24  C   UNL     1      44.795 -21.648   4.768  1.00  0.00     0.123 A 
ENDBRANCH   3  19
TORSDOF 5
ENDMDL
MODEL 7
REMARK VINA RESULT:      -7.9      2.186      2.930
REMARK  5 active torsions:
REMARK  status: ('A' for Active; 'I' for Inactive)
REMARK    1  A    between atoms: C_4  and  C_5 
REMARK    2  A    between atoms: C_5  and  C_6 
REMARK    3  A    between atoms: C_6  and  C_7 
REMARK       I    between atoms: C_7  and  N_8 
REMARK    4  A    between atoms: N_8  and  C_9 
REMARK    5  A    between atoms: C_11  and  C_12 
ROOT
HETATM    1  C   UNL     1      42.898 -16.548   2.873  1.00  0.00     0.035 A 
HETATM    2  C   UNL     1      43.259 -17.679   3.613  1.00  0.00     0.042 A 
HETATM    3  C   UNL     1      43.847 -18.799   2.998  1.00  0.00    -0.021 A 
HETATM    4  C   UNL     1      44.068 -18.762   1.614  1.00  0.00     0.012 A 
HETATM    5  C   UNL     1      43.716 -17.638   0.867  1.00  0.00     0.003 A 
HETATM    6  C   UNL     1      43.135 -16.537   1.494  1.00  0.00     0.029 A 
ENDROOT
BRANCH   1   7
HETATM    7  N   UNL     1      42.293 -15.403   3.426  1.00  0.00    -0.327 N 
HETATM    8  C   UNL     1      42.768 -14.106   3.433  1.00  0.00     0.222 C 
HETATM    9  O   UNL     1      43.804 -13.699   2.916  1.00  0.00    -0.273 OA
HETATM   10  H   UNL     1      41.374 -15.538   3.840  1.00  0.00     0.169 HD
BRANCH   8  11
HETATM   11  C   UNL     1      41.859 -13.146   4.178  1.00  0.00     0.110 C 
BRANCH  11  12
HETATM   12  C   UNL     1      42.251 -13.005   5.643  1.00  0.00     0.074 C 
BRANCH  12  13
HETATM   13  C   UNL     1      43.006 -14.157   6.212  1.00  0.00     0.053 A 
HETATM   14  O   UNL     1      42.315 -15.302   6.490  1.00  0.00    -0.320 OA
HETATM   15  C   UNL     1      43.211 -16.202   6.985  1.00  0.00     0.049 A 
HETATM   16  C   UNL     1      42.682 -17.529   7.359  1.00  0.00     0.076 C 
HETATM   17  C   UNL     1      44.470 -15.647   7.021  1.00  0.00     0.035 A 
HETATM   18  C   UNL     1      44.339 -14.329   6.524  1.00  0.00     0.035 A 
ENDBRANCH  12  13
ENDBRANCH  11  12
ENDBRANCH   8  11
ENDBRANCH   1   7
BRANCH   3  19
HETATM   19  C   UNL     1      44.227 -19.979   3.767  1.00  0.00     0.010 A 
HETATM   20  C   UNL     1      44.397 -20.162   5.162  1.00  0.00     0.152 A 
HETATM   21  N   UNL     1      44.760 -21.406   5.488  1.00  0.00    -0.187 NA
HETATM   22  N   UNL     1      44.820 -22.031   4.301  1.00  0.00    -0.289 N 
HETATM   23  H   UNL     1      45.079 -23.012   4.285  1.00  0.00     0.188 HD
HETATM   24  C   UNL     1      44.517 -21.223   3.244  1.00  0.00     0.123 A 
ENDBRANCH   3  19
TORSDOF 5
ENDMDL
MODEL 8
REMARK VINA RESULT:      -7.8      4.811      7.729
REMARK  5 active torsions:
REMARK  status: ('A' for Active; 'I' for Inactive)
REMARK    1  A    between atoms: C_4  and  C_5 
REMARK    2  A    between atoms: C_5  and  C_6 
REMARK    3  A    between atoms: C_6  and  C_7 
REMARK       I    between atoms: C_7  and  N_8 
REMARK    4  A    between atoms: N_8  and  C_9 
REMARK    5  A    between atoms: C_11  and  C_12 
ROOT
HETATM    1  C   UNL     1      40.226 -15.894   1.879  1.00  0.00     0.035 A 
HETATM    2  C   UNL     1      40.859 -15.631   0.660  1.00  0.00     0.042 A 
HETATM    3  C   UNL     1      40.313 -14.726  -0.269  1.00  0.00    -0.021 A 
HETATM    4  C   UNL     1      39.110 -14.084   0.054  1.00  0.00     0.012 A 
HETATM    5  C   UNL     1      38.471 -14.335   1.269  1.00  0.00     0.003 A 
HETATM    6  C   UNL     1      39.028 -15.234   2.177  1.00  0.00     0.029 A 
ENDROOT
BRANCH   1   7
HETATM    7  N   UNL     1      40.712 -16.799   2.843  1.00  0.00    -0.327 N 
HETATM    8  C   UNL     1      41.393 -16.517   4.011  1.00  0.00     0.222 C 
HETATM    9  O   UNL     1      41.670 -15.405   4.451  1.00  0.00    -0.273 OA
HETATM   10  H   UNL     1      40.505 -17.780   2.679  1.00  0.00     0.169 HD
BRANCH   8  11
HETATM   11  C   UNL     1      41.809 -17.764   4.770  1.00  0.00     0.110 C 
BRANCH  11  12
HETATM   12  C   UNL     1      43.321 -17.871   4.914  1.00  0.00     0.074 C 
BRANCH  12  13
HETATM   13  C   UNL     1      43.898 -19.202   4.572  1.00  0.00     0.053 A 
HETATM   14  O   UNL     1      43.718 -19.673   3.302  1.00  0.00    -0.320 OA
HETATM   15  C   UNL     1      44.335 -20.886   3.232  1.00  0.00     0.049 A 
HETATM   16  C   UNL     1      44.269 -21.590   1.936  1.00  0.00     0.076 C 
HETATM   17  C   UNL     1      44.915 -21.194   4.442  1.00  0.00     0.035 A 
HETATM   18  C   UNL     1      44.633 -20.109   5.307  1.00  0.00     0.035 A 
ENDBRANCH  12  13
ENDBRANCH  11  12
ENDBRANCH   8  11
ENDBRANCH   1   7
BRANCH   3  19
HETATM   19  C   UNL     1      40.972 -14.449  -1.540  1.00  0.00     0.010 A 
HETATM   20  C   UNL     1      40.695 -14.913  -2.850  1.00  0.00     0.152 A 
HETATM   21  N   UNL     1      41.538 -14.431  -3.767  1.00  0.00    -0.187 NA
HETATM   22  N   UNL     1      42.360 -13.649  -3.050  1.00  0.00    -0.289 N 
HETATM   23  H   UNL     1      43.104 -13.158  -3.536  1.00  0.00     0.188 HD
HETATM   24  C   UNL     1      42.069 -13.631  -1.717  1.00  0.00     0.123 A 
ENDBRANCH   3  19
TORSDOF 5
ENDMDL
MODEL 9
REMARK VINA RESULT:      -7.8      3.584      5.426
REMARK  5 active torsions:
REMARK  status: ('A' for Active; 'I' for Inactive)
REMARK    1  A    between atoms: C_4  and  C_5 
REMARK    2  A    between atoms: C_5  and  C_6 
REMARK    3  A    between atoms: C_6  and  C_7 
REMARK       I    between atoms: C_7  and  N_8 
REMARK    4  A    between atoms: N_8  and  C_9 
REMARK    5  A    between atoms: C_11  and  C_12 
ROOT
HETATM    1  C   UNL     1      43.418 -18.159   2.468  1.00  0.00     0.035 A 
HETATM    2  C   UNL     1      43.432 -18.108   3.866  1.00  0.00     0.042 A 
HETATM    3  C   UNL     1      43.956 -19.166   4.631  1.00  0.00    -0.021 A 
HETATM    4  C   UNL     1      44.470 -20.284   3.960  1.00  0.00     0.012 A 
HETATM    5  C   UNL     1      44.465 -20.344   2.567  1.00  0.00     0.003 A 
HETATM    6  C   UNL     1      43.943 -19.285   1.825  1.00  0.00     0.029 A 
ENDROOT
BRANCH   1   7
HETATM    7  N   UNL     1      42.894 -17.141   1.647  1.00  0.00    -0.327 N 
HETATM    8  C   UNL     1      41.663 -17.098   1.023  1.00  0.00     0.222 C 
HETATM    9  O   UNL     1      40.768 -17.934   1.102  1.00  0.00    -0.273 OA
HETATM   10  H   UNL     1      43.479 -16.318   1.527  1.00  0.00     0.169 HD
BRANCH   8  11
HETATM   11  C   UNL     1      41.475 -15.858   0.168  1.00  0.00     0.110 C 
BRANCH  11  12
HETATM   12  C   UNL     1      40.626 -14.804   0.867  1.00  0.00     0.074 C 
BRANCH  12  13
HETATM   13  C   UNL     1      40.917 -14.613   2.316  1.00  0.00     0.053 A 
HETATM   14  O   UNL     1      42.195 -14.295   2.678  1.00  0.00    -0.320 OA
HETATM   15  C   UNL     1      42.208 -14.164   4.034  1.00  0.00     0.049 A 
HETATM   16  C   UNL     1      43.502 -13.819   4.655  1.00  0.00     0.076 C 
HETATM   17  C   UNL     1      40.949 -14.389   4.545  1.00  0.00     0.035 A 
HETATM   18  C   UNL     1      40.116 -14.679   3.438  1.00  0.00     0.035 A 
ENDBRANCH  12  13
ENDBRANCH  11  12
ENDBRANCH   8  11
ENDBRANCH   1   7
BRANCH   3  19
HETATM   19  C   UNL     1      43.974 -19.116   6.089  1.00  0.00     0.010 A 
HETATM   20  C   UNL     1      44.313 -18.065   6.977  1.00  0.00     0.152 A 
HETATM   21  N   UNL     1      44.209 -18.411   8.264  1.00  0.00    -0.187 NA
HETATM   22  N   UNL     1      43.798 -19.687   8.208  1.00  0.00    -0.289 N 
HETATM   23  H   UNL     1      43.642 -20.182   9.080  1.00  0.00     0.188 HD
HETATM   24  C   UNL     1      43.649 -20.156   6.935  1.00  0.00     0.123 A 
ENDBRANCH   3  19
TORSDOF 5
ENDMDL
MODEL 10
REMARK VINA RESULT:      -7.7      2.914      4.277
REMARK  5 active torsions:
REMARK  status: ('A' for Active; 'I' for Inactive)
REMARK    1  A    between atoms: C_4  and  C_5 
REMARK    2  A    between atoms: C_5  and  C_6 
REMARK    3  A    between atoms: C_6  and  C_7 
REMARK       I    between atoms: C_7  and  N_8 
REMARK    4  A    between atoms: N_8  and  C_9 
REMARK    5  A    between atoms: C_11  and  C_12 
ROOT
HETATM    1  C   UNL     1      43.481 -17.041   3.365  1.00  0.00     0.035 A 
HETATM    2  C   UNL     1      43.789 -18.340   3.782  1.00  0.00     0.042 A 
HETATM    3  C   UNL     1      44.059 -19.362   2.854  1.00  0.00    -0.021 A 
HETATM    4  C   UNL     1      44.013 -19.052   1.488  1.00  0.00     0.012 A 
HETATM    5  C   UNL     1      43.711 -17.759   1.060  1.00  0.00     0.003 A 
HETATM    6  C   UNL     1      43.448 -16.759   1.995  1.00  0.00     0.029 A 
ENDROOT
BRANCH   1   7
HETATM    7  N   UNL     1      43.186 -15.979   4.242  1.00  0.00    -0.327 N 
HETATM    8  C   UNL     1      42.082 -15.828   5.058  1.00  0.00     0.222 C 
HETATM    9  O   UNL     1      41.159 -16.623   5.201  1.00  0.00    -0.273 OA
HETATM   10  H   UNL     1      43.890 -15.248   4.312  1.00  0.00     0.169 HD
BRANCH   8  11
HETATM   11  C   UNL     1      42.085 -14.516   5.822  1.00  0.00     0.110 C 
BRANCH  11  12
HETATM   12  C   UNL     1      42.915 -13.447   5.123  1.00  0.00     0.074 C 
BRANCH  12  13
HETATM   13  C   UNL     1      42.243 -12.771   3.977  1.00  0.00     0.053 A 
HETATM   14  O   UNL     1      42.548 -13.193   2.715  1.00  0.00    -0.320 OA
HETATM   15  C   UNL     1      41.811 -12.440   1.850  1.00  0.00     0.049 A 
HETATM   16  C   UNL     1      41.981 -12.724   0.411  1.00  0.00     0.076 C 
HETATM   17  C   UNL     1      41.032 -11.544   2.547  1.00  0.00     0.035 A 
HETATM   18  C   UNL     1      41.310 -11.756   3.918  1.00  0.00     0.035 A 
ENDBRANCH  12  13
ENDBRANCH  11  12
ENDBRANCH   8  11
ENDBRANCH   1   7
BRANCH   3  19
HETATM   19  C   UNL     1      44.383 -20.717   3.286  1.00  0.00     0.010 A 
HETATM   20  C   UNL     1      44.386 -21.943   2.575  1.00  0.00     0.152 A 
HETATM   21  N   UNL     1      44.741 -22.987   3.329  1.00  0.00    -0.187 NA
HETATM   22  N   UNL     1      44.973 -22.435   4.530  1.00  0.00    -0.289 N 
HETATM   23  H   UNL     1      45.266 -23.041   5.290  1.00  0.00     0.188 HD
HETATM   24  C   UNL     1      44.768 -21.087   4.559  1.00  0.00     0.123 A 
ENDBRANCH   3  19
TORSDOF 5
ENDMDL
