MODEL 1
REMARK VINA RESULT:      -8.2      0.000      0.000
REMARK  3 active torsions:
REMARK  status: ('A' for Active; 'I' for Inactive)
REMARK    1  A    between atoms: C_3  and  N_4 
REMARK       I    between atoms: N_4  and  C_5 
REMARK    2  A    between atoms: C_5  and  C_6 
REMARK    3  A    between atoms: C_6  and  C_7 
ROOT
HETATM    1  C   UNL     1      41.717 -15.219   3.846  1.00  0.00     0.286 C 
HETATM    2  N   UNL     1      40.708 -16.207   3.262  1.00  0.00    -0.056 N 
HETATM    3  H   UNL     1      41.256 -17.072   3.069  1.00  0.00     0.278 HD
HETATM    4  H   UNL     1      39.994 -16.468   3.952  1.00  0.00     0.278 HD
HETATM    5  C   UNL     1      40.093 -15.806   1.954  1.00  0.00     0.209 C 
HETATM    6  C   UNL     1      41.216 -15.449   0.951  1.00  0.00     0.115 C 
HETATM    7  N   UNL     1      42.168 -14.486   1.503  1.00  0.00    -0.353 N 
HETATM    8  C   UNL     1      42.632 -14.555   2.794  1.00  0.00     0.249 C 
HETATM    9  O   UNL     1      43.691 -14.014   3.095  1.00  0.00    -0.271 OA
HETATM   10  C   UNL     1      39.093 -14.668   2.162  1.00  0.00     0.035 C 
HETATM   11  C   UNL     1      38.511 -14.213   0.824  1.00  0.00     0.002 C 
HETATM   12  C   UNL     1      39.608 -13.820  -0.164  1.00  0.00     0.002 C 
HETATM   13  C   UNL     1      40.622 -14.946  -0.368  1.00  0.00     0.027 C 
HETATM   14  H   UNL     1      42.856 -14.083   0.870  1.00  0.00     0.163 HD
ENDROOT
BRANCH   1  15
HETATM   15  C   UNL     1      42.560 -15.896   4.940  1.00  0.00     0.146 C 
BRANCH  15  16
HETATM   16  C   UNL     1      42.611 -17.389   4.697  1.00  0.00     0.224 C 
HETATM   17  N   UNL     1      43.773 -17.828   4.110  1.00  0.00    -0.327 N 
HETATM   18  H   UNL     1      44.544 -17.178   4.033  1.00  0.00     0.169 HD
HETATM   19  O   UNL     1      41.688 -18.087   5.124  1.00  0.00    -0.273 OA
BRANCH  17  20
HETATM   20  C   UNL     1      44.039 -19.151   3.677  1.00  0.00     0.040 A 
HETATM   21  C   UNL     1      43.706 -19.526   2.359  1.00  0.00    -0.035 A 
HETATM   22  C   UNL     1      43.130 -18.560   1.360  1.00  0.00     0.050 C 
HETATM   23  C   UNL     1      43.927 -20.852   1.947  1.00  0.00     0.009 A 
HETATM   24  C   UNL     1      44.471 -21.794   2.819  1.00  0.00     0.001 A 
HETATM   25  C   UNL     1      44.798 -21.423   4.116  1.00  0.00     0.002 A 
HETATM   26  C   UNL     1      44.585 -20.111   4.542  1.00  0.00     0.030 A 
ENDBRANCH  17  20
ENDBRANCH  15  16
ENDBRANCH   1  15
TORSDOF 3
ENDMDL
MODEL 2
REMARK VINA RESULT:      -8.1      0.626      1.525
REMARK  3 active torsions:
REMARK  status: ('A' for Active; 'I' for Inactive)
REMARK    1  A    between atoms: C_3  and  N_4 
REMARK       I    between atoms: N_4  and  C_5 
REMARK    2  A    between atoms: C_5  and  C_6 
REMARK    3  A    between atoms: C_6  and  C_7 
ROOT
HETATM    1  C   UNL     1      41.344 -14.879   3.552  1.00  0.00     0.286 C 
HETATM    2  N   UNL     1      40.381 -15.893   2.933  1.00  0.00    -0.056 N 
HETATM    3  H   UNL     1      40.951 -16.751   2.781  1.00  0.00     0.278 HD
HETATM    4  H   UNL     1      39.638 -16.155   3.591  1.00  0.00     0.278 HD
HETATM    5  C   UNL     1      39.825 -15.521   1.591  1.00  0.00     0.209 C 
HETATM    6  C   UNL     1      40.990 -15.160   0.639  1.00  0.00     0.115 C 
HETATM    7  N   UNL     1      41.899 -14.174   1.223  1.00  0.00    -0.353 N 
HETATM    8  C   UNL     1      42.300 -14.216   2.535  1.00  0.00     0.249 C 
HETATM    9  O   UNL     1      43.334 -13.654   2.880  1.00  0.00    -0.271 OA
HETATM   10  C   UNL     1      38.798 -14.396   1.732  1.00  0.00     0.035 C 
HETATM   11  C   UNL     1      38.277 -13.971   0.360  1.00  0.00     0.002 C 
HETATM   12  C   UNL     1      39.415 -13.575  -0.579  1.00  0.00     0.002 C 
HETATM   13  C   UNL     1      40.455 -14.687  -0.715  1.00  0.00     0.027 C 
HETATM   14  H   UNL     1      42.611 -13.769   0.618  1.00  0.00     0.163 HD
ENDROOT
BRANCH   1  15
HETATM   15  C   UNL     1      42.143 -15.526   4.696  1.00  0.00     0.146 C 
BRANCH  15  16
HETATM   16  C   UNL     1      42.224 -17.023   4.482  1.00  0.00     0.224 C 
HETATM   17  N   UNL     1      43.377 -17.446   3.867  1.00  0.00    -0.327 N 
HETATM   18  H   UNL     1      44.129 -16.778   3.752  1.00  0.00     0.169 HD
HETATM   19  O   UNL     1      41.333 -17.734   4.952  1.00  0.00    -0.273 OA
BRANCH  17  20
HETATM   20  C   UNL     1      43.663 -18.771   3.454  1.00  0.00     0.040 A 
HETATM   21  C   UNL     1      44.459 -19.593   4.278  1.00  0.00    -0.035 A 
HETATM   22  C   UNL     1      44.975 -19.145   5.618  1.00  0.00     0.050 C 
HETATM   23  C   UNL     1      44.782 -20.891   3.844  1.00  0.00     0.009 A 
HETATM   24  C   UNL     1      44.324 -21.373   2.618  1.00  0.00     0.001 A 
HETATM   25  C   UNL     1      43.540 -20.562   1.808  1.00  0.00     0.002 A 
HETATM   26  C   UNL     1      43.211 -19.270   2.224  1.00  0.00     0.030 A 
ENDBRANCH  17  20
ENDBRANCH  15  16
ENDBRANCH   1  15
TORSDOF 3
ENDMDL
MODEL 3
REMARK VINA RESULT:      -8.1      2.101      3.331
REMARK  3 active torsions:
REMARK  status: ('A' for Active; 'I' for Inactive)
REMARK    1  A    between atoms: C_3  and  N_4 
REMARK       I    between atoms: N_4  and  C_5 
REMARK    2  A    between atoms: C_5  and  C_6 
REMARK    3  A    between atoms: C_6  and  C_7 
ROOT
HETATM    1  C   UNL     1      41.356 -15.806   0.617  1.00  0.00     0.286 C 
HETATM    2  N   UNL     1      42.036 -15.021  -0.506  1.00  0.00    -0.056 N 
HETATM    3  H   UNL     1      42.396 -14.155  -0.051  1.00  0.00     0.278 HD
HETATM    4  H   UNL     1      42.857 -15.519  -0.868  1.00  0.00     0.278 HD
HETATM    5  C   UNL     1      41.134 -14.563  -1.612  1.00  0.00     0.209 C 
HETATM    6  C   UNL     1      39.930 -13.802  -1.007  1.00  0.00     0.115 C 
HETATM    7  N   UNL     1      39.267 -14.564   0.051  1.00  0.00    -0.353 N 
HETATM    8  C   UNL     1      39.957 -15.275   1.001  1.00  0.00     0.249 C 
HETATM    9  O   UNL     1      39.424 -15.551   2.070  1.00  0.00    -0.271 OA
HETATM   10  C   UNL     1      40.714 -15.749  -2.484  1.00  0.00     0.035 C 
HETATM   11  C   UNL     1      39.744 -15.296  -3.574  1.00  0.00     0.002 C 
HETATM   12  C   UNL     1      38.531 -14.577  -2.988  1.00  0.00     0.002 C 
HETATM   13  C   UNL     1      38.940 -13.399  -2.103  1.00  0.00     0.027 C 
HETATM   14  H   UNL     1      38.382 -14.208   0.408  1.00  0.00     0.163 HD
ENDROOT
BRANCH   1  15
HETATM   15  C   UNL     1      42.266 -15.869   1.856  1.00  0.00     0.146 C 
BRANCH  15  16
HETATM   16  C   UNL     1      43.126 -17.114   1.798  1.00  0.00     0.224 C 
HETATM   17  N   UNL     1      42.642 -18.171   2.528  1.00  0.00    -0.327 N 
HETATM   18  H   UNL     1      41.705 -18.102   2.905  1.00  0.00     0.169 HD
HETATM   19  O   UNL     1      44.102 -17.120   1.044  1.00  0.00    -0.273 OA
BRANCH  17  20
HETATM   20  C   UNL     1      43.297 -19.411   2.733  1.00  0.00     0.040 A 
HETATM   21  C   UNL     1      44.106 -19.583   3.875  1.00  0.00    -0.035 A 
HETATM   22  C   UNL     1      44.261 -18.521   4.929  1.00  0.00     0.050 C 
HETATM   23  C   UNL     1      44.792 -20.798   4.053  1.00  0.00     0.009 A 
HETATM   24  C   UNL     1      44.681 -21.828   3.120  1.00  0.00     0.001 A 
HETATM   25  C   UNL     1      43.884 -21.657   1.996  1.00  0.00     0.002 A 
HETATM   26  C   UNL     1      43.196 -20.457   1.805  1.00  0.00     0.030 A 
ENDBRANCH  17  20
ENDBRANCH  15  16
ENDBRANCH   1  15
TORSDOF 3
ENDMDL
MODEL 4
REMARK VINA RESULT:      -8.0      2.865      3.237
REMARK  3 active torsions:
REMARK  status: ('A' for Active; 'I' for Inactive)
REMARK    1  A    between atoms: C_3  and  N_4 
REMARK       I    between atoms: N_4  and  C_5 
REMARK    2  A    between atoms: C_5  and  C_6 
REMARK    3  A    between atoms: C_6  and  C_7 
ROOT
HETATM    1  C   UNL     1      43.463 -16.135   6.427  1.00  0.00     0.286 C 
HETATM    2  N   UNL     1      42.579 -16.334   5.196  1.00  0.00    -0.056 N 
HETATM    3  H   UNL     1      43.243 -16.497   4.409  1.00  0.00     0.278 HD
HETATM    4  H   UNL     1      42.012 -17.186   5.274  1.00  0.00     0.278 HD
HETATM    5  C   UNL     1      41.748 -15.151   4.798  1.00  0.00     0.209 C 
HETATM    6  C   UNL     1      42.659 -13.907   4.674  1.00  0.00     0.115 C 
HETATM    7  N   UNL     1      43.488 -13.704   5.862  1.00  0.00    -0.353 N 
HETATM    8  C   UNL     1      44.111 -14.736   6.519  1.00  0.00     0.249 C 
HETATM    9  O   UNL     1      45.088 -14.513   7.227  1.00  0.00    -0.271 OA
HETATM   10  C   UNL     1      40.596 -14.952   5.785  1.00  0.00     0.035 C 
HETATM   11  C   UNL     1      39.785 -13.710   5.420  1.00  0.00     0.002 C 
HETATM   12  C   UNL     1      40.667 -12.465   5.332  1.00  0.00     0.002 C 
HETATM   13  C   UNL     1      41.830 -12.659   4.358  1.00  0.00     0.027 C 
HETATM   14  H   UNL     1      44.012 -12.834   5.933  1.00  0.00     0.163 HD
ENDROOT
BRANCH   1  15
HETATM   15  C   UNL     1      44.539 -17.232   6.499  1.00  0.00     0.146 C 
BRANCH  15  16
HETATM   16  C   UNL     1      44.061 -18.467   5.766  1.00  0.00     0.224 C 
HETATM   17  N   UNL     1      44.912 -18.905   4.780  1.00  0.00    -0.327 N 
HETATM   18  H   UNL     1      45.833 -18.489   4.724  1.00  0.00     0.169 HD
HETATM   19  O   UNL     1      43.037 -19.028   6.162  1.00  0.00    -0.273 OA
BRANCH  17  20
HETATM   20  C   UNL     1      44.662 -19.967   3.876  1.00  0.00     0.040 A 
HETATM   21  C   UNL     1      44.120 -19.679   2.606  1.00  0.00    -0.035 A 
HETATM   22  C   UNL     1      43.846 -18.275   2.138  1.00  0.00     0.050 C 
HETATM   23  C   UNL     1      43.828 -20.738   1.728  1.00  0.00     0.009 A 
HETATM   24  C   UNL     1      44.070 -22.061   2.094  1.00  0.00     0.001 A 
HETATM   25  C   UNL     1      44.604 -22.343   3.345  1.00  0.00     0.002 A 
HETATM   26  C   UNL     1      44.898 -21.304   4.228  1.00  0.00     0.030 A 
ENDBRANCH  17  20
ENDBRANCH  15  16
ENDBRANCH   1  15
TORSDOF 3
ENDMDL
MODEL 5
REMARK VINA RESULT:      -7.8      1.871      3.598
REMARK  3 active torsions:
REMARK  status: ('A' for Active; 'I' for Inactive)
REMARK    1  A    between atoms: C_3  and  N_4 
REMARK       I    between atoms: N_4  and  C_5 
REMARK    2  A    between atoms: C_5  and  C_6 
REMARK    3  A    between atoms: C_6  and  C_7 
ROOT
HETATM    1  C   UNL     1      41.739 -15.501   1.600  1.00  0.00     0.286 C 
HETATM    2  N   UNL     1      42.877 -14.920   2.439  1.00  0.00    -0.056 N 
HETATM    3  H   UNL     1      43.451 -15.742   2.724  1.00  0.00     0.278 HD
HETATM    4  H   UNL     1      43.492 -14.322   1.875  1.00  0.00     0.278 HD
HETATM    5  C   UNL     1      42.462 -14.244   3.711  1.00  0.00     0.209 C 
HETATM    6  C   UNL     1      41.559 -15.201   4.526  1.00  0.00     0.115 C 
HETATM    7  N   UNL     1      40.457 -15.738   3.728  1.00  0.00    -0.353 N 
HETATM    8  C   UNL     1      40.613 -16.157   2.430  1.00  0.00     0.249 C 
HETATM    9  O   UNL     1      39.816 -16.951   1.940  1.00  0.00    -0.271 OA
HETATM   10  C   UNL     1      41.792 -12.903   3.409  1.00  0.00     0.035 C 
HETATM   11  C   UNL     1      41.310 -12.240   4.698  1.00  0.00     0.002 C 
HETATM   12  C   UNL     1      40.386 -13.160   5.495  1.00  0.00     0.002 C 
HETATM   13  C   UNL     1      41.041 -14.509   5.790  1.00  0.00     0.027 C 
HETATM   14  H   UNL     1      39.731 -16.261   4.214  1.00  0.00     0.163 HD
ENDROOT
BRANCH   1  15
HETATM   15  C   UNL     1      42.289 -16.494   0.562  1.00  0.00     0.146 C 
BRANCH  15  16
HETATM   16  C   UNL     1      43.281 -17.429   1.222  1.00  0.00     0.224 C 
HETATM   17  N   UNL     1      42.729 -18.589   1.707  1.00  0.00    -0.327 N 
HETATM   18  H   UNL     1      41.772 -18.804   1.457  1.00  0.00     0.169 HD
HETATM   19  O   UNL     1      44.479 -17.138   1.184  1.00  0.00    -0.273 OA
BRANCH  17  20
HETATM   20  C   UNL     1      43.405 -19.582   2.459  1.00  0.00     0.040 A 
HETATM   21  C   UNL     1      43.814 -19.290   3.777  1.00  0.00    -0.035 A 
HETATM   22  C   UNL     1      43.510 -17.980   4.451  1.00  0.00     0.050 C 
HETATM   23  C   UNL     1      44.527 -20.260   4.504  1.00  0.00     0.009 A 
HETATM   24  C   UNL     1      44.829 -21.500   3.943  1.00  0.00     0.001 A 
HETATM   25  C   UNL     1      44.426 -21.785   2.645  1.00  0.00     0.002 A 
HETATM   26  C   UNL     1      43.718 -20.834   1.909  1.00  0.00     0.030 A 
ENDBRANCH  17  20
ENDBRANCH  15  16
ENDBRANCH   1  15
TORSDOF 3
ENDMDL
MODEL 6
REMARK VINA RESULT:      -7.5      2.740      3.495
REMARK  3 active torsions:
REMARK  status: ('A' for Active; 'I' for Inactive)
REMARK    1  A    between atoms: C_3  and  N_4 
REMARK       I    between atoms: N_4  and  C_5 
REMARK    2  A    between atoms: C_5  and  C_6 
REMARK    3  A    between atoms: C_6  and  C_7 
ROOT
HETATM    1  C   UNL     1      43.380 -16.251   5.822  1.00  0.00     0.286 C 
HETATM    2  N   UNL     1      44.167 -14.954   5.633  1.00  0.00    -0.056 N 
HETATM    3  H   UNL     1      44.418 -14.646   6.597  1.00  0.00     0.278 HD
HETATM    4  H   UNL     1      45.054 -15.121   5.145  1.00  0.00     0.278 HD
HETATM    5  C   UNL     1      43.404 -13.818   5.021  1.00  0.00     0.209 C 
HETATM    6  C   UNL     1      42.092 -13.600   5.812  1.00  0.00     0.115 C 
HETATM    7  N   UNL     1      41.329 -14.837   5.972  1.00  0.00    -0.353 N 
HETATM    8  C   UNL     1      41.916 -16.041   6.271  1.00  0.00     0.249 C 
HETATM    9  O   UNL     1      41.255 -16.937   6.786  1.00  0.00    -0.271 OA
HETATM   10  C   UNL     1      43.168 -14.074   3.531  1.00  0.00     0.035 C 
HETATM   11  C   UNL     1      42.336 -12.949   2.918  1.00  0.00     0.002 C 
HETATM   12  C   UNL     1      41.020 -12.749   3.666  1.00  0.00     0.002 C 
HETATM   13  C   UNL     1      41.243 -12.506   5.158  1.00  0.00     0.027 C 
HETATM   14  H   UNL     1      40.386 -14.767   6.351  1.00  0.00     0.163 HD
ENDROOT
BRANCH   1  15
HETATM   15  C   UNL     1      44.112 -17.187   6.798  1.00  0.00     0.146 C 
BRANCH  15  16
HETATM   16  C   UNL     1      44.045 -18.612   6.290  1.00  0.00     0.224 C 
HETATM   17  N   UNL     1      44.593 -18.795   5.044  1.00  0.00    -0.327 N 
HETATM   18  H   UNL     1      45.124 -18.034   4.639  1.00  0.00     0.169 HD
HETATM   19  O   UNL     1      43.617 -19.487   7.046  1.00  0.00    -0.273 OA
BRANCH  17  20
HETATM   20  C   UNL     1      44.569 -19.996   4.292  1.00  0.00     0.040 A 
HETATM   21  C   UNL     1      44.202 -19.950   2.931  1.00  0.00    -0.035 A 
HETATM   22  C   UNL     1      43.889 -18.663   2.216  1.00  0.00     0.050 C 
HETATM   23  C   UNL     1      44.134 -21.148   2.198  1.00  0.00     0.009 A 
HETATM   24  C   UNL     1      44.425 -22.373   2.797  1.00  0.00     0.001 A 
HETATM   25  C   UNL     1      44.786 -22.416   4.137  1.00  0.00     0.002 A 
HETATM   26  C   UNL     1      44.858 -21.236   4.879  1.00  0.00     0.030 A 
ENDBRANCH  17  20
ENDBRANCH  15  16
ENDBRANCH   1  15
TORSDOF 3
ENDMDL
MODEL 7
REMARK VINA RESULT:      -7.4      1.560      2.159
REMARK  3 active torsions:
REMARK  status: ('A' for Active; 'I' for Inactive)
REMARK    1  A    between atoms: C_3  and  N_4 
REMARK       I    between atoms: N_4  and  C_5 
REMARK    2  A    between atoms: C_5  and  C_6 
REMARK    3  A    between atoms: C_6  and  C_7 
ROOT
HETATM    1  C   UNL     1      41.958 -16.256   1.610  1.00  0.00     0.286 C 
HETATM    2  N   UNL     1      41.046 -16.022   0.405  1.00  0.00    -0.056 N 
HETATM    3  H   UNL     1      41.690 -15.931  -0.409  1.00  0.00     0.278 HD
HETATM    4  H   UNL     1      40.458 -16.841   0.215  1.00  0.00     0.278 HD
HETATM    5  C   UNL     1      40.241 -14.758   0.440  1.00  0.00     0.209 C 
HETATM    6  C   UNL     1      41.183 -13.560   0.706  1.00  0.00     0.115 C 
HETATM    7  N   UNL     1      42.039 -13.775   1.872  1.00  0.00    -0.353 N 
HETATM    8  C   UNL     1      42.646 -14.978   2.138  1.00  0.00     0.249 C 
HETATM    9  O   UNL     1      43.642 -15.018   2.853  1.00  0.00    -0.271 OA
HETATM   10  C   UNL     1      39.114 -14.871   1.468  1.00  0.00     0.035 C 
HETATM   11  C   UNL     1      38.330 -13.562   1.552  1.00  0.00     0.002 C 
HETATM   12  C   UNL     1      39.244 -12.376   1.853  1.00  0.00     0.002 C 
HETATM   13  C   UNL     1      40.382 -12.262   0.839  1.00  0.00     0.027 C 
HETATM   14  H   UNL     1      42.588 -12.987   2.209  1.00  0.00     0.163 HD
ENDROOT
BRANCH   1  15
HETATM   15  C   UNL     1      43.005 -17.336   1.290  1.00  0.00     0.146 C 
BRANCH  15  16
HETATM   16  C   UNL     1      43.058 -18.348   2.415  1.00  0.00     0.224 C 
HETATM   17  N   UNL     1      44.153 -19.177   2.381  1.00  0.00    -0.327 N 
HETATM   18  H   UNL     1      44.898 -18.957   1.731  1.00  0.00     0.169 HD
HETATM   19  O   UNL     1      42.204 -18.287   3.302  1.00  0.00    -0.273 OA
BRANCH  17  20
HETATM   20  C   UNL     1      44.395 -20.274   3.245  1.00  0.00     0.040 A 
HETATM   21  C   UNL     1      44.350 -21.584   2.724  1.00  0.00    -0.035 A 
HETATM   22  C   UNL     1      44.113 -21.872   1.267  1.00  0.00     0.050 C 
HETATM   23  C   UNL     1      44.543 -22.673   3.592  1.00  0.00     0.009 A 
HETATM   24  C   UNL     1      44.780 -22.475   4.952  1.00  0.00     0.001 A 
HETATM   25  C   UNL     1      44.824 -21.184   5.462  1.00  0.00     0.002 A 
HETATM   26  C   UNL     1      44.634 -20.092   4.614  1.00  0.00     0.030 A 
ENDBRANCH  17  20
ENDBRANCH  15  16
ENDBRANCH   1  15
TORSDOF 3
ENDMDL
MODEL 8
REMARK VINA RESULT:      -7.3      1.414      2.016
REMARK  3 active torsions:
REMARK  status: ('A' for Active; 'I' for Inactive)
REMARK    1  A    between atoms: C_3  and  N_4 
REMARK       I    between atoms: N_4  and  C_5 
REMARK    2  A    between atoms: C_5  and  C_6 
REMARK    3  A    between atoms: C_6  and  C_7 
ROOT
HETATM    1  C   UNL     1      41.744 -15.815   3.755  1.00  0.00     0.286 C 
HETATM    2  N   UNL     1      42.230 -15.007   2.552  1.00  0.00    -0.056 N 
HETATM    3  H   UNL     1      42.954 -14.362   2.934  1.00  0.00     0.278 HD
HETATM    4  H   UNL     1      42.709 -15.603   1.868  1.00  0.00     0.278 HD
HETATM    5  C   UNL     1      41.200 -14.133   1.901  1.00  0.00     0.209 C 
HETATM    6  C   UNL     1      40.532 -13.244   2.977  1.00  0.00     0.115 C 
HETATM    7  N   UNL     1      40.046 -14.022   4.116  1.00  0.00    -0.353 N 
HETATM    8  C   UNL     1      40.761 -15.053   4.672  1.00  0.00     0.249 C 
HETATM    9  O   UNL     1      40.540 -15.403   5.827  1.00  0.00    -0.271 OA
HETATM   10  C   UNL     1      40.196 -14.983   1.120  1.00  0.00     0.035 C 
HETATM   11  C   UNL     1      39.108 -14.103   0.508  1.00  0.00     0.002 C 
HETATM   12  C   UNL     1      38.413 -13.247   1.565  1.00  0.00     0.002 C 
HETATM   13  C   UNL     1      39.409 -12.403   2.361  1.00  0.00     0.027 C 
HETATM   14  H   UNL     1      39.467 -13.544   4.804  1.00  0.00     0.163 HD
ENDROOT
BRANCH   1  15
HETATM   15  C   UNL     1      42.939 -16.342   4.568  1.00  0.00     0.146 C 
BRANCH  15  16
HETATM   16  C   UNL     1      42.915 -17.855   4.593  1.00  0.00     0.224 C 
HETATM   17  N   UNL     1      44.110 -18.446   4.261  1.00  0.00    -0.327 N 
HETATM   18  H   UNL     1      44.929 -17.857   4.186  1.00  0.00     0.169 HD
HETATM   19  O   UNL     1      41.896 -18.422   4.995  1.00  0.00    -0.273 OA
BRANCH  17  20
HETATM   20  C   UNL     1      44.336 -19.836   4.103  1.00  0.00     0.040 A 
HETATM   21  C   UNL     1      44.125 -20.430   2.842  1.00  0.00    -0.035 A 
HETATM   22  C   UNL     1      43.723 -19.638   1.627  1.00  0.00     0.050 C 
HETATM   23  C   UNL     1      44.304 -21.818   2.698  1.00  0.00     0.009 A 
HETATM   24  C   UNL     1      44.688 -22.608   3.781  1.00  0.00     0.001 A 
HETATM   25  C   UNL     1      44.896 -22.021   5.022  1.00  0.00     0.002 A 
HETATM   26  C   UNL     1      44.722 -20.645   5.182  1.00  0.00     0.030 A 
ENDBRANCH  17  20
ENDBRANCH  15  16
ENDBRANCH   1  15
TORSDOF 3
ENDMDL
MODEL 9
REMARK VINA RESULT:      -7.3      1.694      2.740
REMARK  3 active torsions:
REMARK  status: ('A' for Active; 'I' for Inactive)
REMARK    1  A    between atoms: C_3  and  N_4 
REMARK       I    between atoms: N_4  and  C_5 
REMARK    2  A    between atoms: C_5  and  C_6 
REMARK    3  A    between atoms: C_6  and  C_7 
ROOT
HETATM    1  C   UNL     1      42.639 -15.552   5.523  1.00  0.00     0.286 C 
HETATM    2  N   UNL     1      41.186 -15.709   5.970  1.00  0.00    -0.056 N 
HETATM    3  H   UNL     1      40.924 -16.682   5.704  1.00  0.00     0.278 HD
HETATM    4  H   UNL     1      41.100 -15.658   6.992  1.00  0.00     0.278 HD
HETATM    5  C   UNL     1      40.198 -14.812   5.286  1.00  0.00     0.209 C 
HETATM    6  C   UNL     1      40.360 -14.951   3.753  1.00  0.00     0.115 C 
HETATM    7  N   UNL     1      41.747 -14.778   3.324  1.00  0.00    -0.353 N 
HETATM    8  C   UNL     1      42.810 -15.317   4.005  1.00  0.00     0.249 C 
HETATM    9  O   UNL     1      43.877 -15.504   3.431  1.00  0.00    -0.271 OA
HETATM   10  C   UNL     1      40.356 -13.372   5.776  1.00  0.00     0.035 C 
HETATM   11  C   UNL     1      39.395 -12.444   5.034  1.00  0.00     0.002 C 
HETATM   12  C   UNL     1      39.571 -12.542   3.520  1.00  0.00     0.002 C 
HETATM   13  C   UNL     1      39.428 -13.980   3.022  1.00  0.00     0.027 C 
HETATM   14  H   UNL     1      41.929 -14.709   2.324  1.00  0.00     0.163 HD
ENDROOT
BRANCH   1  15
HETATM   15  C   UNL     1      43.475 -16.761   5.977  1.00  0.00     0.146 C 
BRANCH  15  16
HETATM   16  C   UNL     1      43.113 -17.974   5.146  1.00  0.00     0.224 C 
HETATM   17  N   UNL     1      44.186 -18.601   4.561  1.00  0.00    -0.327 N 
HETATM   18  H   UNL     1      45.117 -18.319   4.844  1.00  0.00     0.169 HD
HETATM   19  O   UNL     1      41.941 -18.357   5.143  1.00  0.00    -0.273 OA
BRANCH  17  20
HETATM   20  C   UNL     1      44.124 -19.687   3.654  1.00  0.00     0.040 A 
HETATM   21  C   UNL     1      44.435 -20.985   4.110  1.00  0.00    -0.035 A 
HETATM   22  C   UNL     1      44.777 -21.283   5.545  1.00  0.00     0.050 C 
HETATM   23  C   UNL     1      44.419 -22.055   3.197  1.00  0.00     0.009 A 
HETATM   24  C   UNL     1      44.097 -21.850   1.856  1.00  0.00     0.001 A 
HETATM   25  C   UNL     1      43.791 -20.571   1.409  1.00  0.00     0.002 A 
HETATM   26  C   UNL     1      43.803 -19.498   2.302  1.00  0.00     0.030 A 
ENDBRANCH  17  20
ENDBRANCH  15  16
ENDBRANCH   1  15
TORSDOF 3
ENDMDL
MODEL 10
REMARK VINA RESULT:      -7.1      1.938      2.365
REMARK  3 active torsions:
REMARK  status: ('A' for Active; 'I' for Inactive)
REMARK    1  A    between atoms: C_3  and  N_4 
REMARK       I    between atoms: N_4  and  C_5 
REMARK    2  A    between atoms: C_5  and  C_6 
REMARK    3  A    between atoms: C_6  and  C_7 
ROOT
HETATM    1  C   UNL     1      40.370 -14.905   4.379  1.00  0.00     0.286 C 
HETATM    2  N   UNL     1      40.882 -14.921   2.939  1.00  0.00    -0.056 N 
HETATM    3  H   UNL     1      41.815 -14.457   2.978  1.00  0.00     0.278 HD
HETATM    4  H   UNL     1      41.052 -15.878   2.611  1.00  0.00     0.278 HD
HETATM    5  C   UNL     1      40.069 -14.134   1.955  1.00  0.00     0.209 C 
HETATM    6  C   UNL     1      39.869 -12.697   2.492  1.00  0.00     0.115 C 
HETATM    7  N   UNL     1      39.357 -12.683   3.862  1.00  0.00    -0.353 N 
HETATM    8  C   UNL     1      39.811 -13.539   4.835  1.00  0.00     0.249 C 
HETATM    9  O   UNL     1      39.677 -13.249   6.019  1.00  0.00    -0.271 OA
HETATM   10  C   UNL     1      38.751 -14.851   1.658  1.00  0.00     0.035 C 
HETATM   11  C   UNL     1      37.892 -14.021   0.705  1.00  0.00     0.002 C 
HETATM   12  C   UNL     1      37.653 -12.611   1.242  1.00  0.00     0.002 C 
HETATM   13  C   UNL     1      38.965 -11.891   1.555  1.00  0.00     0.027 C 
HETATM   14  H   UNL     1      39.058 -11.789   4.248  1.00  0.00     0.163 HD
ENDROOT
BRANCH   1  15
HETATM   15  C   UNL     1      41.466 -15.386   5.345  1.00  0.00     0.146 C 
BRANCH  15  16
HETATM   16  C   UNL     1      42.499 -16.193   4.586  1.00  0.00     0.224 C 
HETATM   17  N   UNL     1      42.201 -17.529   4.471  1.00  0.00    -0.327 N 
HETATM   18  H   UNL     1      41.277 -17.838   4.745  1.00  0.00     0.169 HD
HETATM   19  O   UNL     1      43.441 -15.597   4.058  1.00  0.00    -0.273 OA
BRANCH  17  20
HETATM   20  C   UNL     1      43.038 -18.524   3.907  1.00  0.00     0.040 A 
HETATM   21  C   UNL     1      42.912 -18.836   2.538  1.00  0.00    -0.035 A 
HETATM   22  C   UNL     1      41.961 -18.113   1.623  1.00  0.00     0.050 C 
HETATM   23  C   UNL     1      43.710 -19.856   1.991  1.00  0.00     0.009 A 
HETATM   24  C   UNL     1      44.622 -20.556   2.780  1.00  0.00     0.001 A 
HETATM   25  C   UNL     1      44.744 -20.247   4.129  1.00  0.00     0.002 A 
HETATM   26  C   UNL     1      43.959 -19.238   4.688  1.00  0.00     0.030 A 
ENDBRANCH  17  20
ENDBRANCH  15  16
ENDBRANCH   1  15
TORSDOF 3
ENDMDL
