MODEL 1
REMARK VINA RESULT:      -8.5      0.000      0.000
REMARK  6 active torsions:
REMARK  status: ('A' for Active; 'I' for Inactive)
REMARK    1  A    between atoms: O_2  and  C_3 
REMARK    2  A    between atoms: C_6  and  C_7 
REMARK    3  A    between atoms: C_13  and  C_14 
REMARK       I    between atoms: C_14  and  N_15 
REMARK    4  A    between atoms: N_15  and  C_16 
REMARK    5  A    between atoms: C_16  and  C_17 
REMARK    6  A    between atoms: C_24  and  C_25 
ROOT
HETATM    1  C   UNL     1      41.031 -16.721   5.028  1.00  0.00     0.118 C 
HETATM    2  N   UNL     1      40.221 -15.921   4.100  1.00  0.00    -0.365 N 
HETATM    3  C   UNL     1      40.600 -14.660   3.753  1.00  0.00     0.138 A 
HETATM    4  N   UNL     1      41.576 -13.998   4.460  1.00  0.00    -0.240 N 
HETATM    5  N   UNL     1      41.808 -12.747   4.036  1.00  0.00    -0.181 NA
HETATM    6  C   UNL     1      41.033 -12.649   2.953  1.00  0.00     0.160 A 
HETATM    7  C   UNL     1      40.236 -13.800   2.732  1.00  0.00     0.096 A 
HETATM    8  C   UNL     1      42.327 -14.557   5.568  1.00  0.00     0.221 C 
HETATM    9  C   UNL     1      41.618 -15.806   6.118  1.00  0.00     0.066 C 
HETATM   10  H   UNL     1      39.717 -16.499   3.429  1.00  0.00     0.161 HD
ENDROOT
BRANCH   7  11
HETATM   11  C   UNL     1      39.307 -13.979   1.637  1.00  0.00     0.257 C 
HETATM   12  N   UNL     1      39.475 -13.131   0.567  1.00  0.00    -0.352 N 
HETATM   13  H   UNL     1      40.280 -12.520   0.547  1.00  0.00     0.163 HD
HETATM   14  O   UNL     1      38.441 -14.847   1.661  1.00  0.00    -0.267 OA
BRANCH  12  15
HETATM   15  C   UNL     1      38.580 -13.194  -0.562  1.00  0.00     0.161 C 
BRANCH  15  16
HETATM   16  C   UNL     1      39.085 -14.089  -1.663  1.00  0.00    -0.041 A 
HETATM   17  C   UNL     1      40.371 -14.647  -1.607  1.00  0.00     0.009 A 
HETATM   18  C   UNL     1      40.806 -15.531  -2.597  1.00  0.00     0.001 A 
HETATM   19  C   UNL     1      39.956 -15.879  -3.644  1.00  0.00     0.000 A 
HETATM   20  C   UNL     1      38.672 -15.342  -3.706  1.00  0.00     0.001 A 
HETATM   21  C   UNL     1      38.238 -14.453  -2.721  1.00  0.00     0.009 A 
ENDBRANCH  15  16
ENDBRANCH  12  15
ENDBRANCH   7  11
BRANCH   1  22
HETATM   22  C   UNL     1      42.025 -17.626   4.316  1.00  0.00    -0.035 A 
HETATM   23  C   UNL     1      42.089 -17.737   2.916  1.00  0.00     0.012 A 
HETATM   24  C   UNL     1      42.997 -18.600   2.292  1.00  0.00     0.037 A 
HETATM   25  C   UNL     1      43.864 -19.378   3.053  1.00  0.00     0.068 A 
HETATM   26  C   UNL     1      43.805 -19.290   4.443  1.00  0.00     0.037 A 
HETATM   27  C   UNL     1      42.895 -18.431   5.069  1.00  0.00     0.012 A 
BRANCH  25  28
HETATM   28  O   UNL     1      44.794 -20.255   2.566  1.00  0.00    -0.356 OA
HETATM   29  C   UNL     1      44.312 -21.519   2.127  1.00  0.00     0.210 C 
ENDBRANCH  25  28
ENDBRANCH   1  22
BRANCH   8  30
HETATM   30  C   UNL     1      43.765 -14.801   5.155  1.00  0.00     0.409 C 
HETATM   31  F   UNL     1      43.909 -15.185   3.873  1.00  0.00    -0.169 F 
HETATM   32  F   UNL     1      44.542 -13.708   5.341  1.00  0.00    -0.169 F 
HETATM   33  F   UNL     1      44.308 -15.780   5.928  1.00  0.00    -0.169 F 
ENDBRANCH   8  30
TORSDOF 6
ENDMDL
MODEL 2
REMARK VINA RESULT:      -8.5      1.591      2.133
REMARK  6 active torsions:
REMARK  status: ('A' for Active; 'I' for Inactive)
REMARK    1  A    between atoms: O_2  and  C_3 
REMARK    2  A    between atoms: C_6  and  C_7 
REMARK    3  A    between atoms: C_13  and  C_14 
REMARK       I    between atoms: C_14  and  N_15 
REMARK    4  A    between atoms: N_15  and  C_16 
REMARK    5  A    between atoms: C_16  and  C_17 
REMARK    6  A    between atoms: C_24  and  C_25 
ROOT
HETATM    1  C   UNL     1      41.004 -17.001   3.932  1.00  0.00     0.118 C 
HETATM    2  N   UNL     1      40.879 -16.434   2.584  1.00  0.00    -0.365 N 
HETATM    3  C   UNL     1      41.418 -15.221   2.284  1.00  0.00     0.138 A 
HETATM    4  N   UNL     1      41.841 -14.373   3.280  1.00  0.00    -0.240 N 
HETATM    5  N   UNL     1      42.303 -13.194   2.838  1.00  0.00    -0.181 NA
HETATM    6  C   UNL     1      42.277 -13.340   1.511  1.00  0.00     0.160 A 
HETATM    7  C   UNL     1      41.715 -14.574   1.097  1.00  0.00     0.096 A 
HETATM    8  C   UNL     1      41.822 -14.678   4.698  1.00  0.00     0.221 C 
HETATM    9  C   UNL     1      40.896 -15.873   4.975  1.00  0.00     0.066 C 
HETATM   10  H   UNL     1      40.827 -17.155   1.864  1.00  0.00     0.161 HD
ENDROOT
BRANCH   7  11
HETATM   11  C   UNL     1      41.562 -15.006  -0.275  1.00  0.00     0.257 C 
HETATM   12  N   UNL     1      41.680 -14.022  -1.228  1.00  0.00    -0.352 N 
HETATM   13  H   UNL     1      41.971 -13.096  -0.944  1.00  0.00     0.163 HD
HETATM   14  O   UNL     1      41.359 -16.182  -0.562  1.00  0.00    -0.267 OA
BRANCH  12  15
HETATM   15  C   UNL     1      41.506 -14.334  -2.625  1.00  0.00     0.161 C 
BRANCH  15  16
HETATM   16  C   UNL     1      40.069 -14.590  -2.996  1.00  0.00    -0.041 A 
HETATM   17  C   UNL     1      39.069 -13.652  -2.700  1.00  0.00     0.009 A 
HETATM   18  C   UNL     1      37.751 -13.865  -3.109  1.00  0.00     0.001 A 
HETATM   19  C   UNL     1      37.421 -15.010  -3.830  1.00  0.00     0.000 A 
HETATM   20  C   UNL     1      38.406 -15.945  -4.142  1.00  0.00     0.001 A 
HETATM   21  C   UNL     1      39.723 -15.736  -3.728  1.00  0.00     0.009 A 
ENDBRANCH  15  16
ENDBRANCH  12  15
ENDBRANCH   7  11
BRANCH   1  22
HETATM   22  C   UNL     1      42.204 -17.925   4.076  1.00  0.00    -0.035 A 
HETATM   23  C   UNL     1      42.978 -18.348   2.982  1.00  0.00     0.012 A 
HETATM   24  C   UNL     1      44.059 -19.221   3.145  1.00  0.00     0.037 A 
HETATM   25  C   UNL     1      44.393 -19.698   4.408  1.00  0.00     0.068 A 
HETATM   26  C   UNL     1      43.628 -19.300   5.504  1.00  0.00     0.037 A 
HETATM   27  C   UNL     1      42.544 -18.430   5.343  1.00  0.00     0.012 A 
BRANCH  25  28
HETATM   28  O   UNL     1      45.423 -20.550   4.699  1.00  0.00    -0.356 OA
HETATM   29  C   UNL     1      45.071 -21.892   5.016  1.00  0.00     0.210 C 
ENDBRANCH  25  28
ENDBRANCH   1  22
BRANCH   8  30
HETATM   30  C   UNL     1      43.236 -14.866   5.212  1.00  0.00     0.409 C 
HETATM   31  F   UNL     1      43.313 -15.571   6.356  1.00  0.00    -0.169 F 
HETATM   32  F   UNL     1      44.031 -15.479   4.304  1.00  0.00    -0.169 F 
HETATM   33  F   UNL     1      43.807 -13.654   5.451  1.00  0.00    -0.169 F 
ENDBRANCH   8  30
TORSDOF 6
ENDMDL
MODEL 3
REMARK VINA RESULT:      -8.4      3.990      8.482
REMARK  6 active torsions:
REMARK  status: ('A' for Active; 'I' for Inactive)
REMARK    1  A    between atoms: O_2  and  C_3 
REMARK    2  A    between atoms: C_6  and  C_7 
REMARK    3  A    between atoms: C_13  and  C_14 
REMARK       I    between atoms: C_14  and  N_15 
REMARK    4  A    between atoms: N_15  and  C_16 
REMARK    5  A    between atoms: C_16  and  C_17 
REMARK    6  A    between atoms: C_24  and  C_25 
ROOT
HETATM    1  C   UNL     1      40.732 -14.641   5.399  1.00  0.00     0.118 C 
HETATM    2  N   UNL     1      41.903 -14.276   6.207  1.00  0.00    -0.365 N 
HETATM    3  C   UNL     1      42.928 -15.154   6.384  1.00  0.00     0.138 A 
HETATM    4  N   UNL     1      42.783 -16.482   6.061  1.00  0.00    -0.240 N 
HETATM    5  N   UNL     1      43.857 -17.235   6.336  1.00  0.00    -0.181 NA
HETATM    6  C   UNL     1      44.757 -16.337   6.745  1.00  0.00     0.160 A 
HETATM    7  C   UNL     1      44.235 -15.021   6.820  1.00  0.00     0.096 A 
HETATM    8  C   UNL     1      41.599 -17.070   5.463  1.00  0.00     0.221 C 
HETATM    9  C   UNL     1      40.395 -16.126   5.623  1.00  0.00     0.066 C 
HETATM   10  H   UNL     1      42.094 -13.276   6.182  1.00  0.00     0.161 HD
ENDROOT
BRANCH   7  11
HETATM   11  C   UNL     1      44.977 -13.847   7.226  1.00  0.00     0.257 C 
HETATM   12  N   UNL     1      44.562 -13.252   8.395  1.00  0.00    -0.352 N 
HETATM   13  H   UNL     1      43.856 -13.711   8.955  1.00  0.00     0.163 HD
HETATM   14  O   UNL     1      45.928 -13.427   6.574  1.00  0.00    -0.267 OA
BRANCH  12  15
HETATM   15  C   UNL     1      45.204 -12.053   8.872  1.00  0.00     0.161 C 
BRANCH  15  16
HETATM   16  C   UNL     1      44.307 -11.209   9.739  1.00  0.00    -0.041 A 
HETATM   17  C   UNL     1      43.034 -10.821   9.296  1.00  0.00     0.009 A 
HETATM   18  C   UNL     1      42.180 -10.098  10.132  1.00  0.00     0.001 A 
HETATM   19  C   UNL     1      42.584  -9.768  11.424  1.00  0.00     0.000 A 
HETATM   20  C   UNL     1      43.841 -10.157  11.881  1.00  0.00     0.001 A 
HETATM   21  C   UNL     1      44.698 -10.875  11.044  1.00  0.00     0.009 A 
ENDBRANCH  15  16
ENDBRANCH  12  15
ENDBRANCH   7  11
BRANCH   1  22
HETATM   22  C   UNL     1      40.855 -14.201   3.947  1.00  0.00    -0.035 A 
HETATM   23  C   UNL     1      41.997 -13.557   3.439  1.00  0.00     0.012 A 
HETATM   24  C   UNL     1      42.068 -13.140   2.105  1.00  0.00     0.037 A 
HETATM   25  C   UNL     1      40.996 -13.353   1.244  1.00  0.00     0.068 A 
HETATM   26  C   UNL     1      39.850 -13.979   1.734  1.00  0.00     0.037 A 
HETATM   27  C   UNL     1      39.776 -14.393   3.070  1.00  0.00     0.012 A 
BRANCH  25  28
HETATM   28  O   UNL     1      40.941 -12.997  -0.075  1.00  0.00    -0.356 OA
HETATM   29  C   UNL     1      41.701 -13.788  -0.981  1.00  0.00     0.210 C 
ENDBRANCH  25  28
ENDBRANCH   1  22
BRANCH   8  30
HETATM   30  C   UNL     1      41.880 -17.466   4.026  1.00  0.00     0.409 C 
HETATM   31  F   UNL     1      40.804 -17.398   3.220  1.00  0.00    -0.169 F 
HETATM   32  F   UNL     1      42.853 -16.708   3.469  1.00  0.00    -0.169 F 
HETATM   33  F   UNL     1      42.333 -18.748   3.981  1.00  0.00    -0.169 F 
ENDBRANCH   8  30
TORSDOF 6
ENDMDL
MODEL 4
REMARK VINA RESULT:      -8.4      2.055      2.891
REMARK  6 active torsions:
REMARK  status: ('A' for Active; 'I' for Inactive)
REMARK    1  A    between atoms: O_2  and  C_3 
REMARK    2  A    between atoms: C_6  and  C_7 
REMARK    3  A    between atoms: C_13  and  C_14 
REMARK       I    between atoms: C_14  and  N_15 
REMARK    4  A    between atoms: N_15  and  C_16 
REMARK    5  A    between atoms: C_16  and  C_17 
REMARK    6  A    between atoms: C_24  and  C_25 
ROOT
HETATM    1  C   UNL     1      40.743 -16.598   2.905  1.00  0.00     0.118 C 
HETATM    2  N   UNL     1      40.395 -16.121   1.561  1.00  0.00    -0.365 N 
HETATM    3  C   UNL     1      40.989 -15.013   1.039  1.00  0.00     0.138 A 
HETATM    4  N   UNL     1      41.707 -14.156   1.839  1.00  0.00    -0.240 N 
HETATM    5  N   UNL     1      42.191 -13.082   1.198  1.00  0.00    -0.181 NA
HETATM    6  C   UNL     1      41.866 -13.321  -0.075  1.00  0.00     0.160 A 
HETATM    7  C   UNL     1      41.094 -14.499  -0.241  1.00  0.00     0.096 A 
HETATM    8  C   UNL     1      41.959 -14.351   3.254  1.00  0.00     0.221 C 
HETATM    9  C   UNL     1      40.987 -15.393   3.831  1.00  0.00     0.066 C 
HETATM   10  H   UNL     1      40.111 -16.880   0.942  1.00  0.00     0.161 HD
ENDROOT
BRANCH   7  11
HETATM   11  C   UNL     1      40.604 -15.007  -1.504  1.00  0.00     0.257 C 
HETATM   12  N   UNL     1      39.374 -14.536  -1.900  1.00  0.00    -0.352 N 
HETATM   13  H   UNL     1      38.936 -13.796  -1.367  1.00  0.00     0.163 HD
HETATM   14  O   UNL     1      41.258 -15.794  -2.181  1.00  0.00    -0.267 OA
BRANCH  12  15
HETATM   15  C   UNL     1      38.771 -15.006  -3.122  1.00  0.00     0.161 C 
BRANCH  15  16
HETATM   16  C   UNL     1      37.665 -14.111  -3.616  1.00  0.00    -0.041 A 
HETATM   17  C   UNL     1      37.722 -12.722  -3.425  1.00  0.00     0.009 A 
HETATM   18  C   UNL     1      36.727 -11.892  -3.946  1.00  0.00     0.001 A 
HETATM   19  C   UNL     1      35.673 -12.438  -4.676  1.00  0.00     0.000 A 
HETATM   20  C   UNL     1      35.610 -13.815  -4.883  1.00  0.00     0.001 A 
HETATM   21  C   UNL     1      36.601 -14.647  -4.357  1.00  0.00     0.009 A 
ENDBRANCH  15  16
ENDBRANCH  12  15
ENDBRANCH   7  11
BRANCH   1  22
HETATM   22  C   UNL     1      41.836 -17.657   2.892  1.00  0.00    -0.035 A 
HETATM   23  C   UNL     1      42.428 -18.158   4.064  1.00  0.00     0.012 A 
HETATM   24  C   UNL     1      43.451 -19.112   4.017  1.00  0.00     0.037 A 
HETATM   25  C   UNL     1      43.912 -19.588   2.794  1.00  0.00     0.068 A 
HETATM   26  C   UNL     1      43.345 -19.093   1.620  1.00  0.00     0.037 A 
HETATM   27  C   UNL     1      42.325 -18.136   1.665  1.00  0.00     0.012 A 
BRANCH  25  28
HETATM   28  O   UNL     1      44.899 -20.517   2.614  1.00  0.00    -0.356 OA
HETATM   29  C   UNL     1      44.490 -21.802   2.158  1.00  0.00     0.210 C 
ENDBRANCH  25  28
ENDBRANCH   1  22
BRANCH   8  30
HETATM   30  C   UNL     1      43.421 -14.682   3.485  1.00  0.00     0.409 C 
HETATM   31  F   UNL     1      43.965 -15.454   2.526  1.00  0.00    -0.169 F 
HETATM   32  F   UNL     1      44.185 -13.571   3.594  1.00  0.00    -0.169 F 
HETATM   33  F   UNL     1      43.563 -15.350   4.662  1.00  0.00    -0.169 F 
ENDBRANCH   8  30
TORSDOF 6
ENDMDL
MODEL 5
REMARK VINA RESULT:      -8.4      2.302      2.707
REMARK  6 active torsions:
REMARK  status: ('A' for Active; 'I' for Inactive)
REMARK    1  A    between atoms: O_2  and  C_3 
REMARK    2  A    between atoms: C_6  and  C_7 
REMARK    3  A    between atoms: C_13  and  C_14 
REMARK       I    between atoms: C_14  and  N_15 
REMARK    4  A    between atoms: N_15  and  C_16 
REMARK    5  A    between atoms: C_16  and  C_17 
REMARK    6  A    between atoms: C_24  and  C_25 
ROOT
HETATM    1  C   UNL     1      41.158 -17.125   4.905  1.00  0.00     0.118 C 
HETATM    2  N   UNL     1      40.932 -16.387   3.656  1.00  0.00    -0.365 N 
HETATM    3  C   UNL     1      41.505 -15.169   3.452  1.00  0.00     0.138 A 
HETATM    4  N   UNL     1      42.071 -14.474   4.494  1.00  0.00    -0.240 N 
HETATM    5  N   UNL     1      42.552 -13.269   4.153  1.00  0.00    -0.181 NA
HETATM    6  C   UNL     1      42.386 -13.244   2.828  1.00  0.00     0.160 A 
HETATM    7  C   UNL     1      41.718 -14.390   2.328  1.00  0.00     0.096 A 
HETATM    8  C   UNL     1      42.176 -14.956   5.858  1.00  0.00     0.221 C 
HETATM    9  C   UNL     1      41.217 -16.136   6.083  1.00  0.00     0.066 C 
HETATM   10  H   UNL     1      40.769 -17.007   2.864  1.00  0.00     0.161 HD
ENDROOT
BRANCH   7  11
HETATM   11  C   UNL     1      41.406 -14.638   0.938  1.00  0.00     0.257 C 
HETATM   12  N   UNL     1      41.789 -13.654   0.055  1.00  0.00    -0.352 N 
HETATM   13  H   UNL     1      42.351 -12.884   0.392  1.00  0.00     0.163 HD
HETATM   14  O   UNL     1      40.853 -15.671   0.574  1.00  0.00    -0.267 OA
BRANCH  12  15
HETATM   15  C   UNL     1      41.492 -13.779  -1.350  1.00  0.00     0.161 C 
BRANCH  15  16
HETATM   16  C   UNL     1      41.966 -12.599  -2.159  1.00  0.00    -0.041 A 
HETATM   17  C   UNL     1      41.783 -12.558  -3.549  1.00  0.00     0.009 A 
HETATM   18  C   UNL     1      42.163 -11.432  -4.283  1.00  0.00     0.001 A 
HETATM   19  C   UNL     1      42.715 -10.330  -3.634  1.00  0.00     0.000 A 
HETATM   20  C   UNL     1      42.892 -10.353  -2.252  1.00  0.00     0.001 A 
HETATM   21  C   UNL     1      42.519 -11.481  -1.518  1.00  0.00     0.009 A 
ENDBRANCH  15  16
ENDBRANCH  12  15
ENDBRANCH   7  11
BRANCH   1  22
HETATM   22  C   UNL     1      42.314 -18.111   4.807  1.00  0.00    -0.035 A 
HETATM   23  C   UNL     1      42.942 -18.433   3.592  1.00  0.00     0.012 A 
HETATM   24  C   UNL     1      43.985 -19.365   3.532  1.00  0.00     0.037 A 
HETATM   25  C   UNL     1      44.424 -20.003   4.688  1.00  0.00     0.068 A 
HETATM   26  C   UNL     1      43.803 -19.705   5.901  1.00  0.00     0.037 A 
HETATM   27  C   UNL     1      42.757 -18.777   5.962  1.00  0.00     0.012 A 
BRANCH  25  28
HETATM   28  O   UNL     1      45.430 -20.926   4.764  1.00  0.00    -0.356 OA
HETATM   29  C   UNL     1      45.060 -22.241   5.163  1.00  0.00     0.210 C 
ENDBRANCH  25  28
ENDBRANCH   1  22
BRANCH   8  30
HETATM   30  C   UNL     1      43.622 -15.268   6.193  1.00  0.00     0.409 C 
HETATM   31  F   UNL     1      44.289 -15.896   5.207  1.00  0.00    -0.169 F 
HETATM   32  F   UNL     1      44.323 -14.156   6.513  1.00  0.00    -0.169 F 
HETATM   33  F   UNL     1      43.678 -16.073   7.289  1.00  0.00    -0.169 F 
ENDBRANCH   8  30
TORSDOF 6
ENDMDL
MODEL 6
REMARK VINA RESULT:      -8.3      2.664      6.628
REMARK  6 active torsions:
REMARK  status: ('A' for Active; 'I' for Inactive)
REMARK    1  A    between atoms: O_2  and  C_3 
REMARK    2  A    between atoms: C_6  and  C_7 
REMARK    3  A    between atoms: C_13  and  C_14 
REMARK       I    between atoms: C_14  and  N_15 
REMARK    4  A    between atoms: N_15  and  C_16 
REMARK    5  A    between atoms: C_16  and  C_17 
REMARK    6  A    between atoms: C_24  and  C_25 
ROOT
HETATM    1  C   UNL     1      43.066 -14.044   2.917  1.00  0.00     0.118 C 
HETATM    2  N   UNL     1      43.307 -15.178   3.818  1.00  0.00    -0.365 N 
HETATM    3  C   UNL     1      42.413 -15.495   4.795  1.00  0.00     0.138 A 
HETATM    4  N   UNL     1      41.418 -14.615   5.151  1.00  0.00    -0.240 N 
HETATM    5  N   UNL     1      40.646 -15.041   6.161  1.00  0.00    -0.181 NA
HETATM    6  C   UNL     1      41.093 -16.279   6.381  1.00  0.00     0.160 A 
HETATM    7  C   UNL     1      42.211 -16.618   5.577  1.00  0.00     0.096 A 
HETATM    8  C   UNL     1      41.173 -13.333   4.519  1.00  0.00     0.221 C 
HETATM    9  C   UNL     1      42.400 -12.898   3.701  1.00  0.00     0.066 C 
HETATM   10  H   UNL     1      43.851 -15.916   3.374  1.00  0.00     0.161 HD
ENDROOT
BRANCH   7  11
HETATM   11  C   UNL     1      42.902 -17.889   5.596  1.00  0.00     0.257 C 
HETATM   12  N   UNL     1      44.199 -17.871   5.139  1.00  0.00    -0.352 N 
HETATM   13  H   UNL     1      44.632 -16.982   4.925  1.00  0.00     0.163 HD
HETATM   14  O   UNL     1      42.364 -18.910   6.013  1.00  0.00    -0.267 OA
BRANCH  12  15
HETATM   15  C   UNL     1      44.968 -19.089   5.076  1.00  0.00     0.161 C 
BRANCH  15  16
HETATM   16  C   UNL     1      44.534 -20.002   3.960  1.00  0.00    -0.041 A 
HETATM   17  C   UNL     1      43.980 -19.485   2.779  1.00  0.00     0.009 A 
HETATM   18  C   UNL     1      43.644 -20.333   1.721  1.00  0.00     0.001 A 
HETATM   19  C   UNL     1      43.872 -21.703   1.826  1.00  0.00     0.000 A 
HETATM   20  C   UNL     1      44.433 -22.229   2.988  1.00  0.00     0.001 A 
HETATM   21  C   UNL     1      44.763 -21.384   4.049  1.00  0.00     0.009 A 
ENDBRANCH  15  16
ENDBRANCH  12  15
ENDBRANCH   7  11
BRANCH   1  22
HETATM   22  C   UNL     1      42.376 -14.452   1.624  1.00  0.00    -0.035 A 
HETATM   23  C   UNL     1      42.070 -15.788   1.311  1.00  0.00     0.012 A 
HETATM   24  C   UNL     1      41.460 -16.134   0.100  1.00  0.00     0.037 A 
HETATM   25  C   UNL     1      41.142 -15.151  -0.832  1.00  0.00     0.068 A 
HETATM   26  C   UNL     1      41.450 -13.822  -0.544  1.00  0.00     0.037 A 
HETATM   27  C   UNL     1      42.064 -13.475   0.665  1.00  0.00     0.012 A 
BRANCH  25  28
HETATM   28  O   UNL     1      40.545 -15.358  -2.045  1.00  0.00    -0.356 OA
HETATM   29  C   UNL     1      41.046 -14.600  -3.140  1.00  0.00     0.210 C 
ENDBRANCH  25  28
ENDBRANCH   1  22
BRANCH   8  30
HETATM   30  C   UNL     1      39.888 -13.383   3.716  1.00  0.00     0.409 C 
HETATM   31  F   UNL     1      39.591 -14.603   3.232  1.00  0.00    -0.169 F 
HETATM   32  F   UNL     1      38.821 -12.961   4.435  1.00  0.00    -0.169 F 
HETATM   33  F   UNL     1      39.976 -12.541   2.651  1.00  0.00    -0.169 F 
ENDBRANCH   8  30
TORSDOF 6
ENDMDL
MODEL 7
REMARK VINA RESULT:      -8.1      1.448      1.935
REMARK  6 active torsions:
REMARK  status: ('A' for Active; 'I' for Inactive)
REMARK    1  A    between atoms: O_2  and  C_3 
REMARK    2  A    between atoms: C_6  and  C_7 
REMARK    3  A    between atoms: C_13  and  C_14 
REMARK       I    between atoms: C_14  and  N_15 
REMARK    4  A    between atoms: N_15  and  C_16 
REMARK    5  A    between atoms: C_16  and  C_17 
REMARK    6  A    between atoms: C_24  and  C_25 
ROOT
HETATM    1  C   UNL     1      41.258 -17.350   5.424  1.00  0.00     0.118 C 
HETATM    2  N   UNL     1      40.636 -16.278   4.637  1.00  0.00    -0.365 N 
HETATM    3  C   UNL     1      41.146 -15.016   4.650  1.00  0.00     0.138 A 
HETATM    4  N   UNL     1      42.068 -14.640   5.599  1.00  0.00    -0.240 N 
HETATM    5  N   UNL     1      42.443 -13.355   5.519  1.00  0.00    -0.181 NA
HETATM    6  C   UNL     1      41.824 -12.929   4.415  1.00  0.00     0.160 A 
HETATM    7  C   UNL     1      40.980 -13.910   3.836  1.00  0.00     0.096 A 
HETATM    8  C   UNL     1      42.627 -15.514   6.612  1.00  0.00     0.221 C 
HETATM    9  C   UNL     1      41.764 -16.778   6.761  1.00  0.00     0.066 C 
HETATM   10  H   UNL     1      40.182 -16.630   3.795  1.00  0.00     0.161 HD
ENDROOT
BRANCH   7  11
HETATM   11  C   UNL     1      40.191 -13.734   2.636  1.00  0.00     0.257 C 
HETATM   12  N   UNL     1      40.610 -14.444   1.535  1.00  0.00    -0.352 N 
HETATM   13  H   UNL     1      41.356 -15.118   1.641  1.00  0.00     0.163 HD
HETATM   14  O   UNL     1      39.200 -13.011   2.617  1.00  0.00    -0.267 OA
BRANCH  12  15
HETATM   15  C   UNL     1      39.920 -14.312   0.276  1.00  0.00     0.161 C 
BRANCH  15  16
HETATM   16  C   UNL     1      40.808 -13.808  -0.832  1.00  0.00    -0.041 A 
HETATM   17  C   UNL     1      41.717 -12.763  -0.608  1.00  0.00     0.009 A 
HETATM   18  C   UNL     1      42.585 -12.349  -1.621  1.00  0.00     0.001 A 
HETATM   19  C   UNL     1      42.565 -12.982  -2.861  1.00  0.00     0.000 A 
HETATM   20  C   UNL     1      41.675 -14.030  -3.093  1.00  0.00     0.001 A 
HETATM   21  C   UNL     1      40.802 -14.442  -2.084  1.00  0.00     0.009 A 
ENDBRANCH  15  16
ENDBRANCH  12  15
ENDBRANCH   7  11
BRANCH   1  22
HETATM   22  C   UNL     1      42.268 -18.160   4.625  1.00  0.00    -0.035 A 
HETATM   23  C   UNL     1      42.375 -18.081   3.226  1.00  0.00     0.012 A 
HETATM   24  C   UNL     1      43.296 -18.860   2.517  1.00  0.00     0.037 A 
HETATM   25  C   UNL     1      44.133 -19.744   3.190  1.00  0.00     0.068 A 
HETATM   26  C   UNL     1      44.032 -19.846   4.577  1.00  0.00     0.037 A 
HETATM   27  C   UNL     1      43.108 -19.070   5.287  1.00  0.00     0.012 A 
BRANCH  25  28
HETATM   28  O   UNL     1      45.072 -20.556   2.616  1.00  0.00    -0.356 OA
HETATM   29  C   UNL     1      44.609 -21.794   2.089  1.00  0.00     0.210 C 
ENDBRANCH  25  28
ENDBRANCH   1  22
BRANCH   8  30
HETATM   30  C   UNL     1      44.085 -15.800   6.310  1.00  0.00     0.409 C 
HETATM   31  F   UNL     1      44.928 -14.832   6.716  1.00  0.00    -0.169 F 
HETATM   32  F   UNL     1      44.502 -16.961   6.865  1.00  0.00    -0.169 F 
HETATM   33  F   UNL     1      44.260 -15.944   4.968  1.00  0.00    -0.169 F 
ENDBRANCH   8  30
TORSDOF 6
ENDMDL
MODEL 8
REMARK VINA RESULT:      -7.9      2.894      6.658
REMARK  6 active torsions:
REMARK  status: ('A' for Active; 'I' for Inactive)
REMARK    1  A    between atoms: O_2  and  C_3 
REMARK    2  A    between atoms: C_6  and  C_7 
REMARK    3  A    between atoms: C_13  and  C_14 
REMARK       I    between atoms: C_14  and  N_15 
REMARK    4  A    between atoms: N_15  and  C_16 
REMARK    5  A    between atoms: C_16  and  C_17 
REMARK    6  A    between atoms: C_24  and  C_25 
ROOT
HETATM    1  C   UNL     1      42.119 -12.493   1.116  1.00  0.00     0.118 C 
HETATM    2  N   UNL     1      42.511 -13.202   2.340  1.00  0.00    -0.365 N 
HETATM    3  C   UNL     1      41.604 -13.451   3.324  1.00  0.00     0.138 A 
HETATM    4  N   UNL     1      40.386 -12.812   3.336  1.00  0.00    -0.240 N 
HETATM    5  N   UNL     1      39.617 -13.118   4.391  1.00  0.00    -0.181 NA
HETATM    6  C   UNL     1      40.323 -14.066   5.013  1.00  0.00     0.160 A 
HETATM    7  C   UNL     1      41.584 -14.306   4.411  1.00  0.00     0.096 A 
HETATM    8  C   UNL     1      39.918 -11.890   2.319  1.00  0.00     0.221 C 
HETATM    9  C   UNL     1      41.097 -11.395   1.464  1.00  0.00     0.066 C 
HETATM   10  H   UNL     1      43.273 -13.860   2.178  1.00  0.00     0.161 HD
ENDROOT
BRANCH   7  11
HETATM   11  C   UNL     1      42.556 -15.277   4.863  1.00  0.00     0.257 C 
HETATM   12  N   UNL     1      42.187 -16.596   4.738  1.00  0.00    -0.352 N 
HETATM   13  H   UNL     1      41.331 -16.822   4.249  1.00  0.00     0.163 HD
HETATM   14  O   UNL     1      43.647 -14.937   5.311  1.00  0.00    -0.267 OA
BRANCH  12  15
HETATM   15  C   UNL     1      43.063 -17.646   5.194  1.00  0.00     0.161 C 
BRANCH  15  16
HETATM   16  C   UNL     1      43.420 -18.629   4.109  1.00  0.00    -0.041 A 
HETATM   17  C   UNL     1      44.312 -19.683   4.356  1.00  0.00     0.009 A 
HETATM   18  C   UNL     1      44.584 -20.630   3.366  1.00  0.00     0.001 A 
HETATM   19  C   UNL     1      43.957 -20.542   2.125  1.00  0.00     0.000 A 
HETATM   20  C   UNL     1      43.060 -19.507   1.871  1.00  0.00     0.001 A 
HETATM   21  C   UNL     1      42.791 -18.556   2.857  1.00  0.00     0.009 A 
ENDBRANCH  15  16
ENDBRANCH  12  15
ENDBRANCH   7  11
BRANCH   1  22
HETATM   22  C   UNL     1      41.724 -13.434  -0.012  1.00  0.00    -0.035 A 
HETATM   23  C   UNL     1      41.426 -12.987  -1.311  1.00  0.00     0.012 A 
HETATM   24  C   UNL     1      41.039 -13.876  -2.320  1.00  0.00     0.037 A 
HETATM   25  C   UNL     1      40.934 -15.237  -2.055  1.00  0.00     0.068 A 
HETATM   26  C   UNL     1      41.213 -15.698  -0.768  1.00  0.00     0.037 A 
HETATM   27  C   UNL     1      41.596 -14.809   0.243  1.00  0.00     0.012 A 
BRANCH  25  28
HETATM   28  O   UNL     1      40.570 -16.205  -2.950  1.00  0.00    -0.356 OA
HETATM   29  C   UNL     1      39.446 -15.920  -3.775  1.00  0.00     0.210 C 
ENDBRANCH  25  28
ENDBRANCH   1  22
BRANCH   8  30
HETATM   30  C   UNL     1      38.799 -12.521   1.514  1.00  0.00     0.409 C 
HETATM   31  F   UNL     1      38.860 -13.864   1.452  1.00  0.00    -0.169 F 
HETATM   32  F   UNL     1      37.577 -12.192   1.994  1.00  0.00    -0.169 F 
HETATM   33  F   UNL     1      38.834 -12.061   0.234  1.00  0.00    -0.169 F 
ENDBRANCH   8  30
TORSDOF 6
ENDMDL
MODEL 9
REMARK VINA RESULT:      -7.9      3.582      7.998
REMARK  6 active torsions:
REMARK  status: ('A' for Active; 'I' for Inactive)
REMARK    1  A    between atoms: O_2  and  C_3 
REMARK    2  A    between atoms: C_6  and  C_7 
REMARK    3  A    between atoms: C_13  and  C_14 
REMARK       I    between atoms: C_14  and  N_15 
REMARK    4  A    between atoms: N_15  and  C_16 
REMARK    5  A    between atoms: C_16  and  C_17 
REMARK    6  A    between atoms: C_24  and  C_25 
ROOT
HETATM    1  C   UNL     1      41.607 -12.813   1.387  1.00  0.00     0.118 C 
HETATM    2  N   UNL     1      42.217 -14.111   1.700  1.00  0.00    -0.365 N 
HETATM    3  C   UNL     1      41.446 -15.219   1.878  1.00  0.00     0.138 A 
HETATM    4  N   UNL     1      40.086 -15.111   2.049  1.00  0.00    -0.240 N 
HETATM    5  N   UNL     1      39.465 -16.280   2.262  1.00  0.00    -0.181 NA
HETATM    6  C   UNL     1      40.446 -17.173   2.111  1.00  0.00     0.160 A 
HETATM    7  C   UNL     1      41.713 -16.577   1.891  1.00  0.00     0.096 A 
HETATM    8  C   UNL     1      39.336 -13.870   2.002  1.00  0.00     0.221 C 
HETATM    9  C   UNL     1      40.282 -12.668   2.158  1.00  0.00     0.066 C 
HETATM   10  H   UNL     1      43.152 -14.205   1.306  1.00  0.00     0.161 HD
ENDROOT
BRANCH   7  11
HETATM   11  C   UNL     1      42.953 -17.295   1.689  1.00  0.00     0.257 C 
HETATM   12  N   UNL     1      42.885 -18.660   1.844  1.00  0.00    -0.352 N 
HETATM   13  H   UNL     1      41.981 -19.094   1.976  1.00  0.00     0.163 HD
HETATM   14  O   UNL     1      43.990 -16.717   1.379  1.00  0.00    -0.267 OA
BRANCH  12  15
HETATM   15  C   UNL     1      44.069 -19.470   1.706  1.00  0.00     0.161 C 
BRANCH  15  16
HETATM   16  C   UNL     1      44.278 -20.410   2.864  1.00  0.00    -0.041 A 
HETATM   17  C   UNL     1      44.395 -21.793   2.659  1.00  0.00     0.009 A 
HETATM   18  C   UNL     1      44.658 -22.651   3.729  1.00  0.00     0.001 A 
HETATM   19  C   UNL     1      44.822 -22.135   5.012  1.00  0.00     0.000 A 
HETATM   20  C   UNL     1      44.721 -20.762   5.229  1.00  0.00     0.001 A 
HETATM   21  C   UNL     1      44.452 -19.904   4.161  1.00  0.00     0.009 A 
ENDBRANCH  15  16
ENDBRANCH  12  15
ENDBRANCH   7  11
BRANCH   1  22
HETATM   22  C   UNL     1      41.539 -12.537  -0.107  1.00  0.00    -0.035 A 
HETATM   23  C   UNL     1      42.082 -13.405  -1.070  1.00  0.00     0.012 A 
HETATM   24  C   UNL     1      42.027 -13.109  -2.437  1.00  0.00     0.037 A 
HETATM   25  C   UNL     1      41.429 -11.932  -2.877  1.00  0.00     0.068 A 
HETATM   26  C   UNL     1      40.896 -11.053  -1.935  1.00  0.00     0.037 A 
HETATM   27  C   UNL     1      40.954 -11.346  -0.567  1.00  0.00     0.012 A 
BRANCH  25  28
HETATM   28  O   UNL     1      41.309 -11.530  -4.178  1.00  0.00    -0.356 OA
HETATM   29  C   UNL     1      42.471 -10.976  -4.784  1.00  0.00     0.210 C 
ENDBRANCH  25  28
ENDBRANCH   1  22
BRANCH   8  30
HETATM   30  C   UNL     1      38.484 -13.820   0.749  1.00  0.00     0.409 C 
HETATM   31  F   UNL     1      39.052 -14.401  -0.324  1.00  0.00    -0.169 F 
HETATM   32  F   UNL     1      37.274 -14.400   0.931  1.00  0.00    -0.169 F 
HETATM   33  F   UNL     1      38.230 -12.526   0.414  1.00  0.00    -0.169 F 
ENDBRANCH   8  30
TORSDOF 6
ENDMDL
MODEL 10
REMARK VINA RESULT:      -7.8      1.364      2.508
REMARK  6 active torsions:
REMARK  status: ('A' for Active; 'I' for Inactive)
REMARK    1  A    between atoms: O_2  and  C_3 
REMARK    2  A    between atoms: C_6  and  C_7 
REMARK    3  A    between atoms: C_13  and  C_14 
REMARK       I    between atoms: C_14  and  N_15 
REMARK    4  A    between atoms: N_15  and  C_16 
REMARK    5  A    between atoms: C_16  and  C_17 
REMARK    6  A    between atoms: C_24  and  C_25 
ROOT
HETATM    1  C   UNL     1      41.121 -16.885   5.200  1.00  0.00     0.118 C 
HETATM    2  N   UNL     1      40.295 -16.149   4.235  1.00  0.00    -0.365 N 
HETATM    3  C   UNL     1      40.633 -14.889   3.846  1.00  0.00     0.138 A 
HETATM    4  N   UNL     1      41.576 -14.167   4.540  1.00  0.00    -0.240 N 
HETATM    5  N   UNL     1      41.768 -12.925   4.073  1.00  0.00    -0.181 NA
HETATM    6  C   UNL     1      41.004 -12.894   2.978  1.00  0.00     0.160 A 
HETATM    7  C   UNL     1      40.251 -14.080   2.790  1.00  0.00     0.096 A 
HETATM    8  C   UNL     1      42.332 -14.658   5.675  1.00  0.00     0.221 C 
HETATM    9  C   UNL     1      41.661 -15.911   6.262  1.00  0.00     0.066 C 
HETATM   10  H   UNL     1      39.820 -16.769   3.579  1.00  0.00     0.161 HD
ENDROOT
BRANCH   7  11
HETATM   11  C   UNL     1      39.344 -14.331   1.692  1.00  0.00     0.257 C 
HETATM   12  N   UNL     1      39.466 -13.489   0.611  1.00  0.00    -0.352 N 
HETATM   13  H   UNL     1      40.232 -12.829   0.587  1.00  0.00     0.163 HD
HETATM   14  O   UNL     1      38.533 -15.252   1.723  1.00  0.00    -0.267 OA
BRANCH  12  15
HETATM   15  C   UNL     1      38.585 -13.624  -0.522  1.00  0.00     0.161 C 
BRANCH  15  16
HETATM   16  C   UNL     1      37.515 -12.564  -0.566  1.00  0.00    -0.041 A 
HETATM   17  C   UNL     1      36.750 -12.265   0.571  1.00  0.00     0.009 A 
HETATM   18  C   UNL     1      35.808 -11.234   0.543  1.00  0.00     0.001 A 
HETATM   19  C   UNL     1      35.632 -10.482  -0.616  1.00  0.00     0.000 A 
HETATM   20  C   UNL     1      36.393 -10.760  -1.749  1.00  0.00     0.001 A 
HETATM   21  C   UNL     1      37.331 -11.795  -1.725  1.00  0.00     0.009 A 
ENDBRANCH  15  16
ENDBRANCH  12  15
ENDBRANCH   7  11
BRANCH   1  22
HETATM   22  C   UNL     1      42.155 -17.779   4.532  1.00  0.00    -0.035 A 
HETATM   23  C   UNL     1      42.307 -17.862   3.137  1.00  0.00     0.012 A 
HETATM   24  C   UNL     1      43.250 -18.715   2.553  1.00  0.00     0.037 A 
HETATM   25  C   UNL     1      44.065 -19.512   3.351  1.00  0.00     0.068 A 
HETATM   26  C   UNL     1      43.920 -19.453   4.736  1.00  0.00     0.037 A 
HETATM   27  C   UNL     1      42.974 -18.603   5.322  1.00  0.00     0.012 A 
BRANCH  25  28
HETATM   28  O   UNL     1      45.022 -20.381   2.905  1.00  0.00    -0.356 OA
HETATM   29  C   UNL     1      44.563 -21.621   2.378  1.00  0.00     0.210 C 
ENDBRANCH  25  28
ENDBRANCH   1  22
BRANCH   8  30
HETATM   30  C   UNL     1      43.783 -14.865   5.288  1.00  0.00     0.409 C 
HETATM   31  F   UNL     1      44.548 -13.766   5.425  1.00  0.00    -0.169 F 
HETATM   32  F   UNL     1      44.365 -15.856   6.002  1.00  0.00    -0.169 F 
HETATM   33  F   UNL     1      43.864 -15.248   3.985  1.00  0.00    -0.169 F 
ENDBRANCH   8  30
TORSDOF 6
ENDMDL
