MODEL 1
REMARK VINA RESULT:      -8.1      0.000      0.000
REMARK  6 active torsions:
REMARK  status: ('A' for Active; 'I' for Inactive)
REMARK    1  A    between atoms: C_2  and  C_3 
REMARK    2  A    between atoms: C_3  and  O_4 
REMARK    3  A    between atoms: O_4  and  C_5 
REMARK    4  A    between atoms: C_8  and  C_9 
REMARK    5  A    between atoms: C_9  and  N_10 
REMARK       I    between atoms: N_10  and  C_11 
REMARK       I    between atoms: C_11  and  N_12 
REMARK    6  A    between atoms: N_12  and  C_13 
ROOT
HETATM    1  N   UNL     1      42.231 -15.875   4.148  1.00  0.00    -0.339 N 
HETATM    2  C   UNL     1      41.827 -16.992   4.790  1.00  0.00     0.316 C 
HETATM    3  N   UNL     1      42.625 -18.079   4.743  1.00  0.00    -0.338 N 
HETATM    4  O   UNL     1      40.772 -17.066   5.414  1.00  0.00    -0.247 OA
HETATM    5  H   UNL     1      42.948 -15.974   3.451  1.00  0.00     0.164 HD
HETATM    6  H   UNL     1      42.213 -18.822   5.294  1.00  0.00     0.164 HD
ENDROOT
BRANCH   1   7
HETATM    7  C   UNL     1      41.368 -14.725   4.023  1.00  0.00     0.164 C 
BRANCH   7   8
HETATM    8  C   UNL     1      40.804 -14.567   2.639  1.00  0.00    -0.021 A 
HETATM    9  C   UNL     1      41.643 -14.441   1.536  1.00  0.00     0.128 A 
HETATM   10  N   UNL     1      41.211 -14.249   0.267  1.00  0.00    -0.235 NA
HETATM   11  C   UNL     1      39.872 -14.195   0.074  1.00  0.00     0.186 A 
HETATM   12  C   UNL     1      38.948 -14.343   1.107  1.00  0.00     0.087 A 
HETATM   13  C   UNL     1      39.425 -14.535   2.405  1.00  0.00     0.038 A 
HETATM   14 CL   UNL     1      37.246 -14.283   0.844  1.00  0.00    -0.080 Cl
BRANCH  11  15
HETATM   15  O   UNL     1      39.393 -13.968  -1.203  1.00  0.00    -0.333 OA
BRANCH  15  16
HETATM   16  C   UNL     1      40.090 -14.700  -2.215  1.00  0.00     0.181 C 
BRANCH  16  17
HETATM   17  C   UNL     1      39.178 -14.841  -3.445  1.00  0.00     0.002 C 
HETATM   18  C   UNL     1      37.746 -14.439  -3.096  1.00  0.00     0.011 C 
HETATM   19  C   UNL     1      39.207 -16.269  -3.996  1.00  0.00     0.011 C 
ENDBRANCH  16  17
ENDBRANCH  15  16
ENDBRANCH  11  15
ENDBRANCH   7   8
ENDBRANCH   1   7
BRANCH   3  20
HETATM   20  C   UNL     1      43.924 -18.393   4.132  1.00  0.00     0.090 C 
HETATM   21  C   UNL     1      44.588 -19.699   4.653  1.00  0.00     0.067 C 
HETATM   22  C   UNL     1      44.505 -20.808   3.669  1.00  0.00    -0.013 A 
HETATM   23  C   UNL     1      44.027 -20.663   2.389  1.00  0.00     0.035 A 
HETATM   24  C   UNL     1      44.860 -22.166   3.760  1.00  0.00     0.148 A 
HETATM   25  N   UNL     1      44.127 -21.885   1.793  1.00  0.00    -0.282 N 
HETATM   26  C   UNL     1      43.480 -19.431   1.776  1.00  0.00     0.061 C 
HETATM   27  H   UNL     1      43.879 -22.156   0.846  1.00  0.00     0.189 HD
HETATM   28  N   UNL     1      44.612 -22.826   2.624  1.00  0.00    -0.187 NA
HETATM   29  C   UNL     1      43.938 -18.212   2.593  1.00  0.00     0.031 C 
ENDBRANCH   3  20
TORSDOF 6
ENDMDL
MODEL 2
REMARK VINA RESULT:      -8.1      7.099     10.334
REMARK  6 active torsions:
REMARK  status: ('A' for Active; 'I' for Inactive)
REMARK    1  A    between atoms: C_2  and  C_3 
REMARK    2  A    between atoms: C_3  and  O_4 
REMARK    3  A    between atoms: O_4  and  C_5 
REMARK    4  A    between atoms: C_8  and  C_9 
REMARK    5  A    between atoms: C_9  and  N_10 
REMARK       I    between atoms: N_10  and  C_11 
REMARK       I    between atoms: C_11  and  N_12 
REMARK    6  A    between atoms: N_12  and  C_13 
ROOT
HETATM    1  N   UNL     1      44.762 -12.720   8.565  1.00  0.00    -0.339 N 
HETATM    2  C   UNL     1      45.177 -11.572   9.143  1.00  0.00     0.316 C 
HETATM    3  N   UNL     1      44.398 -11.020  10.096  1.00  0.00    -0.338 N 
HETATM    4  O   UNL     1      46.226 -11.008   8.844  1.00  0.00    -0.247 OA
HETATM    5  H   UNL     1      43.792 -12.964   8.661  1.00  0.00     0.164 HD
HETATM    6  H   UNL     1      44.850 -10.190  10.461  1.00  0.00     0.164 HD
ENDROOT
BRANCH   1   7
HETATM    7  C   UNL     1      45.458 -13.288   7.435  1.00  0.00     0.164 C 
BRANCH   7   8
HETATM    8  C   UNL     1      44.608 -14.240   6.644  1.00  0.00    -0.021 A 
HETATM    9  C   UNL     1      43.873 -13.800   5.546  1.00  0.00     0.128 A 
HETATM   10  N   UNL     1      43.049 -14.586   4.814  1.00  0.00    -0.235 NA
HETATM   11  C   UNL     1      42.957 -15.888   5.177  1.00  0.00     0.186 A 
HETATM   12  C   UNL     1      43.677 -16.434   6.239  1.00  0.00     0.087 A 
HETATM   13  C   UNL     1      44.514 -15.596   6.977  1.00  0.00     0.038 A 
HETATM   14 CL   UNL     1      43.558 -18.095   6.681  1.00  0.00    -0.080 Cl
BRANCH  11  15
HETATM   15  O   UNL     1      42.102 -16.715   4.474  1.00  0.00    -0.333 OA
BRANCH  15  16
HETATM   16  C   UNL     1      42.367 -16.753   3.069  1.00  0.00     0.181 C 
BRANCH  16  17
HETATM   17  C   UNL     1      43.625 -17.602   2.821  1.00  0.00     0.002 C 
HETATM   18  C   UNL     1      44.098 -17.445   1.377  1.00  0.00     0.011 C 
HETATM   19  C   UNL     1      43.369 -19.077   3.137  1.00  0.00     0.011 C 
ENDBRANCH  16  17
ENDBRANCH  15  16
ENDBRANCH  11  15
ENDBRANCH   7   8
ENDBRANCH   1   7
BRANCH   3  20
HETATM   20  C   UNL     1      43.117 -11.368  10.726  1.00  0.00     0.090 C 
HETATM   21  C   UNL     1      43.177 -11.540  12.270  1.00  0.00     0.067 C 
HETATM   22  C   UNL     1      42.565 -10.396  12.993  1.00  0.00    -0.013 A 
HETATM   23  C   UNL     1      41.891  -9.371  12.373  1.00  0.00     0.035 A 
HETATM   24  C   UNL     1      42.502 -10.081  14.362  1.00  0.00     0.148 A 
HETATM   25  N   UNL     1      41.464  -8.532  13.359  1.00  0.00    -0.282 N 
HETATM   26  C   UNL     1      41.691  -9.188  10.918  1.00  0.00     0.061 C 
HETATM   27  H   UNL     1      40.925  -7.675  13.279  1.00  0.00     0.189 HD
HETATM   28  N   UNL     1      41.849  -8.936  14.583  1.00  0.00    -0.187 NA
HETATM   29  C   UNL     1      41.926 -10.526  10.201  1.00  0.00     0.031 C 
ENDBRANCH   3  20
TORSDOF 6
ENDMDL
MODEL 3
REMARK VINA RESULT:      -7.8      4.588      7.514
REMARK  6 active torsions:
REMARK  status: ('A' for Active; 'I' for Inactive)
REMARK    1  A    between atoms: C_2  and  C_3 
REMARK    2  A    between atoms: C_3  and  O_4 
REMARK    3  A    between atoms: O_4  and  C_5 
REMARK    4  A    between atoms: C_8  and  C_9 
REMARK    5  A    between atoms: C_9  and  N_10 
REMARK       I    between atoms: N_10  and  C_11 
REMARK       I    between atoms: C_11  and  N_12 
REMARK    6  A    between atoms: N_12  and  C_13 
ROOT
HETATM    1  N   UNL     1      42.479 -15.668   4.569  1.00  0.00    -0.339 N 
HETATM    2  C   UNL     1      41.900 -16.835   4.928  1.00  0.00     0.316 C 
HETATM    3  N   UNL     1      42.586 -17.977   4.723  1.00  0.00    -0.338 N 
HETATM    4  O   UNL     1      40.782 -16.904   5.432  1.00  0.00    -0.247 OA
HETATM    5  H   UNL     1      43.252 -15.712   3.930  1.00  0.00     0.164 HD
HETATM    6  H   UNL     1      42.046 -18.761   5.071  1.00  0.00     0.164 HD
ENDROOT
BRANCH   1   7
HETATM    7  C   UNL     1      41.751 -14.422   4.614  1.00  0.00     0.164 C 
BRANCH   7   8
HETATM    8  C   UNL     1      42.226 -13.509   5.708  1.00  0.00    -0.021 A 
HETATM    9  C   UNL     1      41.450 -12.432   6.126  1.00  0.00     0.128 A 
HETATM   10  N   UNL     1      41.830 -11.539   7.072  1.00  0.00    -0.235 NA
HETATM   11  C   UNL     1      43.040 -11.731   7.648  1.00  0.00     0.186 A 
HETATM   12  C   UNL     1      43.877 -12.797   7.324  1.00  0.00     0.087 A 
HETATM   13  C   UNL     1      43.459 -13.697   6.342  1.00  0.00     0.038 A 
HETATM   14 CL   UNL     1      45.410 -13.035   8.075  1.00  0.00    -0.080 Cl
BRANCH  11  15
HETATM   15  O   UNL     1      43.476 -10.823   8.595  1.00  0.00    -0.333 OA
BRANCH  15  16
HETATM   16  C   UNL     1      42.742 -10.874   9.821  1.00  0.00     0.181 C 
BRANCH  16  17
HETATM   17  C   UNL     1      43.619 -11.531  10.900  1.00  0.00     0.002 C 
HETATM   18  C   UNL     1      42.983 -11.362  12.279  1.00  0.00     0.011 C 
HETATM   19  C   UNL     1      45.034 -10.947  10.895  1.00  0.00     0.011 C 
ENDBRANCH  16  17
ENDBRANCH  15  16
ENDBRANCH  11  15
ENDBRANCH   7   8
ENDBRANCH   1   7
BRANCH   3  20
HETATM   20  C   UNL     1      43.905 -18.317   4.171  1.00  0.00     0.090 C 
HETATM   21  C   UNL     1      44.567 -19.576   4.798  1.00  0.00     0.067 C 
HETATM   22  C   UNL     1      44.524 -20.751   3.890  1.00  0.00    -0.013 A 
HETATM   23  C   UNL     1      44.082 -20.698   2.590  1.00  0.00     0.035 A 
HETATM   24  C   UNL     1      44.890 -22.094   4.083  1.00  0.00     0.148 A 
HETATM   25  N   UNL     1      44.211 -21.957   2.082  1.00  0.00    -0.282 N 
HETATM   26  C   UNL     1      43.540 -19.517   1.880  1.00  0.00     0.061 C 
HETATM   27  H   UNL     1      43.993 -22.294   1.150  1.00  0.00     0.189 HD
HETATM   28  N   UNL     1      44.681 -22.833   2.988  1.00  0.00    -0.187 NA
HETATM   29  C   UNL     1      43.962 -18.240   2.624  1.00  0.00     0.031 C 
ENDBRANCH   3  20
TORSDOF 6
ENDMDL
MODEL 4
REMARK VINA RESULT:      -7.5      2.641      7.901
REMARK  6 active torsions:
REMARK  status: ('A' for Active; 'I' for Inactive)
REMARK    1  A    between atoms: C_2  and  C_3 
REMARK    2  A    between atoms: C_3  and  O_4 
REMARK    3  A    between atoms: O_4  and  C_5 
REMARK    4  A    between atoms: C_8  and  C_9 
REMARK    5  A    between atoms: C_9  and  N_10 
REMARK       I    between atoms: N_10  and  C_11 
REMARK       I    between atoms: C_11  and  N_12 
REMARK    6  A    between atoms: N_12  and  C_13 
ROOT
HETATM    1  N   UNL     1      39.885 -13.905   0.262  1.00  0.00    -0.339 N 
HETATM    2  C   UNL     1      38.571 -14.203   0.165  1.00  0.00     0.316 C 
HETATM    3  N   UNL     1      37.997 -14.173  -1.055  1.00  0.00    -0.338 N 
HETATM    4  O   UNL     1      37.875 -14.499   1.133  1.00  0.00    -0.247 OA
HETATM    5  H   UNL     1      40.307 -13.419  -0.509  1.00  0.00     0.164 HD
HETATM    6  H   UNL     1      37.026 -14.450  -0.977  1.00  0.00     0.164 HD
ENDROOT
BRANCH   1   7
HETATM    7  C   UNL     1      40.533 -13.766   1.544  1.00  0.00     0.164 C 
BRANCH   7   8
HETATM    8  C   UNL     1      41.206 -15.030   1.998  1.00  0.00    -0.021 A 
HETATM    9  C   UNL     1      42.201 -15.625   1.227  1.00  0.00     0.128 A 
HETATM   10  N   UNL     1      42.819 -16.787   1.545  1.00  0.00    -0.235 NA
HETATM   11  C   UNL     1      42.445 -17.387   2.701  1.00  0.00     0.186 A 
HETATM   12  C   UNL     1      41.485 -16.854   3.558  1.00  0.00     0.087 A 
HETATM   13  C   UNL     1      40.861 -15.658   3.199  1.00  0.00     0.038 A 
HETATM   14 CL   UNL     1      41.028 -17.624   5.031  1.00  0.00    -0.080 Cl
BRANCH  11  15
HETATM   15  O   UNL     1      43.032 -18.591   3.044  1.00  0.00    -0.333 OA
BRANCH  15  16
HETATM   16  C   UNL     1      43.267 -19.453   1.928  1.00  0.00     0.181 C 
BRANCH  16  17
HETATM   17  C   UNL     1      44.360 -20.468   2.303  1.00  0.00     0.002 C 
HETATM   18  C   UNL     1      43.966 -21.871   1.845  1.00  0.00     0.011 C 
HETATM   19  C   UNL     1      44.631 -20.459   3.809  1.00  0.00     0.011 C 
ENDBRANCH  16  17
ENDBRANCH  15  16
ENDBRANCH  11  15
ENDBRANCH   7   8
ENDBRANCH   1   7
BRANCH   3  20
HETATM   20  C   UNL     1      38.463 -13.883  -2.419  1.00  0.00     0.090 C 
HETATM   21  C   UNL     1      39.258 -12.556  -2.565  1.00  0.00     0.067 C 
HETATM   22  C   UNL     1      40.716 -12.784  -2.735  1.00  0.00    -0.013 A 
HETATM   23  C   UNL     1      41.284 -14.026  -2.890  1.00  0.00     0.035 A 
HETATM   24  C   UNL     1      41.802 -11.892  -2.785  1.00  0.00     0.148 A 
HETATM   25  N   UNL     1      42.625 -13.827  -3.034  1.00  0.00    -0.282 N 
HETATM   26  C   UNL     1      40.588 -15.332  -2.875  1.00  0.00     0.061 C 
HETATM   27  H   UNL     1      43.359 -14.513  -3.180  1.00  0.00     0.189 HD
HETATM   28  N   UNL     1      42.966 -12.528  -2.948  1.00  0.00    -0.187 NA
HETATM   29  C   UNL     1      39.088 -15.111  -3.129  1.00  0.00     0.031 C 
ENDBRANCH   3  20
TORSDOF 6
ENDMDL
MODEL 5
REMARK VINA RESULT:      -7.4      6.106      9.752
REMARK  6 active torsions:
REMARK  status: ('A' for Active; 'I' for Inactive)
REMARK    1  A    between atoms: C_2  and  C_3 
REMARK    2  A    between atoms: C_3  and  O_4 
REMARK    3  A    between atoms: O_4  and  C_5 
REMARK    4  A    between atoms: C_8  and  C_9 
REMARK    5  A    between atoms: C_9  and  N_10 
REMARK       I    between atoms: N_10  and  C_11 
REMARK       I    between atoms: C_11  and  N_12 
REMARK    6  A    between atoms: N_12  and  C_13 
ROOT
HETATM    1  N   UNL     1      44.267 -12.347   8.589  1.00  0.00    -0.339 N 
HETATM    2  C   UNL     1      44.116 -12.325   9.931  1.00  0.00     0.316 C 
HETATM    3  N   UNL     1      43.450 -11.289  10.481  1.00  0.00    -0.338 N 
HETATM    4  O   UNL     1      44.554 -13.200  10.673  1.00  0.00    -0.247 OA
HETATM    5  H   UNL     1      44.129 -11.485   8.093  1.00  0.00     0.164 HD
HETATM    6  H   UNL     1      43.386 -11.425  11.483  1.00  0.00     0.164 HD
ENDROOT
BRANCH   1   7
HETATM    7  C   UNL     1      45.096 -13.336   7.941  1.00  0.00     0.164 C 
BRANCH   7   8
HETATM    8  C   UNL     1      44.319 -14.235   7.021  1.00  0.00    -0.021 A 
HETATM    9  C   UNL     1      43.786 -13.749   5.830  1.00  0.00     0.128 A 
HETATM   10  N   UNL     1      43.037 -14.484   4.974  1.00  0.00    -0.235 NA
HETATM   11  C   UNL     1      42.815 -15.778   5.306  1.00  0.00     0.186 A 
HETATM   12  C   UNL     1      43.333 -16.368   6.457  1.00  0.00     0.087 A 
HETATM   13  C   UNL     1      44.097 -15.583   7.322  1.00  0.00     0.038 A 
HETATM   14 CL   UNL     1      43.051 -18.020   6.859  1.00  0.00    -0.080 Cl
BRANCH  11  15
HETATM   15  O   UNL     1      42.029 -16.551   4.473  1.00  0.00    -0.333 OA
BRANCH  15  16
HETATM   16  C   UNL     1      42.438 -16.519   3.103  1.00  0.00     0.181 C 
BRANCH  16  17
HETATM   17  C   UNL     1      43.641 -17.459   2.920  1.00  0.00     0.002 C 
HETATM   18  C   UNL     1      44.184 -17.359   1.495  1.00  0.00     0.011 C 
HETATM   19  C   UNL     1      43.267 -18.908   3.243  1.00  0.00     0.011 C 
ENDBRANCH  16  17
ENDBRANCH  15  16
ENDBRANCH  11  15
ENDBRANCH   7   8
ENDBRANCH   1   7
BRANCH   3  20
HETATM   20  C   UNL     1      42.789 -10.083   9.965  1.00  0.00     0.090 C 
HETATM   21  C   UNL     1      41.815 -10.332   8.779  1.00  0.00     0.067 C 
HETATM   22  C   UNL     1      40.390 -10.242   9.186  1.00  0.00    -0.013 A 
HETATM   23  C   UNL     1      39.973  -9.840  10.432  1.00  0.00     0.035 A 
HETATM   24  C   UNL     1      39.200 -10.504   8.484  1.00  0.00     0.148 A 
HETATM   25  N   UNL     1      38.611  -9.867  10.416  1.00  0.00    -0.282 N 
HETATM   26  C   UNL     1      40.830  -9.478  11.584  1.00  0.00     0.061 C 
HETATM   27  H   UNL     1      37.959  -9.624  11.156  1.00  0.00     0.189 HD
HETATM   28  N   UNL     1      38.117 -10.295   9.240  1.00  0.00    -0.187 NA
HETATM   29  C   UNL     1      42.246  -9.154  11.081  1.00  0.00     0.031 C 
ENDBRANCH   3  20
TORSDOF 6
ENDMDL
MODEL 6
REMARK VINA RESULT:      -7.4      2.599      3.036
REMARK  6 active torsions:
REMARK  status: ('A' for Active; 'I' for Inactive)
REMARK    1  A    between atoms: C_2  and  C_3 
REMARK    2  A    between atoms: C_3  and  O_4 
REMARK    3  A    between atoms: O_4  and  C_5 
REMARK    4  A    between atoms: C_8  and  C_9 
REMARK    5  A    between atoms: C_9  and  N_10 
REMARK       I    between atoms: N_10  and  C_11 
REMARK       I    between atoms: C_11  and  N_12 
REMARK    6  A    between atoms: N_12  and  C_13 
ROOT
HETATM    1  N   UNL     1      42.750 -15.483   4.624  1.00  0.00    -0.339 N 
HETATM    2  C   UNL     1      42.064 -16.621   4.867  1.00  0.00     0.316 C 
HETATM    3  N   UNL     1      42.663 -17.798   4.594  1.00  0.00    -0.338 N 
HETATM    4  O   UNL     1      40.924 -16.635   5.324  1.00  0.00    -0.247 OA
HETATM    5  H   UNL     1      43.543 -15.542   4.011  1.00  0.00     0.164 HD
HETATM    6  H   UNL     1      42.047 -18.558   4.858  1.00  0.00     0.164 HD
ENDROOT
BRANCH   1   7
HETATM    7  C   UNL     1      42.125 -14.187   4.745  1.00  0.00     0.164 C 
BRANCH   7   8
HETATM    8  C   UNL     1      41.858 -13.542   3.415  1.00  0.00    -0.021 A 
HETATM    9  C   UNL     1      41.527 -12.193   3.329  1.00  0.00     0.128 A 
HETATM   10  N   UNL     1      41.228 -11.553   2.173  1.00  0.00    -0.235 NA
HETATM   11  C   UNL     1      41.275 -12.285   1.034  1.00  0.00     0.186 A 
HETATM   12  C   UNL     1      41.629 -13.632   1.010  1.00  0.00     0.087 A 
HETATM   13  C   UNL     1      41.926 -14.264   2.219  1.00  0.00     0.038 A 
HETATM   14 CL   UNL     1      41.695 -14.547  -0.449  1.00  0.00    -0.080 Cl
BRANCH  11  15
HETATM   15  O   UNL     1      40.945 -11.674  -0.161  1.00  0.00    -0.333 OA
BRANCH  15  16
HETATM   16  C   UNL     1      41.682 -10.476  -0.417  1.00  0.00     0.181 C 
BRANCH  16  17
HETATM   17  C   UNL     1      42.973 -10.836  -1.171  1.00  0.00     0.002 C 
HETATM   18  C   UNL     1      43.932  -9.646  -1.184  1.00  0.00     0.011 C 
HETATM   19  C   UNL     1      42.671 -11.288  -2.602  1.00  0.00     0.011 C 
ENDBRANCH  16  17
ENDBRANCH  15  16
ENDBRANCH  11  15
ENDBRANCH   7   8
ENDBRANCH   1   7
BRANCH   3  20
HETATM   20  C   UNL     1      43.972 -18.203   4.063  1.00  0.00     0.090 C 
HETATM   21  C   UNL     1      44.622 -19.413   4.791  1.00  0.00     0.067 C 
HETATM   22  C   UNL     1      44.554 -20.661   3.988  1.00  0.00    -0.013 A 
HETATM   23  C   UNL     1      44.101 -20.714   2.692  1.00  0.00     0.035 A 
HETATM   24  C   UNL     1      44.904 -21.988   4.294  1.00  0.00     0.148 A 
HETATM   25  N   UNL     1      44.208 -22.013   2.294  1.00  0.00    -0.282 N 
HETATM   26  C   UNL     1      43.569 -19.591   1.888  1.00  0.00     0.061 C 
HETATM   27  H   UNL     1      43.977 -22.426   1.396  1.00  0.00     0.189 HD
HETATM   28  N   UNL     1      44.674 -22.815   3.269  1.00  0.00    -0.187 NA
HETATM   29  C   UNL     1      44.015 -18.261   2.515  1.00  0.00     0.031 C 
ENDBRANCH   3  20
TORSDOF 6
ENDMDL
MODEL 7
REMARK VINA RESULT:      -7.4      1.699      1.918
REMARK  6 active torsions:
REMARK  status: ('A' for Active; 'I' for Inactive)
REMARK    1  A    between atoms: C_2  and  C_3 
REMARK    2  A    between atoms: C_3  and  O_4 
REMARK    3  A    between atoms: O_4  and  C_5 
REMARK    4  A    between atoms: C_8  and  C_9 
REMARK    5  A    between atoms: C_9  and  N_10 
REMARK       I    between atoms: N_10  and  C_11 
REMARK       I    between atoms: C_11  and  N_12 
REMARK    6  A    between atoms: N_12  and  C_13 
ROOT
HETATM    1  N   UNL     1      42.554 -15.566   3.231  1.00  0.00    -0.339 N 
HETATM    2  C   UNL     1      41.941 -16.579   3.880  1.00  0.00     0.316 C 
HETATM    3  N   UNL     1      42.622 -17.731   4.053  1.00  0.00    -0.338 N 
HETATM    4  O   UNL     1      40.797 -16.503   4.320  1.00  0.00    -0.247 OA
HETATM    5  H   UNL     1      43.360 -15.791   2.676  1.00  0.00     0.164 HD
HETATM    6  H   UNL     1      42.053 -18.381   4.582  1.00  0.00     0.164 HD
ENDROOT
BRANCH   1   7
HETATM    7  C   UNL     1      41.842 -14.361   2.873  1.00  0.00     0.164 C 
BRANCH   7   8
HETATM    8  C   UNL     1      41.597 -14.247   1.396  1.00  0.00    -0.021 A 
HETATM    9  C   UNL     1      40.910 -15.242   0.707  1.00  0.00     0.128 A 
HETATM   10  N   UNL     1      40.691 -15.232  -0.630  1.00  0.00    -0.235 NA
HETATM   11  C   UNL     1      41.163 -14.169  -1.323  1.00  0.00     0.186 A 
HETATM   12  C   UNL     1      41.833 -13.106  -0.721  1.00  0.00     0.087 A 
HETATM   13  C   UNL     1      42.048 -13.148   0.657  1.00  0.00     0.038 A 
HETATM   14 CL   UNL     1      42.419 -11.754  -1.616  1.00  0.00    -0.080 Cl
BRANCH  11  15
HETATM   15  O   UNL     1      40.987 -14.139  -2.694  1.00  0.00    -0.333 OA
BRANCH  15  16
HETATM   16  C   UNL     1      39.783 -13.485  -3.103  1.00  0.00     0.181 C 
BRANCH  16  17
HETATM   17  C   UNL     1      38.835 -14.527  -3.720  1.00  0.00     0.002 C 
HETATM   18  C   UNL     1      37.614 -14.734  -2.825  1.00  0.00     0.011 C 
HETATM   19  C   UNL     1      39.551 -15.859  -3.954  1.00  0.00     0.011 C 
ENDBRANCH  16  17
ENDBRANCH  15  16
ENDBRANCH  11  15
ENDBRANCH   7   8
ENDBRANCH   1   7
BRANCH   3  20
HETATM   20  C   UNL     1      43.964 -18.212   3.696  1.00  0.00     0.090 C 
HETATM   21  C   UNL     1      44.606 -19.174   4.735  1.00  0.00     0.067 C 
HETATM   22  C   UNL     1      44.605 -20.587   4.276  1.00  0.00    -0.013 A 
HETATM   23  C   UNL     1      44.216 -20.984   3.020  1.00  0.00     0.035 A 
HETATM   24  C   UNL     1      44.971 -21.779   4.924  1.00  0.00     0.148 A 
HETATM   25  N   UNL     1      44.371 -22.337   2.971  1.00  0.00    -0.282 N 
HETATM   26  C   UNL     1      43.697 -20.122   1.933  1.00  0.00     0.061 C 
HETATM   27  H   UNL     1      44.193 -22.973   2.200  1.00  0.00     0.189 HD
HETATM   28  N   UNL     1      44.809 -22.848   4.137  1.00  0.00    -0.187 NA
HETATM   29  C   UNL     1      44.082 -18.661   2.217  1.00  0.00     0.031 C 
ENDBRANCH   3  20
TORSDOF 6
ENDMDL
MODEL 8
REMARK VINA RESULT:      -7.3      2.749      8.052
REMARK  6 active torsions:
REMARK  status: ('A' for Active; 'I' for Inactive)
REMARK    1  A    between atoms: C_2  and  C_3 
REMARK    2  A    between atoms: C_3  and  O_4 
REMARK    3  A    between atoms: O_4  and  C_5 
REMARK    4  A    between atoms: C_8  and  C_9 
REMARK    5  A    between atoms: C_9  and  N_10 
REMARK       I    between atoms: N_10  and  C_11 
REMARK       I    between atoms: C_11  and  N_12 
REMARK    6  A    between atoms: N_12  and  C_13 
ROOT
HETATM    1  N   UNL     1      40.422 -14.188  -0.370  1.00  0.00    -0.339 N 
HETATM    2  C   UNL     1      41.537 -13.430  -0.286  1.00  0.00     0.316 C 
HETATM    3  N   UNL     1      42.162 -13.084  -1.430  1.00  0.00    -0.338 N 
HETATM    4  O   UNL     1      42.008 -13.041   0.780  1.00  0.00    -0.247 OA
HETATM    5  H   UNL     1      40.262 -14.682  -1.230  1.00  0.00     0.164 HD
HETATM    6  H   UNL     1      42.955 -12.492  -1.214  1.00  0.00     0.164 HD
ENDROOT
BRANCH   1   7
HETATM    7  C   UNL     1      39.786 -14.725   0.810  1.00  0.00     0.164 C 
BRANCH   7   8
HETATM    8  C   UNL     1      40.593 -15.810   1.464  1.00  0.00    -0.021 A 
HETATM    9  C   UNL     1      41.173 -16.825   0.707  1.00  0.00     0.128 A 
HETATM   10  N   UNL     1      41.873 -17.861   1.228  1.00  0.00    -0.235 NA
HETATM   11  C   UNL     1      42.023 -17.887   2.573  1.00  0.00     0.186 A 
HETATM   12  C   UNL     1      41.511 -16.901   3.415  1.00  0.00     0.087 A 
HETATM   13  C   UNL     1      40.790 -15.850   2.848  1.00  0.00     0.038 A 
HETATM   14 CL   UNL     1      41.721 -16.943   5.126  1.00  0.00    -0.080 Cl
BRANCH  11  15
HETATM   15  O   UNL     1      42.704 -18.945   3.145  1.00  0.00    -0.333 OA
BRANCH  15  16
HETATM   16  C   UNL     1      44.122 -18.875   2.972  1.00  0.00     0.181 C 
BRANCH  16  17
HETATM   17  C   UNL     1      44.677 -20.302   2.823  1.00  0.00     0.002 C 
HETATM   18  C   UNL     1      43.763 -21.138   1.929  1.00  0.00     0.011 C 
HETATM   19  C   UNL     1      44.846 -20.976   4.186  1.00  0.00     0.011 C 
ENDBRANCH  16  17
ENDBRANCH  15  16
ENDBRANCH  11  15
ENDBRANCH   7   8
ENDBRANCH   1   7
BRANCH   3  20
HETATM   20  C   UNL     1      41.929 -13.331  -2.860  1.00  0.00     0.090 C 
HETATM   21  C   UNL     1      41.548 -14.796  -3.213  1.00  0.00     0.067 C 
HETATM   22  C   UNL     1      40.108 -14.943  -3.543  1.00  0.00    -0.013 A 
HETATM   23  C   UNL     1      39.238 -13.886  -3.666  1.00  0.00     0.035 A 
HETATM   24  C   UNL     1      39.320 -16.079  -3.802  1.00  0.00     0.148 A 
HETATM   25  N   UNL     1      38.024 -14.414  -3.991  1.00  0.00    -0.282 N 
HETATM   26  C   UNL     1      39.543 -12.453  -3.456  1.00  0.00     0.061 C 
HETATM   27  H   UNL     1      37.147 -13.935  -4.171  1.00  0.00     0.189 HD
HETATM   28  N   UNL     1      38.047 -15.758  -4.056  1.00  0.00    -0.187 NA
HETATM   29  C   UNL     1      41.062 -12.239  -3.538  1.00  0.00     0.031 C 
ENDBRANCH   3  20
TORSDOF 6
ENDMDL
MODEL 9
REMARK VINA RESULT:      -7.3      3.825      4.732
REMARK  6 active torsions:
REMARK  status: ('A' for Active; 'I' for Inactive)
REMARK    1  A    between atoms: C_2  and  C_3 
REMARK    2  A    between atoms: C_3  and  O_4 
REMARK    3  A    between atoms: O_4  and  C_5 
REMARK    4  A    between atoms: C_8  and  C_9 
REMARK    5  A    between atoms: C_9  and  N_10 
REMARK       I    between atoms: N_10  and  C_11 
REMARK       I    between atoms: C_11  and  N_12 
REMARK    6  A    between atoms: N_12  and  C_13 
ROOT
HETATM    1  N   UNL     1      41.682 -15.774   0.851  1.00  0.00    -0.339 N 
HETATM    2  C   UNL     1      41.082 -16.501   1.818  1.00  0.00     0.316 C 
HETATM    3  N   UNL     1      41.863 -17.181   2.682  1.00  0.00    -0.338 N 
HETATM    4  O   UNL     1      39.863 -16.573   1.948  1.00  0.00    -0.247 OA
HETATM    5  H   UNL     1      42.643 -15.981   0.644  1.00  0.00     0.164 HD
HETATM    6  H   UNL     1      41.279 -17.648   3.366  1.00  0.00     0.164 HD
ENDROOT
BRANCH   1   7
HETATM    7  C   UNL     1      40.919 -15.145  -0.201  1.00  0.00     0.164 C 
BRANCH   7   8
HETATM    8  C   UNL     1      41.557 -13.883  -0.709  1.00  0.00    -0.021 A 
HETATM    9  C   UNL     1      42.100 -12.952   0.172  1.00  0.00     0.128 A 
HETATM   10  N   UNL     1      42.648 -11.773  -0.207  1.00  0.00    -0.235 NA
HETATM   11  C   UNL     1      42.676 -11.505  -1.534  1.00  0.00     0.186 A 
HETATM   12  C   UNL     1      42.190 -12.386  -2.498  1.00  0.00     0.087 A 
HETATM   13  C   UNL     1      41.626 -13.591  -2.076  1.00  0.00     0.038 A 
HETATM   14 CL   UNL     1      42.243 -12.036  -4.185  1.00  0.00    -0.080 Cl
BRANCH  11  15
HETATM   15  O   UNL     1      43.199 -10.298  -1.957  1.00  0.00    -0.333 OA
BRANCH  15  16
HETATM   16  C   UNL     1      43.960  -9.619  -0.954  1.00  0.00     0.181 C 
BRANCH  16  17
HETATM   17  C   UNL     1      44.036  -8.126  -1.311  1.00  0.00     0.002 C 
HETATM   18  C   UNL     1      44.226  -7.285  -0.050  1.00  0.00     0.011 C 
HETATM   19  C   UNL     1      42.784  -7.672  -2.066  1.00  0.00     0.011 C 
ENDBRANCH  16  17
ENDBRANCH  15  16
ENDBRANCH  11  15
ENDBRANCH   7   8
ENDBRANCH   1   7
BRANCH   3  20
HETATM   20  C   UNL     1      43.311 -17.351   2.867  1.00  0.00     0.090 C 
HETATM   21  C   UNL     1      43.741 -17.732   4.312  1.00  0.00     0.067 C 
HETATM   22  C   UNL     1      44.140 -19.157   4.428  1.00  0.00    -0.013 A 
HETATM   23  C   UNL     1      44.258 -20.010   3.357  1.00  0.00     0.035 A 
HETATM   24  C   UNL     1      44.480 -19.944   5.542  1.00  0.00     0.148 A 
HETATM   25  N   UNL     1      44.659 -21.213   3.856  1.00  0.00    -0.282 N 
HETATM   26  C   UNL     1      43.976 -19.699   1.936  1.00  0.00     0.061 C 
HETATM   27  H   UNL     1      44.857 -22.076   3.359  1.00  0.00     0.189 HD
HETATM   28  N   UNL     1      44.777 -21.201   5.196  1.00  0.00    -0.187 NA
HETATM   29  C   UNL     1      43.982 -18.176   1.739  1.00  0.00     0.031 C 
ENDBRANCH   3  20
TORSDOF 6
ENDMDL
MODEL 10
REMARK VINA RESULT:      -7.1      2.569      4.701
REMARK  6 active torsions:
REMARK  status: ('A' for Active; 'I' for Inactive)
REMARK    1  A    between atoms: C_2  and  C_3 
REMARK    2  A    between atoms: C_3  and  O_4 
REMARK    3  A    between atoms: O_4  and  C_5 
REMARK    4  A    between atoms: C_8  and  C_9 
REMARK    5  A    between atoms: C_9  and  N_10 
REMARK       I    between atoms: N_10  and  C_11 
REMARK       I    between atoms: C_11  and  N_12 
REMARK    6  A    between atoms: N_12  and  C_13 
ROOT
HETATM    1  N   UNL     1      42.457 -17.707   3.711  1.00  0.00    -0.339 N 
HETATM    2  C   UNL     1      43.628 -18.153   4.216  1.00  0.00     0.316 C 
HETATM    3  N   UNL     1      44.073 -17.612   5.368  1.00  0.00    -0.338 N 
HETATM    4  O   UNL     1      44.304 -19.026   3.679  1.00  0.00    -0.247 OA
HETATM    5  H   UNL     1      42.112 -16.827   4.049  1.00  0.00     0.164 HD
HETATM    6  H   UNL     1      44.937 -18.065   5.641  1.00  0.00     0.164 HD
ENDROOT
BRANCH   1   7
HETATM    7  C   UNL     1      41.991 -18.125   2.410  1.00  0.00     0.164 C 
BRANCH   7   8
HETATM    8  C   UNL     1      41.460 -16.985   1.588  1.00  0.00    -0.021 A 
HETATM    9  C   UNL     1      42.072 -16.623   0.391  1.00  0.00     0.128 A 
HETATM   10  N   UNL     1      41.681 -15.580  -0.380  1.00  0.00    -0.235 NA
HETATM   11  C   UNL     1      40.614 -14.864   0.048  1.00  0.00     0.186 A 
HETATM   12  C   UNL     1      39.912 -15.167   1.213  1.00  0.00     0.087 A 
HETATM   13  C   UNL     1      40.343 -16.244   1.989  1.00  0.00     0.038 A 
HETATM   14 CL   UNL     1      38.548 -14.253   1.738  1.00  0.00    -0.080 Cl
BRANCH  11  15
HETATM   15  O   UNL     1      40.205 -13.773  -0.696  1.00  0.00    -0.333 OA
BRANCH  15  16
HETATM   16  C   UNL     1      41.282 -13.058  -1.306  1.00  0.00     0.181 C 
BRANCH  16  17
HETATM   17  C   UNL     1      40.911 -12.743  -2.764  1.00  0.00     0.002 C 
HETATM   18  C   UNL     1      40.725 -14.036  -3.557  1.00  0.00     0.011 C 
HETATM   19  C   UNL     1      41.971 -11.863  -3.429  1.00  0.00     0.011 C 
ENDBRANCH  16  17
ENDBRANCH  15  16
ENDBRANCH  11  15
ENDBRANCH   7   8
ENDBRANCH   1   7
BRANCH   3  20
HETATM   20  C   UNL     1      43.580 -16.585   6.297  1.00  0.00     0.090 C 
HETATM   21  C   UNL     1      43.339 -15.190   5.655  1.00  0.00     0.067 C 
HETATM   22  C   UNL     1      41.896 -14.893   5.467  1.00  0.00    -0.013 A 
HETATM   23  C   UNL     1      40.882 -15.692   5.938  1.00  0.00     0.035 A 
HETATM   24  C   UNL     1      41.237 -13.825   4.833  1.00  0.00     0.148 A 
HETATM   25  N   UNL     1      39.713 -15.085   5.590  1.00  0.00    -0.282 N 
HETATM   26  C   UNL     1      41.023 -16.979   6.656  1.00  0.00     0.061 C 
HETATM   27  H   UNL     1      38.760 -15.380   5.779  1.00  0.00     0.189 HD
HETATM   28  N   UNL     1      39.907 -13.952   4.891  1.00  0.00    -0.187 NA
HETATM   29  C   UNL     1      42.446 -17.090   7.225  1.00  0.00     0.031 C 
ENDBRANCH   3  20
TORSDOF 6
ENDMDL
