MODEL 1
REMARK VINA RESULT:      -9.6      0.000      0.000
REMARK  8 active torsions:
REMARK  status: ('A' for Active; 'I' for Inactive)
REMARK    1  A    between atoms: O_2  and  C_3 
REMARK    2  A    between atoms: C_4  and  O_5 
REMARK    3  A    between atoms: C_8  and  C_9 
REMARK    4  A    between atoms: C_9  and  C_10 
REMARK    5  A    between atoms: C_10  and  C_11 
REMARK    6  A    between atoms: C_13  and  N_14 
REMARK       I    between atoms: N_14  and  C_15 
REMARK    7  A    between atoms: C_15  and  C_16 
REMARK    8  A    between atoms: C_20  and  C_21 
ROOT
HETATM    1  C   UNL     1      45.475 -12.266   9.008  1.00  0.00     0.140 A 
HETATM    2  N   UNL     1      44.754 -13.258   8.529  1.00  0.00    -0.046 NA
HETATM    3  C   UNL     1      45.371 -13.569   7.344  1.00  0.00     0.747 A 
HETATM    4  N   UNL     1      46.450 -12.833   7.084  1.00  0.00     0.020 NA
HETATM    5  N   UNL     1      46.500 -12.018   8.141  1.00  0.00    -0.248 N 
HETATM    6  H   UNL     1      47.234 -11.321   8.196  1.00  0.00     0.191 HD
ENDROOT
BRANCH   3   7
HETATM    7  N   UNL     1      44.824 -14.541   6.570  1.00  0.00    -0.149 N 
HETATM    8  C   UNL     1      44.148 -15.643   7.027  1.00  0.00     0.290 C 
HETATM    9  O   UNL     1      43.863 -15.918   8.187  1.00  0.00    -0.265 OA
HETATM   10  H   UNL     1      44.998 -14.478   5.576  1.00  0.00     0.188 HD
BRANCH   8  11
HETATM   11  C   UNL     1      43.797 -16.557   5.924  1.00  0.00     0.147 A 
HETATM   12  N   UNL     1      42.910 -16.225   4.964  1.00  0.00    -0.169 NA
HETATM   13  N   UNL     1      42.889 -17.305   4.161  1.00  0.00    -0.277 N 
HETATM   14  H   UNL     1      42.255 -17.296   3.370  1.00  0.00     0.189 HD
HETATM   15  C   UNL     1      43.755 -18.305   4.522  1.00  0.00     0.063 A 
HETATM   16  C   UNL     1      44.331 -17.849   5.692  1.00  0.00     0.071 A 
BRANCH  15  17
HETATM   17  C   UNL     1      43.947 -19.546   3.767  1.00  0.00    -0.008 A 
HETATM   18  C   UNL     1      44.585 -20.659   4.336  1.00  0.00     0.014 A 
HETATM   19  C   UNL     1      44.739 -21.844   3.608  1.00  0.00     0.001 A 
HETATM   20  C   UNL     1      44.258 -21.933   2.305  1.00  0.00     0.000 A 
HETATM   21  C   UNL     1      43.620 -20.839   1.727  1.00  0.00     0.001 A 
HETATM   22  C   UNL     1      43.467 -19.655   2.454  1.00  0.00     0.014 A 
ENDBRANCH  15  17
ENDBRANCH   8  11
ENDBRANCH   3   7
BRANCH   1  23
HETATM   23  C   UNL     1      45.256 -11.453  10.232  1.00  0.00     0.085 C 
BRANCH  23  24
HETATM   24  C   UNL     1      44.419 -12.180  11.286  1.00  0.00     0.046 C 
BRANCH  24  25
HETATM   25  C   UNL     1      43.173 -11.386  11.608  1.00  0.00    -0.055 A 
HETATM   26  C   UNL     1      42.282 -11.015  10.591  1.00  0.00     0.046 A 
HETATM   27  C   UNL     1      41.091 -10.342  10.891  1.00  0.00     0.102 A 
HETATM   28  C   UNL     1      40.779 -10.050  12.233  1.00  0.00     0.101 A 
HETATM   29  C   UNL     1      41.679 -10.400  13.245  1.00  0.00     0.040 A 
HETATM   30  C   UNL     1      42.866 -11.067  12.935  1.00  0.00     0.010 A 
BRANCH  27  31
HETATM   31  O   UNL     1      40.159  -9.958   9.959  1.00  0.00    -0.353 OA
HETATM   32  C   UNL     1      39.484 -10.980   9.242  1.00  0.00     0.210 C 
ENDBRANCH  27  31
BRANCH  28  33
HETATM   33  O   UNL     1      39.591  -9.400  12.459  1.00  0.00    -0.353 OA
HETATM   34  C   UNL     1      39.618  -8.334  13.398  1.00  0.00     0.210 C 
ENDBRANCH  28  33
ENDBRANCH  24  25
ENDBRANCH  23  24
ENDBRANCH   1  23
TORSDOF 8
ENDMDL
MODEL 2
REMARK VINA RESULT:      -9.4      2.833     11.097
REMARK  8 active torsions:
REMARK  status: ('A' for Active; 'I' for Inactive)
REMARK    1  A    between atoms: O_2  and  C_3 
REMARK    2  A    between atoms: C_4  and  O_5 
REMARK    3  A    between atoms: C_8  and  C_9 
REMARK    4  A    between atoms: C_9  and  C_10 
REMARK    5  A    between atoms: C_10  and  C_11 
REMARK    6  A    between atoms: C_13  and  N_14 
REMARK       I    between atoms: N_14  and  C_15 
REMARK    7  A    between atoms: C_15  and  C_16 
REMARK    8  A    between atoms: C_20  and  C_21 
ROOT
HETATM    1  C   UNL     1      42.044 -14.890   4.581  1.00  0.00     0.140 A 
HETATM    2  N   UNL     1      42.005 -14.410   5.807  1.00  0.00    -0.046 NA
HETATM    3  C   UNL     1      43.112 -13.604   5.878  1.00  0.00     0.747 A 
HETATM    4  N   UNL     1      43.816 -13.547   4.748  1.00  0.00     0.020 NA
HETATM    5  N   UNL     1      43.129 -14.362   3.943  1.00  0.00    -0.248 N 
HETATM    6  H   UNL     1      43.461 -14.522   2.999  1.00  0.00     0.191 HD
ENDROOT
BRANCH   3   7
HETATM    7  N   UNL     1      43.387 -12.991   7.057  1.00  0.00    -0.149 N 
HETATM    8  C   UNL     1      44.577 -13.057   7.735  1.00  0.00     0.290 C 
HETATM    9  O   UNL     1      45.610 -13.614   7.382  1.00  0.00    -0.265 OA
HETATM   10  H   UNL     1      42.620 -12.508   7.505  1.00  0.00     0.188 HD
BRANCH   8  11
HETATM   11  C   UNL     1      44.493 -12.378   9.042  1.00  0.00     0.147 A 
HETATM   12  N   UNL     1      45.332 -12.659  10.059  1.00  0.00    -0.169 NA
HETATM   13  N   UNL     1      44.934 -11.828  11.041  1.00  0.00    -0.277 N 
HETATM   14  H   UNL     1      45.412 -11.885  11.934  1.00  0.00     0.189 HD
HETATM   15  C   UNL     1      43.910 -10.984  10.698  1.00  0.00     0.063 A 
HETATM   16  C   UNL     1      43.584 -11.352   9.407  1.00  0.00     0.071 A 
BRANCH  15  17
HETATM   17  C   UNL     1      43.354  -9.956  11.582  1.00  0.00    -0.008 A 
HETATM   18  C   UNL     1      42.506  -8.950  11.095  1.00  0.00     0.014 A 
HETATM   19  C   UNL     1      41.965  -7.991  11.956  1.00  0.00     0.001 A 
HETATM   20  C   UNL     1      42.263  -8.024  13.316  1.00  0.00     0.000 A 
HETATM   21  C   UNL     1      43.099  -9.017  13.817  1.00  0.00     0.001 A 
HETATM   22  C   UNL     1      43.640  -9.975  12.955  1.00  0.00     0.014 A 
ENDBRANCH  15  17
ENDBRANCH   8  11
ENDBRANCH   3   7
BRANCH   1  23
HETATM   23  C   UNL     1      41.148 -15.884   3.935  1.00  0.00     0.085 C 
BRANCH  23  24
HETATM   24  C   UNL     1      41.179 -17.248   4.626  1.00  0.00     0.046 C 
BRANCH  24  25
HETATM   25  C   UNL     1      42.243 -18.127   4.010  1.00  0.00    -0.055 A 
HETATM   26  C   UNL     1      43.151 -18.823   4.823  1.00  0.00     0.046 A 
HETATM   27  C   UNL     1      44.093 -19.694   4.261  1.00  0.00     0.102 A 
HETATM   28  C   UNL     1      44.117 -19.885   2.866  1.00  0.00     0.101 A 
HETATM   29  C   UNL     1      43.228 -19.172   2.055  1.00  0.00     0.040 A 
HETATM   30  C   UNL     1      42.295 -18.303   2.624  1.00  0.00     0.010 A 
BRANCH  27  31
HETATM   31  O   UNL     1      45.004 -20.424   4.985  1.00  0.00    -0.353 OA
HETATM   32  C   UNL     1      44.514 -21.505   5.763  1.00  0.00     0.210 C 
ENDBRANCH  27  31
BRANCH  28  33
HETATM   33  O   UNL     1      45.058 -20.761   2.384  1.00  0.00    -0.353 OA
HETATM   34  C   UNL     1      44.572 -21.979   1.836  1.00  0.00     0.210 C 
ENDBRANCH  28  33
ENDBRANCH  24  25
ENDBRANCH  23  24
ENDBRANCH   1  23
TORSDOF 8
ENDMDL
MODEL 3
REMARK VINA RESULT:      -9.3      1.027      2.072
REMARK  8 active torsions:
REMARK  status: ('A' for Active; 'I' for Inactive)
REMARK    1  A    between atoms: O_2  and  C_3 
REMARK    2  A    between atoms: C_4  and  O_5 
REMARK    3  A    between atoms: C_8  and  C_9 
REMARK    4  A    between atoms: C_9  and  C_10 
REMARK    5  A    between atoms: C_10  and  C_11 
REMARK    6  A    between atoms: C_13  and  N_14 
REMARK       I    between atoms: N_14  and  C_15 
REMARK    7  A    between atoms: C_15  and  C_16 
REMARK    8  A    between atoms: C_20  and  C_21 
ROOT
HETATM    1  C   UNL     1      45.505 -12.016   9.021  1.00  0.00     0.140 A 
HETATM    2  N   UNL     1      44.731 -12.948   8.504  1.00  0.00    -0.046 NA
HETATM    3  C   UNL     1      45.439 -13.397   7.419  1.00  0.00     0.747 A 
HETATM    4  N   UNL     1      46.621 -12.804   7.258  1.00  0.00     0.020 NA
HETATM    5  N   UNL     1      46.646 -11.938   8.274  1.00  0.00    -0.248 N 
HETATM    6  H   UNL     1      47.446 -11.326   8.385  1.00  0.00     0.191 HD
ENDROOT
BRANCH   3   7
HETATM    7  N   UNL     1      44.873 -14.345   6.630  1.00  0.00    -0.149 N 
HETATM    8  C   UNL     1      44.220 -15.468   7.071  1.00  0.00     0.290 C 
HETATM    9  O   UNL     1      43.975 -15.785   8.229  1.00  0.00    -0.265 OA
HETATM   10  H   UNL     1      45.014 -14.247   5.634  1.00  0.00     0.188 HD
BRANCH   8  11
HETATM   11  C   UNL     1      43.838 -16.346   5.948  1.00  0.00     0.147 A 
HETATM   12  N   UNL     1      42.993 -15.950   4.975  1.00  0.00    -0.169 NA
HETATM   13  N   UNL     1      42.925 -17.018   4.157  1.00  0.00    -0.277 N 
HETATM   14  H   UNL     1      42.310 -16.961   3.353  1.00  0.00     0.189 HD
HETATM   15  C   UNL     1      43.722 -18.072   4.523  1.00  0.00     0.063 A 
HETATM   16  C   UNL     1      44.299 -17.665   5.710  1.00  0.00     0.071 A 
BRANCH  15  17
HETATM   17  C   UNL     1      43.856 -19.313   3.756  1.00  0.00    -0.008 A 
HETATM   18  C   UNL     1      43.303 -19.445   2.473  1.00  0.00     0.014 A 
HETATM   19  C   UNL     1      43.460 -20.630   1.746  1.00  0.00     0.001 A 
HETATM   20  C   UNL     1      44.171 -21.696   2.288  1.00  0.00     0.000 A 
HETATM   21  C   UNL     1      44.729 -21.580   3.558  1.00  0.00     0.001 A 
HETATM   22  C   UNL     1      44.571 -20.397   4.286  1.00  0.00     0.014 A 
ENDBRANCH  15  17
ENDBRANCH   8  11
ENDBRANCH   3   7
BRANCH   1  23
HETATM   23  C   UNL     1      45.245 -11.112  10.171  1.00  0.00     0.085 C 
BRANCH  23  24
HETATM   24  C   UNL     1      44.300 -11.724  11.206  1.00  0.00     0.046 C 
BRANCH  24  25
HETATM   25  C   UNL     1      43.220 -10.736  11.583  1.00  0.00    -0.055 A 
HETATM   26  C   UNL     1      43.162 -10.204  12.880  1.00  0.00     0.046 A 
HETATM   27  C   UNL     1      42.209  -9.235  13.215  1.00  0.00     0.102 A 
HETATM   28  C   UNL     1      41.309  -8.778  12.233  1.00  0.00     0.101 A 
HETATM   29  C   UNL     1      41.351  -9.326  10.947  1.00  0.00     0.040 A 
HETATM   30  C   UNL     1      42.303 -10.295  10.623  1.00  0.00     0.010 A 
BRANCH  27  31
HETATM   31  O   UNL     1      42.095  -8.653  14.454  1.00  0.00    -0.353 OA
HETATM   32  C   UNL     1      42.081  -9.509  15.585  1.00  0.00     0.210 C 
ENDBRANCH  27  31
BRANCH  28  33
HETATM   33  O   UNL     1      40.408  -7.819  12.626  1.00  0.00    -0.353 OA
HETATM   34  C   UNL     1      39.055  -8.233  12.757  1.00  0.00     0.210 C 
ENDBRANCH  28  33
ENDBRANCH  24  25
ENDBRANCH  23  24
ENDBRANCH   1  23
TORSDOF 8
ENDMDL
MODEL 4
REMARK VINA RESULT:      -8.8      2.538      3.168
REMARK  8 active torsions:
REMARK  status: ('A' for Active; 'I' for Inactive)
REMARK    1  A    between atoms: O_2  and  C_3 
REMARK    2  A    between atoms: C_4  and  O_5 
REMARK    3  A    between atoms: C_8  and  C_9 
REMARK    4  A    between atoms: C_9  and  C_10 
REMARK    5  A    between atoms: C_10  and  C_11 
REMARK    6  A    between atoms: C_13  and  N_14 
REMARK       I    between atoms: N_14  and  C_15 
REMARK    7  A    between atoms: C_15  and  C_16 
REMARK    8  A    between atoms: C_20  and  C_21 
ROOT
HETATM    1  C   UNL     1      41.584 -11.513   6.481  1.00  0.00     0.140 A 
HETATM    2  N   UNL     1      42.140 -12.673   6.199  1.00  0.00    -0.046 NA
HETATM    3  C   UNL     1      41.664 -12.969   4.948  1.00  0.00     0.747 A 
HETATM    4  N   UNL     1      40.863 -12.036   4.436  1.00  0.00     0.020 NA
HETATM    5  N   UNL     1      40.824 -11.127   5.414  1.00  0.00    -0.248 N 
HETATM    6  H   UNL     1      40.256 -10.296   5.297  1.00  0.00     0.191 HD
ENDROOT
BRANCH   3   7
HETATM    7  N   UNL     1      42.021 -14.153   4.387  1.00  0.00    -0.149 N 
HETATM    8  C   UNL     1      43.187 -14.398   3.709  1.00  0.00     0.290 C 
HETATM    9  O   UNL     1      44.130 -13.633   3.540  1.00  0.00    -0.265 OA
HETATM   10  H   UNL     1      41.330 -14.891   4.412  1.00  0.00     0.188 HD
BRANCH   8  11
HETATM   11  C   UNL     1      43.198 -15.752   3.124  1.00  0.00     0.147 A 
HETATM   12  N   UNL     1      42.805 -15.996   1.858  1.00  0.00    -0.169 NA
HETATM   13  N   UNL     1      42.980 -17.324   1.719  1.00  0.00    -0.277 N 
HETATM   14  H   UNL     1      42.714 -17.749   0.837  1.00  0.00     0.189 HD
HETATM   15  C   UNL     1      43.514 -17.950   2.816  1.00  0.00     0.063 A 
HETATM   16  C   UNL     1      43.630 -16.945   3.757  1.00  0.00     0.071 A 
BRANCH  15  17
HETATM   17  C   UNL     1      43.847 -19.375   2.876  1.00  0.00    -0.008 A 
HETATM   18  C   UNL     1      44.492 -19.932   3.989  1.00  0.00     0.014 A 
HETATM   19  C   UNL     1      44.782 -21.300   4.039  1.00  0.00     0.001 A 
HETATM   20  C   UNL     1      44.428 -22.130   2.978  1.00  0.00     0.000 A 
HETATM   21  C   UNL     1      43.784 -21.593   1.867  1.00  0.00     0.001 A 
HETATM   22  C   UNL     1      43.496 -20.227   1.817  1.00  0.00     0.014 A 
ENDBRANCH  15  17
ENDBRANCH   8  11
ENDBRANCH   3   7
BRANCH   1  23
HETATM   23  C   UNL     1      41.658 -10.717   7.733  1.00  0.00     0.085 C 
BRANCH  23  24
HETATM   24  C   UNL     1      42.954 -10.952   8.511  1.00  0.00     0.046 C 
BRANCH  24  25
HETATM   25  C   UNL     1      42.713 -10.794   9.995  1.00  0.00    -0.055 A 
HETATM   26  C   UNL     1      41.409 -10.806  10.510  1.00  0.00     0.046 A 
HETATM   27  C   UNL     1      41.183 -10.732  11.891  1.00  0.00     0.102 A 
HETATM   28  C   UNL     1      42.280 -10.660  12.770  1.00  0.00     0.101 A 
HETATM   29  C   UNL     1      43.580 -10.623  12.255  1.00  0.00     0.040 A 
HETATM   30  C   UNL     1      43.794 -10.694  10.877  1.00  0.00     0.010 A 
BRANCH  27  31
HETATM   31  O   UNL     1      39.941 -10.754  12.477  1.00  0.00    -0.353 OA
HETATM   32  C   UNL     1      39.065  -9.670  12.207  1.00  0.00     0.210 C 
ENDBRANCH  27  31
BRANCH  28  33
HETATM   33  O   UNL     1      41.988 -10.600  14.111  1.00  0.00    -0.353 OA
HETATM   34  C   UNL     1      42.411  -9.434  14.803  1.00  0.00     0.210 C 
ENDBRANCH  28  33
ENDBRANCH  24  25
ENDBRANCH  23  24
ENDBRANCH   1  23
TORSDOF 8
ENDMDL
MODEL 5
REMARK VINA RESULT:      -8.7      3.266     11.174
REMARK  8 active torsions:
REMARK  status: ('A' for Active; 'I' for Inactive)
REMARK    1  A    between atoms: O_2  and  C_3 
REMARK    2  A    between atoms: C_4  and  O_5 
REMARK    3  A    between atoms: C_8  and  C_9 
REMARK    4  A    between atoms: C_9  and  C_10 
REMARK    5  A    between atoms: C_10  and  C_11 
REMARK    6  A    between atoms: C_13  and  N_14 
REMARK       I    between atoms: N_14  and  C_15 
REMARK    7  A    between atoms: C_15  and  C_16 
REMARK    8  A    between atoms: C_20  and  C_21 
ROOT
HETATM    1  C   UNL     1      41.748 -13.848   3.782  1.00  0.00     0.140 A 
HETATM    2  N   UNL     1      41.364 -13.825   5.042  1.00  0.00    -0.046 NA
HETATM    3  C   UNL     1      41.390 -12.494   5.368  1.00  0.00     0.747 A 
HETATM    4  N   UNL     1      41.747 -11.695   4.363  1.00  0.00     0.020 NA
HETATM    5  N   UNL     1      41.969 -12.565   3.373  1.00  0.00    -0.248 N 
HETATM    6  H   UNL     1      42.279 -12.221   2.471  1.00  0.00     0.191 HD
ENDROOT
BRANCH   3   7
HETATM    7  N   UNL     1      41.088 -12.138   6.643  1.00  0.00    -0.149 N 
HETATM    8  C   UNL     1      40.048 -11.331   7.023  1.00  0.00     0.290 C 
HETATM    9  O   UNL     1      39.179 -10.843   6.309  1.00  0.00    -0.265 OA
HETATM   10  H   UNL     1      41.736 -12.436   7.360  1.00  0.00     0.188 HD
BRANCH   8  11
HETATM   11  C   UNL     1      40.085 -11.048   8.471  1.00  0.00     0.147 A 
HETATM   12  N   UNL     1      38.980 -11.083   9.243  1.00  0.00    -0.169 NA
HETATM   13  N   UNL     1      39.441 -10.788  10.473  1.00  0.00    -0.277 N 
HETATM   14  H   UNL     1      38.768 -10.725  11.230  1.00  0.00     0.189 HD
HETATM   15  C   UNL     1      40.798 -10.610  10.550  1.00  0.00     0.063 A 
HETATM   16  C   UNL     1      41.232 -10.741   9.245  1.00  0.00     0.071 A 
BRANCH  15  17
HETATM   17  C   UNL     1      41.529 -10.340  11.791  1.00  0.00    -0.008 A 
HETATM   18  C   UNL     1      42.841  -9.844  11.777  1.00  0.00     0.014 A 
HETATM   19  C   UNL     1      43.515  -9.570  12.971  1.00  0.00     0.001 A 
HETATM   20  C   UNL     1      42.888  -9.786  14.195  1.00  0.00     0.000 A 
HETATM   21  C   UNL     1      41.585 -10.275  14.227  1.00  0.00     0.001 A 
HETATM   22  C   UNL     1      40.911 -10.549  13.033  1.00  0.00     0.014 A 
ENDBRANCH  15  17
ENDBRANCH   8  11
ENDBRANCH   3   7
BRANCH   1  23
HETATM   23  C   UNL     1      41.989 -15.016   2.897  1.00  0.00     0.085 C 
BRANCH  23  24
HETATM   24  C   UNL     1      41.360 -16.305   3.428  1.00  0.00     0.046 C 
BRANCH  24  25
HETATM   25  C   UNL     1      42.310 -17.468   3.250  1.00  0.00    -0.055 A 
HETATM   26  C   UNL     1      43.034 -17.970   4.341  1.00  0.00     0.046 A 
HETATM   27  C   UNL     1      43.860 -19.092   4.198  1.00  0.00     0.102 A 
HETATM   28  C   UNL     1      43.952 -19.731   2.946  1.00  0.00     0.101 A 
HETATM   29  C   UNL     1      43.248 -19.215   1.852  1.00  0.00     0.040 A 
HETATM   30  C   UNL     1      42.430 -18.094   2.005  1.00  0.00     0.010 A 
BRANCH  27  31
HETATM   31  O   UNL     1      44.588 -19.656   5.217  1.00  0.00    -0.353 OA
HETATM   32  C   UNL     1      43.955 -19.800   6.478  1.00  0.00     0.210 C 
ENDBRANCH  27  31
BRANCH  28  33
HETATM   33  O   UNL     1      44.771 -20.831   2.878  1.00  0.00    -0.353 OA
HETATM   34  C   UNL     1      44.342 -21.891   2.034  1.00  0.00     0.210 C 
ENDBRANCH  28  33
ENDBRANCH  24  25
ENDBRANCH  23  24
ENDBRANCH   1  23
TORSDOF 8
ENDMDL
MODEL 6
REMARK VINA RESULT:      -8.7      2.834      4.030
REMARK  8 active torsions:
REMARK  status: ('A' for Active; 'I' for Inactive)
REMARK    1  A    between atoms: O_2  and  C_3 
REMARK    2  A    between atoms: C_4  and  O_5 
REMARK    3  A    between atoms: C_8  and  C_9 
REMARK    4  A    between atoms: C_9  and  C_10 
REMARK    5  A    between atoms: C_10  and  C_11 
REMARK    6  A    between atoms: C_13  and  N_14 
REMARK       I    between atoms: N_14  and  C_15 
REMARK    7  A    between atoms: C_15  and  C_16 
REMARK    8  A    between atoms: C_20  and  C_21 
ROOT
HETATM    1  C   UNL     1      40.426 -12.247   6.357  1.00  0.00     0.140 A 
HETATM    2  N   UNL     1      41.398 -12.850   5.705  1.00  0.00    -0.046 NA
HETATM    3  C   UNL     1      40.848 -14.050   5.334  1.00  0.00     0.747 A 
HETATM    4  N   UNL     1      39.578 -14.203   5.705  1.00  0.00     0.020 NA
HETATM    5  N   UNL     1      39.329 -13.059   6.348  1.00  0.00    -0.248 N 
HETATM    6  H   UNL     1      38.415 -12.911   6.761  1.00  0.00     0.191 HD
ENDROOT
BRANCH   3   7
HETATM    7  N   UNL     1      41.633 -14.941   4.675  1.00  0.00    -0.149 N 
HETATM    8  C   UNL     1      41.813 -14.997   3.317  1.00  0.00     0.290 C 
HETATM    9  O   UNL     1      41.363 -14.234   2.470  1.00  0.00    -0.265 OA
HETATM   10  H   UNL     1      42.058 -15.668   5.234  1.00  0.00     0.188 HD
BRANCH   8  11
HETATM   11  C   UNL     1      42.629 -16.163   2.928  1.00  0.00     0.147 A 
HETATM   12  N   UNL     1      43.698 -16.058   2.114  1.00  0.00    -0.169 NA
HETATM   13  N   UNL     1      44.159 -17.320   2.027  1.00  0.00    -0.277 N 
HETATM   14  H   UNL     1      44.959 -17.493   1.428  1.00  0.00     0.189 HD
HETATM   15  C   UNL     1      43.473 -18.234   2.785  1.00  0.00     0.063 A 
HETATM   16  C   UNL     1      42.448 -17.503   3.353  1.00  0.00     0.071 A 
BRANCH  15  17
HETATM   17  C   UNL     1      43.828 -19.651   2.893  1.00  0.00    -0.008 A 
HETATM   18  C   UNL     1      43.563 -20.556   1.854  1.00  0.00     0.014 A 
HETATM   19  C   UNL     1      43.930 -21.901   1.966  1.00  0.00     0.001 A 
HETATM   20  C   UNL     1      44.567 -22.360   3.116  1.00  0.00     0.000 A 
HETATM   21  C   UNL     1      44.840 -21.475   4.154  1.00  0.00     0.001 A 
HETATM   22  C   UNL     1      44.473 -20.131   4.043  1.00  0.00     0.014 A 
ENDBRANCH  15  17
ENDBRANCH   8  11
ENDBRANCH   3   7
BRANCH   1  23
HETATM   23  C   UNL     1      40.442 -10.942   7.068  1.00  0.00     0.085 C 
BRANCH  23  24
HETATM   24  C   UNL     1      39.799 -11.013   8.454  1.00  0.00     0.046 C 
BRANCH  24  25
HETATM   25  C   UNL     1      40.845 -10.834   9.530  1.00  0.00    -0.055 A 
HETATM   26  C   UNL     1      42.197 -10.682   9.190  1.00  0.00     0.046 A 
HETATM   27  C   UNL     1      43.162 -10.444  10.177  1.00  0.00     0.102 A 
HETATM   28  C   UNL     1      42.766 -10.343  11.525  1.00  0.00     0.101 A 
HETATM   29  C   UNL     1      41.420 -10.519  11.866  1.00  0.00     0.040 A 
HETATM   30  C   UNL     1      40.467 -10.759  10.874  1.00  0.00     0.010 A 
BRANCH  27  31
HETATM   31  O   UNL     1      44.501 -10.268   9.929  1.00  0.00    -0.353 OA
HETATM   32  C   UNL     1      45.232 -11.379   9.434  1.00  0.00     0.210 C 
ENDBRANCH  27  31
BRANCH  28  33
HETATM   33  O   UNL     1      43.760 -10.098  12.440  1.00  0.00    -0.353 OA
HETATM   34  C   UNL     1      43.371  -9.452  13.644  1.00  0.00     0.210 C 
ENDBRANCH  28  33
ENDBRANCH  24  25
ENDBRANCH  23  24
ENDBRANCH   1  23
TORSDOF 8
ENDMDL
MODEL 7
REMARK VINA RESULT:      -8.5      3.534     10.793
REMARK  8 active torsions:
REMARK  status: ('A' for Active; 'I' for Inactive)
REMARK    1  A    between atoms: O_2  and  C_3 
REMARK    2  A    between atoms: C_4  and  O_5 
REMARK    3  A    between atoms: C_8  and  C_9 
REMARK    4  A    between atoms: C_9  and  C_10 
REMARK    5  A    between atoms: C_10  and  C_11 
REMARK    6  A    between atoms: C_13  and  N_14 
REMARK       I    between atoms: N_14  and  C_15 
REMARK    7  A    between atoms: C_15  and  C_16 
REMARK    8  A    between atoms: C_20  and  C_21 
ROOT
HETATM    1  C   UNL     1      40.500 -16.434   2.404  1.00  0.00     0.140 A 
HETATM    2  N   UNL     1      40.882 -15.782   3.482  1.00  0.00    -0.046 NA
HETATM    3  C   UNL     1      40.109 -14.649   3.470  1.00  0.00     0.747 A 
HETATM    4  N   UNL     1      39.254 -14.585   2.451  1.00  0.00     0.020 NA
HETATM    5  N   UNL     1      39.514 -15.717   1.790  1.00  0.00    -0.248 N 
HETATM    6  H   UNL     1      39.005 -15.921   0.938  1.00  0.00     0.191 HD
ENDROOT
BRANCH   3   7
HETATM    7  N   UNL     1      40.306 -13.726   4.446  1.00  0.00    -0.149 N 
HETATM    8  C   UNL     1      41.250 -12.732   4.429  1.00  0.00     0.290 C 
HETATM    9  O   UNL     1      42.030 -12.457   3.525  1.00  0.00    -0.265 OA
HETATM   10  H   UNL     1      39.755 -13.834   5.288  1.00  0.00     0.188 HD
BRANCH   8  11
HETATM   11  C   UNL     1      41.272 -11.986   5.702  1.00  0.00     0.147 A 
HETATM   12  N   UNL     1      40.209 -11.288   6.150  1.00  0.00    -0.169 NA
HETATM   13  N   UNL     1      40.631 -10.782   7.324  1.00  0.00    -0.277 N 
HETATM   14  H   UNL     1      39.995 -10.183   7.839  1.00  0.00     0.189 HD
HETATM   15  C   UNL     1      41.899 -11.157   7.688  1.00  0.00     0.063 A 
HETATM   16  C   UNL     1      42.347 -11.915   6.623  1.00  0.00     0.071 A 
BRANCH  15  17
HETATM   17  C   UNL     1      42.544 -10.778   8.947  1.00  0.00    -0.008 A 
HETATM   18  C   UNL     1      43.874 -11.129   9.224  1.00  0.00     0.014 A 
HETATM   19  C   UNL     1      44.482 -10.739  10.422  1.00  0.00     0.001 A 
HETATM   20  C   UNL     1      43.771  -9.993  11.358  1.00  0.00     0.000 A 
HETATM   21  C   UNL     1      42.452  -9.634  11.097  1.00  0.00     0.001 A 
HETATM   22  C   UNL     1      41.844 -10.025   9.901  1.00  0.00     0.014 A 
ENDBRANCH  15  17
ENDBRANCH   8  11
ENDBRANCH   3   7
BRANCH   1  23
HETATM   23  C   UNL     1      41.031 -17.701   1.837  1.00  0.00     0.085 C 
BRANCH  23  24
HETATM   24  C   UNL     1      42.510 -17.608   1.459  1.00  0.00     0.046 C 
BRANCH  24  25
HETATM   25  C   UNL     1      43.334 -18.536   2.322  1.00  0.00    -0.055 A 
HETATM   26  C   UNL     1      43.672 -18.175   3.635  1.00  0.00     0.046 A 
HETATM   27  C   UNL     1      44.373 -19.060   4.464  1.00  0.00     0.102 A 
HETATM   28  C   UNL     1      44.728 -20.333   3.977  1.00  0.00     0.101 A 
HETATM   29  C   UNL     1      44.411 -20.684   2.660  1.00  0.00     0.040 A 
HETATM   30  C   UNL     1      43.715 -19.792   1.841  1.00  0.00     0.010 A 
BRANCH  27  31
HETATM   31  O   UNL     1      44.729 -18.791   5.763  1.00  0.00    -0.353 OA
HETATM   32  C   UNL     1      43.703 -18.807   6.743  1.00  0.00     0.210 C 
ENDBRANCH  27  31
BRANCH  28  33
HETATM   33  O   UNL     1      45.404 -21.155   4.844  1.00  0.00    -0.353 OA
HETATM   34  C   UNL     1      44.833 -22.434   5.085  1.00  0.00     0.210 C 
ENDBRANCH  28  33
ENDBRANCH  24  25
ENDBRANCH  23  24
ENDBRANCH   1  23
TORSDOF 8
ENDMDL
MODEL 8
REMARK VINA RESULT:      -8.3      3.537     10.808
REMARK  8 active torsions:
REMARK  status: ('A' for Active; 'I' for Inactive)
REMARK    1  A    between atoms: O_2  and  C_3 
REMARK    2  A    between atoms: C_4  and  O_5 
REMARK    3  A    between atoms: C_8  and  C_9 
REMARK    4  A    between atoms: C_9  and  C_10 
REMARK    5  A    between atoms: C_10  and  C_11 
REMARK    6  A    between atoms: C_13  and  N_14 
REMARK       I    between atoms: N_14  and  C_15 
REMARK    7  A    between atoms: C_15  and  C_16 
REMARK    8  A    between atoms: C_20  and  C_21 
ROOT
HETATM    1  C   UNL     1      42.142 -14.881   2.326  1.00  0.00     0.140 A 
HETATM    2  N   UNL     1      41.914 -14.471   3.557  1.00  0.00    -0.046 NA
HETATM    3  C   UNL     1      42.118 -13.116   3.493  1.00  0.00     0.747 A 
HETATM    4  N   UNL     1      42.435 -12.671   2.278  1.00  0.00     0.020 NA
HETATM    5  N   UNL     1      42.446 -13.795   1.557  1.00  0.00    -0.248 N 
HETATM    6  H   UNL     1      42.681 -13.751   0.572  1.00  0.00     0.191 HD
ENDROOT
BRANCH   3   7
HETATM    7  N   UNL     1      42.008 -12.395   4.638  1.00  0.00    -0.149 N 
HETATM    8  C   UNL     1      41.006 -11.507   4.931  1.00  0.00     0.290 C 
HETATM    9  O   UNL     1      40.013 -11.251   4.260  1.00  0.00    -0.265 OA
HETATM   10  H   UNL     1      42.775 -12.469   5.293  1.00  0.00     0.188 HD
BRANCH   8  11
HETATM   11  C   UNL     1      41.261 -10.805   6.203  1.00  0.00     0.147 A 
HETATM   12  N   UNL     1      40.639  -9.654   6.532  1.00  0.00    -0.169 NA
HETATM   13  N   UNL     1      41.132  -9.362   7.751  1.00  0.00    -0.277 N 
HETATM   14  H   UNL     1      40.824  -8.503   8.194  1.00  0.00     0.189 HD
HETATM   15  C   UNL     1      42.006 -10.291   8.254  1.00  0.00     0.063 A 
HETATM   16  C   UNL     1      42.130 -11.223   7.242  1.00  0.00     0.071 A 
BRANCH  15  17
HETATM   17  C   UNL     1      42.620 -10.215   9.582  1.00  0.00    -0.008 A 
HETATM   18  C   UNL     1      42.054  -9.446  10.609  1.00  0.00     0.014 A 
HETATM   19  C   UNL     1      42.641  -9.402  11.877  1.00  0.00     0.001 A 
HETATM   20  C   UNL     1      43.802 -10.127  12.137  1.00  0.00     0.000 A 
HETATM   21  C   UNL     1      44.375 -10.897  11.130  1.00  0.00     0.001 A 
HETATM   22  C   UNL     1      43.788 -10.940   9.862  1.00  0.00     0.014 A 
ENDBRANCH  15  17
ENDBRANCH   8  11
ENDBRANCH   3   7
BRANCH   1  23
HETATM   23  C   UNL     1      42.153 -16.265   1.786  1.00  0.00     0.085 C 
BRANCH  23  24
HETATM   24  C   UNL     1      43.564 -16.841   1.657  1.00  0.00     0.046 C 
BRANCH  24  25
HETATM   25  C   UNL     1      43.787 -17.927   2.684  1.00  0.00    -0.055 A 
HETATM   26  C   UNL     1      44.118 -19.230   2.283  1.00  0.00     0.046 A 
HETATM   27  C   UNL     1      44.396 -20.222   3.232  1.00  0.00     0.102 A 
HETATM   28  C   UNL     1      44.357 -19.903   4.603  1.00  0.00     0.101 A 
HETATM   29  C   UNL     1      44.004 -18.609   5.002  1.00  0.00     0.040 A 
HETATM   30  C   UNL     1      43.725 -17.628   4.049  1.00  0.00     0.010 A 
BRANCH  27  31
HETATM   31  O   UNL     1      44.742 -21.515   2.924  1.00  0.00    -0.353 OA
HETATM   32  C   UNL     1      44.223 -22.069   1.725  1.00  0.00     0.210 C 
ENDBRANCH  27  31
BRANCH  28  33
HETATM   33  O   UNL     1      44.651 -20.919   5.477  1.00  0.00    -0.353 OA
HETATM   34  C   UNL     1      43.833 -21.018   6.635  1.00  0.00     0.210 C 
ENDBRANCH  28  33
ENDBRANCH  24  25
ENDBRANCH  23  24
ENDBRANCH   1  23
TORSDOF 8
ENDMDL
MODEL 9
REMARK VINA RESULT:      -7.9      2.874      4.387
REMARK  8 active torsions:
REMARK  status: ('A' for Active; 'I' for Inactive)
REMARK    1  A    between atoms: O_2  and  C_3 
REMARK    2  A    between atoms: C_4  and  O_5 
REMARK    3  A    between atoms: C_8  and  C_9 
REMARK    4  A    between atoms: C_9  and  C_10 
REMARK    5  A    between atoms: C_10  and  C_11 
REMARK    6  A    between atoms: C_13  and  N_14 
REMARK       I    between atoms: N_14  and  C_15 
REMARK    7  A    between atoms: C_15  and  C_16 
REMARK    8  A    between atoms: C_20  and  C_21 
ROOT
HETATM    1  C   UNL     1      39.737 -11.321   6.120  1.00  0.00     0.140 A 
HETATM    2  N   UNL     1      40.613 -12.288   5.941  1.00  0.00    -0.046 NA
HETATM    3  C   UNL     1      40.235 -12.856   4.752  1.00  0.00     0.747 A 
HETATM    4  N   UNL     1      39.185 -12.271   4.179  1.00  0.00     0.020 NA
HETATM    5  N   UNL     1      38.884 -11.307   5.054  1.00  0.00    -0.248 N 
HETATM    6  H   UNL     1      38.091 -10.702   4.872  1.00  0.00     0.191 HD
ENDROOT
BRANCH   3   7
HETATM    7  N   UNL     1      40.926 -13.937   4.307  1.00  0.00    -0.149 N 
HETATM    8  C   UNL     1      40.908 -15.186   4.873  1.00  0.00     0.290 C 
HETATM    9  O   UNL     1      40.234 -15.568   5.822  1.00  0.00    -0.265 OA
HETATM   10  H   UNL     1      41.564 -13.781   3.538  1.00  0.00     0.188 HD
BRANCH   8  11
HETATM   11  C   UNL     1      41.869 -16.091   4.214  1.00  0.00     0.147 A 
HETATM   12  N   UNL     1      42.939 -15.637   3.531  1.00  0.00    -0.169 NA
HETATM   13  N   UNL     1      43.551 -16.761   3.111  1.00  0.00    -0.277 N 
HETATM   14  H   UNL     1      44.381 -16.664   2.537  1.00  0.00     0.189 HD
HETATM   15  C   UNL     1      42.959 -17.926   3.528  1.00  0.00     0.063 A 
HETATM   16  C   UNL     1      41.839 -17.509   4.220  1.00  0.00     0.071 A 
BRANCH  15  17
HETATM   17  C   UNL     1      43.480 -19.265   3.244  1.00  0.00    -0.008 A 
HETATM   18  C   UNL     1      43.207 -19.916   2.031  1.00  0.00     0.014 A 
HETATM   19  C   UNL     1      43.730 -21.186   1.767  1.00  0.00     0.001 A 
HETATM   20  C   UNL     1      44.534 -21.822   2.709  1.00  0.00     0.000 A 
HETATM   21  C   UNL     1      44.817 -21.189   3.916  1.00  0.00     0.001 A 
HETATM   22  C   UNL     1      44.293 -19.921   4.180  1.00  0.00     0.014 A 
ENDBRANCH  15  17
ENDBRANCH   8  11
ENDBRANCH   3   7
BRANCH   1  23
HETATM   23  C   UNL     1      39.581 -10.399   7.274  1.00  0.00     0.085 C 
BRANCH  23  24
HETATM   24  C   UNL     1      40.814  -9.523   7.504  1.00  0.00     0.046 C 
BRANCH  24  25
HETATM   25  C   UNL     1      41.712 -10.142   8.551  1.00  0.00    -0.055 A 
HETATM   26  C   UNL     1      42.845 -10.877   8.172  1.00  0.00     0.046 A 
HETATM   27  C   UNL     1      43.720 -11.392   9.137  1.00  0.00     0.102 A 
HETATM   28  C   UNL     1      43.466 -11.154  10.502  1.00  0.00     0.101 A 
HETATM   29  C   UNL     1      42.323 -10.441  10.879  1.00  0.00     0.040 A 
HETATM   30  C   UNL     1      41.455  -9.935   9.910  1.00  0.00     0.010 A 
BRANCH  27  31
HETATM   31  O   UNL     1      44.857 -12.108   8.852  1.00  0.00    -0.353 OA
HETATM   32  C   UNL     1      44.735 -13.215   7.972  1.00  0.00     0.210 C 
ENDBRANCH  27  31
BRANCH  28  33
HETATM   33  O   UNL     1      44.369 -11.678  11.394  1.00  0.00    -0.353 OA
HETATM   34  C   UNL     1      43.896 -12.712  12.246  1.00  0.00     0.210 C 
ENDBRANCH  28  33
ENDBRANCH  24  25
ENDBRANCH  23  24
ENDBRANCH   1  23
TORSDOF 8
ENDMDL
MODEL 10
REMARK VINA RESULT:      -7.9      6.251     10.034
REMARK  8 active torsions:
REMARK  status: ('A' for Active; 'I' for Inactive)
REMARK    1  A    between atoms: O_2  and  C_3 
REMARK    2  A    between atoms: C_4  and  O_5 
REMARK    3  A    between atoms: C_8  and  C_9 
REMARK    4  A    between atoms: C_9  and  C_10 
REMARK    5  A    between atoms: C_10  and  C_11 
REMARK    6  A    between atoms: C_13  and  N_14 
REMARK       I    between atoms: N_14  and  C_15 
REMARK    7  A    between atoms: C_15  and  C_16 
REMARK    8  A    between atoms: C_20  and  C_21 
ROOT
HETATM    1  C   UNL     1      43.591 -14.650   5.866  1.00  0.00     0.140 A 
HETATM    2  N   UNL     1      43.417 -14.270   4.617  1.00  0.00    -0.046 NA
HETATM    3  C   UNL     1      42.667 -13.127   4.725  1.00  0.00     0.747 A 
HETATM    4  N   UNL     1      42.392 -12.773   5.979  1.00  0.00     0.020 NA
HETATM    5  N   UNL     1      42.981 -13.743   6.684  1.00  0.00    -0.248 N 
HETATM    6  H   UNL     1      42.913 -13.732   7.695  1.00  0.00     0.191 HD
ENDROOT
BRANCH   3   7
HETATM    7  N   UNL     1      42.270 -12.509   3.583  1.00  0.00    -0.149 N 
HETATM    8  C   UNL     1      41.223 -12.896   2.786  1.00  0.00     0.290 C 
HETATM    9  O   UNL     1      40.431 -13.811   2.983  1.00  0.00    -0.265 OA
HETATM   10  H   UNL     1      42.846 -11.743   3.260  1.00  0.00     0.188 HD
BRANCH   8  11
HETATM   11  C   UNL     1      41.147 -12.079   1.560  1.00  0.00     0.147 A 
HETATM   12  N   UNL     1      40.472 -10.913   1.509  1.00  0.00    -0.169 NA
HETATM   13  N   UNL     1      40.661 -10.489   0.245  1.00  0.00    -0.277 N 
HETATM   14  H   UNL     1      40.209  -9.627  -0.039  1.00  0.00     0.189 HD
HETATM   15  C   UNL     1      41.466 -11.297  -0.516  1.00  0.00     0.063 A 
HETATM   16  C   UNL     1      41.764 -12.359   0.315  1.00  0.00     0.071 A 
BRANCH  15  17
HETATM   17  C   UNL     1      41.858 -11.008  -1.898  1.00  0.00    -0.008 A 
HETATM   18  C   UNL     1      41.905 -12.016  -2.873  1.00  0.00     0.014 A 
HETATM   19  C   UNL     1      42.259 -11.718  -4.193  1.00  0.00     0.001 A 
HETATM   20  C   UNL     1      42.570 -10.411  -4.557  1.00  0.00     0.000 A 
HETATM   21  C   UNL     1      42.525  -9.399  -3.602  1.00  0.00     0.001 A 
HETATM   22  C   UNL     1      42.173  -9.696  -2.283  1.00  0.00     0.014 A 
ENDBRANCH  15  17
ENDBRANCH   8  11
ENDBRANCH   3   7
BRANCH   1  23
HETATM   23  C   UNL     1      44.261 -15.868   6.391  1.00  0.00     0.085 C 
BRANCH  23  24
HETATM   24  C   UNL     1      43.319 -17.069   6.488  1.00  0.00     0.046 C 
BRANCH  24  25
HETATM   25  C   UNL     1      43.679 -18.106   5.448  1.00  0.00    -0.055 A 
HETATM   26  C   UNL     1      43.228 -17.975   4.127  1.00  0.00     0.046 A 
HETATM   27  C   UNL     1      43.617 -18.893   3.143  1.00  0.00     0.102 A 
HETATM   28  C   UNL     1      44.483 -19.950   3.484  1.00  0.00     0.101 A 
HETATM   29  C   UNL     1      44.913 -20.093   4.807  1.00  0.00     0.040 A 
HETATM   30  C   UNL     1      44.517 -19.175   5.781  1.00  0.00     0.010 A 
BRANCH  27  31
HETATM   31  O   UNL     1      43.234 -18.829   1.825  1.00  0.00    -0.353 OA
HETATM   32  C   UNL     1      43.704 -17.733   1.055  1.00  0.00     0.210 C 
ENDBRANCH  27  31
BRANCH  28  33
HETATM   33  O   UNL     1      44.833 -20.807   2.470  1.00  0.00    -0.353 OA
HETATM   34  C   UNL     1      44.432 -22.162   2.615  1.00  0.00     0.210 C 
ENDBRANCH  28  33
ENDBRANCH  24  25
ENDBRANCH  23  24
ENDBRANCH   1  23
TORSDOF 8
ENDMDL
