MODEL 1
REMARK VINA RESULT:      -8.2      0.000      0.000
REMARK  5 active torsions:
REMARK  status: ('A' for Active; 'I' for Inactive)
REMARK    1  A    between atoms: C_4  and  C_5 
REMARK    2  A    between atoms: C_8  and  C_9 
REMARK    3  A    between atoms: C_9  and  N_10 
REMARK       I    between atoms: N_10  and  C_11 
REMARK    4  A    between atoms: C_11  and  C_12 
REMARK    5  A    between atoms: C_16  and  C_17 
ROOT
HETATM    1  N   UNL     1      42.790 -15.538   4.256  1.00  0.00    -0.348 N 
HETATM    2  C   UNL     1      42.231 -16.771   4.468  1.00  0.00     0.271 C 
HETATM    3  O   UNL     1      41.284 -16.930   5.236  1.00  0.00    -0.266 OA
HETATM    4  H   UNL     1      43.474 -15.416   3.521  1.00  0.00     0.163 HD
ENDROOT
BRANCH   1   5
HETATM    5  C   UNL     1      42.357 -14.357   4.971  1.00  0.00     0.201 C 
BRANCH   5   6
HETATM    6  C   UNL     1      43.381 -13.957   5.973  1.00  0.00     0.122 A 
HETATM    7  N   UNL     1      43.100 -13.052   6.968  1.00  0.00    -0.341 N 
HETATM    8  C   UNL     1      44.214 -12.906   7.758  1.00  0.00     0.061 A 
HETATM    9  H   UNL     1      42.211 -12.580   7.078  1.00  0.00     0.167 HD
HETATM   10  C   UNL     1      45.134 -13.764   7.185  1.00  0.00     0.149 A 
HETATM   11  N   UNL     1      44.618 -14.398   6.082  1.00  0.00    -0.243 NA
BRANCH   8  12
HETATM   12  C   UNL     1      44.279 -12.033   8.925  1.00  0.00    -0.008 A 
HETATM   13  C   UNL     1      45.395 -12.064   9.770  1.00  0.00     0.014 A 
HETATM   14  C   UNL     1      45.460 -11.237  10.896  1.00  0.00     0.001 A 
HETATM   15  C   UNL     1      44.411 -10.367  11.183  1.00  0.00     0.000 A 
HETATM   16  C   UNL     1      43.297 -10.323  10.348  1.00  0.00     0.001 A 
HETATM   17  C   UNL     1      43.231 -11.152   9.226  1.00  0.00     0.014 A 
ENDBRANCH   8  12
ENDBRANCH   5   6
ENDBRANCH   1   5
BRANCH   2  18
HETATM   18  C   UNL     1      42.795 -17.863   3.726  1.00  0.00     0.141 A 
HETATM   19  N   UNL     1      42.287 -18.213   2.502  1.00  0.00    -0.271 N 
HETATM   20  H   UNL     1      41.515 -17.766   2.015  1.00  0.00     0.189 HD
HETATM   21  N   UNL     1      42.894 -19.260   1.925  1.00  0.00    -0.177 NA
HETATM   22  C   UNL     1      43.827 -19.608   2.816  1.00  0.00     0.083 A 
HETATM   23  C   UNL     1      43.816 -18.766   3.954  1.00  0.00     0.094 A 
HETATM   24 CL   UNL     1      44.841 -18.885   5.304  1.00  0.00    -0.079 Cl
BRANCH  22  25
HETATM   25  C   UNL     1      44.773 -20.788   2.607  1.00  0.00     0.041 A 
HETATM   26  C   UNL     1      44.423 -22.117   3.250  1.00  0.00     0.011 A 
HETATM   27  C   UNL     1      44.299 -21.963   1.774  1.00  0.00     0.011 A 
ENDBRANCH  22  25
ENDBRANCH   2  18
TORSDOF 5
ENDMDL
MODEL 2
REMARK VINA RESULT:      -8.1      3.432      9.772
REMARK  5 active torsions:
REMARK  status: ('A' for Active; 'I' for Inactive)
REMARK    1  A    between atoms: C_4  and  C_5 
REMARK    2  A    between atoms: C_8  and  C_9 
REMARK    3  A    between atoms: C_9  and  N_10 
REMARK       I    between atoms: N_10  and  C_11 
REMARK    4  A    between atoms: C_11  and  C_12 
REMARK    5  A    between atoms: C_16  and  C_17 
ROOT
HETATM    1  N   UNL     1      44.123 -13.544   8.148  1.00  0.00    -0.348 N 
HETATM    2  C   UNL     1      44.749 -12.590   8.906  1.00  0.00     0.271 C 
HETATM    3  O   UNL     1      45.866 -12.164   8.618  1.00  0.00    -0.266 OA
HETATM    4  H   UNL     1      43.155 -13.776   8.330  1.00  0.00     0.163 HD
ENDROOT
BRANCH   1   5
HETATM    5  C   UNL     1      44.757 -14.167   7.006  1.00  0.00     0.201 C 
BRANCH   5   6
HETATM    6  C   UNL     1      44.264 -15.561   6.840  1.00  0.00     0.122 A 
HETATM    7  N   UNL     1      44.521 -16.284   5.700  1.00  0.00    -0.341 N 
HETATM    8  C   UNL     1      43.979 -17.537   5.842  1.00  0.00     0.061 A 
HETATM    9  H   UNL     1      45.027 -15.928   4.898  1.00  0.00     0.167 HD
HETATM   10  C   UNL     1      43.413 -17.506   7.103  1.00  0.00     0.149 A 
HETATM   11  N   UNL     1      43.583 -16.283   7.705  1.00  0.00    -0.243 NA
BRANCH   8  12
HETATM   12  C   UNL     1      44.069 -18.586   4.833  1.00  0.00    -0.008 A 
HETATM   13  C   UNL     1      44.676 -19.812   5.137  1.00  0.00     0.014 A 
HETATM   14  C   UNL     1      44.774 -20.818   4.172  1.00  0.00     0.001 A 
HETATM   15  C   UNL     1      44.260 -20.610   2.894  1.00  0.00     0.000 A 
HETATM   16  C   UNL     1      43.650 -19.399   2.579  1.00  0.00     0.001 A 
HETATM   17  C   UNL     1      43.556 -18.392   3.543  1.00  0.00     0.014 A 
ENDBRANCH   8  12
ENDBRANCH   5   6
ENDBRANCH   1   5
BRANCH   2  18
HETATM   18  C   UNL     1      44.020 -12.097  10.041  1.00  0.00     0.141 A 
HETATM   19  N   UNL     1      44.202 -12.649  11.282  1.00  0.00    -0.271 N 
HETATM   20  H   UNL     1      44.834 -13.409  11.522  1.00  0.00     0.189 HD
HETATM   21  N   UNL     1      43.447 -12.108  12.249  1.00  0.00    -0.177 NA
HETATM   22  C   UNL     1      42.741 -11.173  11.606  1.00  0.00     0.083 A 
HETATM   23  C   UNL     1      43.064 -11.118  10.228  1.00  0.00     0.094 A 
HETATM   24 CL   UNL     1      42.382 -10.070   9.077  1.00  0.00    -0.079 Cl
BRANCH  22  25
HETATM   25  C   UNL     1      41.707 -10.291  12.301  1.00  0.00     0.041 A 
HETATM   26  C   UNL     1      40.341 -10.881  12.601  1.00  0.00     0.011 A 
HETATM   27  C   UNL     1      41.294 -10.634  13.719  1.00  0.00     0.011 A 
ENDBRANCH  22  25
ENDBRANCH   2  18
TORSDOF 5
ENDMDL
MODEL 3
REMARK VINA RESULT:      -8.0      3.939      8.130
REMARK  5 active torsions:
REMARK  status: ('A' for Active; 'I' for Inactive)
REMARK    1  A    between atoms: C_4  and  C_5 
REMARK    2  A    between atoms: C_8  and  C_9 
REMARK    3  A    between atoms: C_9  and  N_10 
REMARK       I    between atoms: N_10  and  C_11 
REMARK    4  A    between atoms: C_11  and  C_12 
REMARK    5  A    between atoms: C_16  and  C_17 
ROOT
HETATM    1  N   UNL     1      42.423 -15.124   4.882  1.00  0.00    -0.348 N 
HETATM    2  C   UNL     1      41.063 -15.098   5.045  1.00  0.00     0.271 C 
HETATM    3  O   UNL     1      40.540 -15.243   6.148  1.00  0.00    -0.266 OA
HETATM    4  H   UNL     1      42.828 -14.868   3.990  1.00  0.00     0.163 HD
ENDROOT
BRANCH   1   5
HETATM    5  C   UNL     1      43.331 -15.395   5.976  1.00  0.00     0.201 C 
BRANCH   5   6
HETATM    6  C   UNL     1      43.925 -16.751   5.828  1.00  0.00     0.122 A 
HETATM    7  N   UNL     1      43.603 -17.567   4.771  1.00  0.00    -0.341 N 
HETATM    8  C   UNL     1      44.324 -18.730   4.877  1.00  0.00     0.061 A 
HETATM    9  H   UNL     1      42.936 -17.329   4.046  1.00  0.00     0.167 HD
HETATM   10  C   UNL     1      45.074 -18.545   6.024  1.00  0.00     0.149 A 
HETATM   11  N   UNL     1      44.814 -17.330   6.609  1.00  0.00    -0.243 NA
BRANCH   8  12
HETATM   12  C   UNL     1      44.251 -19.828   3.919  1.00  0.00    -0.008 A 
HETATM   13  C   UNL     1      43.679 -19.628   2.656  1.00  0.00     0.014 A 
HETATM   14  C   UNL     1      43.597 -20.677   1.737  1.00  0.00     0.001 A 
HETATM   15  C   UNL     1      44.091 -21.936   2.070  1.00  0.00     0.000 A 
HETATM   16  C   UNL     1      44.667 -22.148   3.320  1.00  0.00     0.001 A 
HETATM   17  C   UNL     1      44.745 -21.100   4.241  1.00  0.00     0.014 A 
ENDBRANCH   8  12
ENDBRANCH   5   6
ENDBRANCH   1   5
BRANCH   2  18
HETATM   18  C   UNL     1      40.283 -14.869   3.862  1.00  0.00     0.141 A 
HETATM   19  N   UNL     1      40.084 -15.873   2.950  1.00  0.00    -0.271 N 
HETATM   20  H   UNL     1      40.434 -16.825   3.010  1.00  0.00     0.189 HD
HETATM   21  N   UNL     1      39.352 -15.520   1.883  1.00  0.00    -0.177 NA
HETATM   22  C   UNL     1      39.074 -14.233   2.109  1.00  0.00     0.083 A 
HETATM   23  C   UNL     1      39.623 -13.777   3.331  1.00  0.00     0.094 A 
HETATM   24 CL   UNL     1      39.494 -12.207   3.969  1.00  0.00    -0.079 Cl
BRANCH  22  25
HETATM   25  C   UNL     1      38.266 -13.377   1.137  1.00  0.00     0.041 A 
HETATM   26  C   UNL     1      38.971 -12.804  -0.078  1.00  0.00     0.011 A 
HETATM   27  C   UNL     1      37.996 -13.915  -0.255  1.00  0.00     0.011 A 
ENDBRANCH  22  25
ENDBRANCH   2  18
TORSDOF 5
ENDMDL
MODEL 4
REMARK VINA RESULT:      -8.0      3.852      9.241
REMARK  5 active torsions:
REMARK  status: ('A' for Active; 'I' for Inactive)
REMARK    1  A    between atoms: C_4  and  C_5 
REMARK    2  A    between atoms: C_8  and  C_9 
REMARK    3  A    between atoms: C_9  and  N_10 
REMARK       I    between atoms: N_10  and  C_11 
REMARK    4  A    between atoms: C_11  and  C_12 
REMARK    5  A    between atoms: C_16  and  C_17 
ROOT
HETATM    1  N   UNL     1      41.687 -11.813   7.395  1.00  0.00    -0.348 N 
HETATM    2  C   UNL     1      41.979 -10.660   8.076  1.00  0.00     0.271 C 
HETATM    3  O   UNL     1      42.182  -9.597   7.491  1.00  0.00    -0.266 OA
HETATM    4  H   UNL     1      41.393 -12.637   7.904  1.00  0.00     0.163 HD
ENDROOT
BRANCH   1   5
HETATM    5  C   UNL     1      41.668 -11.878   5.949  1.00  0.00     0.201 C 
BRANCH   5   6
HETATM    6  C   UNL     1      42.328 -13.127   5.481  1.00  0.00     0.122 A 
HETATM    7  N   UNL     1      42.415 -14.239   6.283  1.00  0.00    -0.341 N 
HETATM    8  C   UNL     1      43.037 -15.241   5.579  1.00  0.00     0.061 A 
HETATM    9  H   UNL     1      42.071 -14.287   7.234  1.00  0.00     0.167 HD
HETATM   10  C   UNL     1      43.294 -14.664   4.349  1.00  0.00     0.149 A 
HETATM   11  N   UNL     1      42.865 -13.360   4.302  1.00  0.00    -0.243 NA
BRANCH   8  12
HETATM   12  C   UNL     1      43.289 -16.576   6.109  1.00  0.00    -0.008 A 
HETATM   13  C   UNL     1      43.504 -16.765   7.481  1.00  0.00     0.014 A 
HETATM   14  C   UNL     1      43.755 -18.041   7.994  1.00  0.00     0.001 A 
HETATM   15  C   UNL     1      43.788 -19.141   7.141  1.00  0.00     0.000 A 
HETATM   16  C   UNL     1      43.571 -18.969   5.776  1.00  0.00     0.001 A 
HETATM   17  C   UNL     1      43.325 -17.693   5.263  1.00  0.00     0.014 A 
ENDBRANCH   8  12
ENDBRANCH   5   6
ENDBRANCH   1   5
BRANCH   2  18
HETATM   18  C   UNL     1      42.012 -10.756   9.507  1.00  0.00     0.141 A 
HETATM   19  N   UNL     1      40.858 -10.944  10.222  1.00  0.00    -0.271 N 
HETATM   20  H   UNL     1      39.918 -11.037   9.844  1.00  0.00     0.189 HD
HETATM   21  N   UNL     1      41.027 -10.998  11.551  1.00  0.00    -0.177 NA
HETATM   22  C   UNL     1      42.344 -10.829  11.704  1.00  0.00     0.083 A 
HETATM   23  C   UNL     1      43.008 -10.681  10.462  1.00  0.00     0.094 A 
HETATM   24 CL   UNL     1      44.676 -10.443  10.235  1.00  0.00    -0.079 Cl
BRANCH  22  25
HETATM   25  C   UNL     1      43.022 -10.794  13.071  1.00  0.00     0.041 A 
HETATM   26  C   UNL     1      43.280  -9.444  13.714  1.00  0.00     0.011 A 
HETATM   27  C   UNL     1      42.219 -10.328  14.270  1.00  0.00     0.011 A 
ENDBRANCH  22  25
ENDBRANCH   2  18
TORSDOF 5
ENDMDL
MODEL 5
REMARK VINA RESULT:      -8.0      3.837      8.015
REMARK  5 active torsions:
REMARK  status: ('A' for Active; 'I' for Inactive)
REMARK    1  A    between atoms: C_4  and  C_5 
REMARK    2  A    between atoms: C_8  and  C_9 
REMARK    3  A    between atoms: C_9  and  N_10 
REMARK       I    between atoms: N_10  and  C_11 
REMARK    4  A    between atoms: C_11  and  C_12 
REMARK    5  A    between atoms: C_16  and  C_17 
ROOT
HETATM    1  N   UNL     1      42.587 -14.858   4.432  1.00  0.00    -0.348 N 
HETATM    2  C   UNL     1      43.166 -14.037   3.500  1.00  0.00     0.271 C 
HETATM    3  O   UNL     1      44.298 -13.580   3.654  1.00  0.00    -0.266 OA
HETATM    4  H   UNL     1      41.715 -15.325   4.217  1.00  0.00     0.163 HD
ENDROOT
BRANCH   1   5
HETATM    5  C   UNL     1      43.229 -15.183   5.687  1.00  0.00     0.201 C 
BRANCH   5   6
HETATM    6  C   UNL     1      43.783 -16.562   5.641  1.00  0.00     0.122 A 
HETATM    7  N   UNL     1      43.520 -17.408   4.591  1.00  0.00    -0.341 N 
HETATM    8  C   UNL     1      44.187 -18.590   4.800  1.00  0.00     0.061 A 
HETATM    9  H   UNL     1      42.925 -17.178   3.804  1.00  0.00     0.167 HD
HETATM   10  C   UNL     1      44.845 -18.385   5.998  1.00  0.00     0.149 A 
HETATM   11  N   UNL     1      44.582 -17.139   6.514  1.00  0.00    -0.243 NA
BRANCH   8  12
HETATM   12  C   UNL     1      44.153 -19.722   3.880  1.00  0.00    -0.008 A 
HETATM   13  C   UNL     1      44.718 -20.950   4.247  1.00  0.00     0.014 A 
HETATM   14  C   UNL     1      44.697 -22.036   3.367  1.00  0.00     0.001 A 
HETATM   15  C   UNL     1      44.105 -21.905   2.113  1.00  0.00     0.000 A 
HETATM   16  C   UNL     1      43.535 -20.691   1.737  1.00  0.00     0.001 A 
HETATM   17  C   UNL     1      43.560 -19.605   2.615  1.00  0.00     0.014 A 
ENDBRANCH   8  12
ENDBRANCH   5   6
ENDBRANCH   1   5
BRANCH   2  18
HETATM   18  C   UNL     1      42.392 -13.761   2.324  1.00  0.00     0.141 A 
HETATM   19  N   UNL     1      42.270 -12.479   1.853  1.00  0.00    -0.271 N 
HETATM   20  H   UNL     1      42.690 -11.643   2.252  1.00  0.00     0.189 HD
HETATM   21  N   UNL     1      41.505 -12.357   0.758  1.00  0.00    -0.177 NA
HETATM   22  C   UNL     1      41.109 -13.611   0.515  1.00  0.00     0.083 A 
HETATM   23  C   UNL     1      41.639 -14.527   1.455  1.00  0.00     0.094 A 
HETATM   24 CL   UNL     1      41.366 -16.204   1.489  1.00  0.00    -0.079 Cl
BRANCH  22  25
HETATM   25  C   UNL     1      40.185 -13.978  -0.643  1.00  0.00     0.041 A 
HETATM   26  C   UNL     1      38.686 -13.898  -0.423  1.00  0.00     0.011 A 
HETATM   27  C   UNL     1      39.353 -12.884  -1.285  1.00  0.00     0.011 A 
ENDBRANCH  22  25
ENDBRANCH   2  18
TORSDOF 5
ENDMDL
MODEL 6
REMARK VINA RESULT:      -7.9      5.135      8.517
REMARK  5 active torsions:
REMARK  status: ('A' for Active; 'I' for Inactive)
REMARK    1  A    between atoms: C_4  and  C_5 
REMARK    2  A    between atoms: C_8  and  C_9 
REMARK    3  A    between atoms: C_9  and  N_10 
REMARK       I    between atoms: N_10  and  C_11 
REMARK    4  A    between atoms: C_11  and  C_12 
REMARK    5  A    between atoms: C_16  and  C_17 
ROOT
HETATM    1  N   UNL     1      40.750 -15.345   1.942  1.00  0.00    -0.348 N 
HETATM    2  C   UNL     1      41.224 -14.473   0.998  1.00  0.00     0.271 C 
HETATM    3  O   UNL     1      41.967 -13.539   1.294  1.00  0.00    -0.266 OA
HETATM    4  H   UNL     1      40.254 -16.179   1.653  1.00  0.00     0.163 HD
ENDROOT
BRANCH   1   5
HETATM    5  C   UNL     1      41.028 -15.188   3.354  1.00  0.00     0.201 C 
BRANCH   5   6
HETATM    6  C   UNL     1      42.045 -16.180   3.793  1.00  0.00     0.122 A 
HETATM    7  N   UNL     1      42.168 -17.403   3.180  1.00  0.00    -0.341 N 
HETATM    8  C   UNL     1      43.204 -18.088   3.767  1.00  0.00     0.061 A 
HETATM    9  H   UNL     1      41.578 -17.727   2.423  1.00  0.00     0.167 HD
HETATM   10  C   UNL     1      43.671 -17.210   4.728  1.00  0.00     0.149 A 
HETATM   11  N   UNL     1      42.945 -16.044   4.745  1.00  0.00    -0.243 NA
BRANCH   8  12
HETATM   12  C   UNL     1      43.636 -19.421   3.363  1.00  0.00    -0.008 A 
HETATM   13  C   UNL     1      43.278 -19.931   2.108  1.00  0.00     0.014 A 
HETATM   14  C   UNL     1      43.680 -21.212   1.718  1.00  0.00     0.001 A 
HETATM   15  C   UNL     1      44.451 -21.992   2.576  1.00  0.00     0.000 A 
HETATM   16  C   UNL     1      44.819 -21.495   3.824  1.00  0.00     0.001 A 
HETATM   17  C   UNL     1      44.413 -20.217   4.216  1.00  0.00     0.014 A 
ENDBRANCH   8  12
ENDBRANCH   5   6
ENDBRANCH   1   5
BRANCH   2  18
HETATM   18  C   UNL     1      40.826 -14.723  -0.358  1.00  0.00     0.141 A 
HETATM   19  N   UNL     1      41.573 -15.541  -1.166  1.00  0.00    -0.271 N 
HETATM   20  H   UNL     1      42.426 -16.032  -0.911  1.00  0.00     0.189 HD
HETATM   21  N   UNL     1      41.100 -15.676  -2.414  1.00  0.00    -0.177 NA
HETATM   22  C   UNL     1      40.007 -14.907  -2.416  1.00  0.00     0.083 A 
HETATM   23  C   UNL     1      39.785 -14.295  -1.158  1.00  0.00     0.094 A 
HETATM   24 CL   UNL     1      38.508 -13.246  -0.761  1.00  0.00    -0.079 Cl
BRANCH  22  25
HETATM   25  C   UNL     1      39.128 -14.721  -3.649  1.00  0.00     0.041 A 
HETATM   26  C   UNL     1      38.624 -15.959  -4.369  1.00  0.00     0.011 A 
HETATM   27  C   UNL     1      37.671 -15.136  -3.574  1.00  0.00     0.011 A 
ENDBRANCH  22  25
ENDBRANCH   2  18
TORSDOF 5
ENDMDL
MODEL 7
REMARK VINA RESULT:      -7.9      4.293      7.850
REMARK  5 active torsions:
REMARK  status: ('A' for Active; 'I' for Inactive)
REMARK    1  A    between atoms: C_4  and  C_5 
REMARK    2  A    between atoms: C_8  and  C_9 
REMARK    3  A    between atoms: C_9  and  N_10 
REMARK       I    between atoms: N_10  and  C_11 
REMARK    4  A    between atoms: C_11  and  C_12 
REMARK    5  A    between atoms: C_16  and  C_17 
ROOT
HETATM    1  N   UNL     1      41.741 -14.589   3.022  1.00  0.00    -0.348 N 
HETATM    2  C   UNL     1      40.506 -14.552   2.429  1.00  0.00     0.271 C 
HETATM    3  O   UNL     1      39.469 -14.567   3.091  1.00  0.00    -0.266 OA
HETATM    4  H   UNL     1      42.571 -14.439   2.463  1.00  0.00     0.163 HD
ENDROOT
BRANCH   1   5
HETATM    5  C   UNL     1      41.911 -14.721   4.453  1.00  0.00     0.201 C 
BRANCH   5   6
HETATM    6  C   UNL     1      42.669 -15.961   4.769  1.00  0.00     0.122 A 
HETATM    7  N   UNL     1      42.717 -17.018   3.893  1.00  0.00    -0.341 N 
HETATM    8  C   UNL     1      43.511 -18.000   4.431  1.00  0.00     0.061 A 
HETATM    9  H   UNL     1      42.233 -17.048   3.003  1.00  0.00     0.167 HD
HETATM   10  C   UNL     1      43.921 -17.463   5.638  1.00  0.00     0.149 A 
HETATM   11  N   UNL     1      43.389 -16.214   5.842  1.00  0.00    -0.243 NA
BRANCH   8  12
HETATM   12  C   UNL     1      43.804 -19.268   3.771  1.00  0.00    -0.008 A 
HETATM   13  C   UNL     1      43.350 -19.509   2.468  1.00  0.00     0.014 A 
HETATM   14  C   UNL     1      43.619 -20.725   1.833  1.00  0.00     0.001 A 
HETATM   15  C   UNL     1      44.350 -21.710   2.494  1.00  0.00     0.000 A 
HETATM   16  C   UNL     1      44.812 -21.481   3.788  1.00  0.00     0.001 A 
HETATM   17  C   UNL     1      44.539 -20.268   4.424  1.00  0.00     0.014 A 
ENDBRANCH   8  12
ENDBRANCH   5   6
ENDBRANCH   1   5
BRANCH   2  18
HETATM   18  C   UNL     1      40.488 -14.471   0.996  1.00  0.00     0.141 A 
HETATM   19  N   UNL     1      39.811 -13.462   0.362  1.00  0.00    -0.271 N 
HETATM   20  H   UNL     1      39.289 -12.710   0.803  1.00  0.00     0.189 HD
HETATM   21  N   UNL     1      39.861 -13.513  -0.978  1.00  0.00    -0.177 NA
HETATM   22  C   UNL     1      40.593 -14.605  -1.220  1.00  0.00     0.083 A 
HETATM   23  C   UNL     1      41.017 -15.236  -0.026  1.00  0.00     0.094 A 
HETATM   24 CL   UNL     1      41.959 -16.646   0.087  1.00  0.00    -0.079 Cl
BRANCH  22  25
HETATM   25  C   UNL     1      40.909 -15.094  -2.631  1.00  0.00     0.041 A 
HETATM   26  C   UNL     1      40.042 -16.187  -3.227  1.00  0.00     0.011 A 
HETATM   27  C   UNL     1      39.922 -14.795  -3.743  1.00  0.00     0.011 A 
ENDBRANCH  22  25
ENDBRANCH   2  18
TORSDOF 5
ENDMDL
MODEL 8
REMARK VINA RESULT:      -7.8      5.438      9.071
REMARK  5 active torsions:
REMARK  status: ('A' for Active; 'I' for Inactive)
REMARK    1  A    between atoms: C_4  and  C_5 
REMARK    2  A    between atoms: C_8  and  C_9 
REMARK    3  A    between atoms: C_9  and  N_10 
REMARK       I    between atoms: N_10  and  C_11 
REMARK    4  A    between atoms: C_11  and  C_12 
REMARK    5  A    between atoms: C_16  and  C_17 
ROOT
HETATM    1  N   UNL     1      40.890 -14.719   1.464  1.00  0.00    -0.348 N 
HETATM    2  C   UNL     1      41.282 -15.097   0.206  1.00  0.00     0.271 C 
HETATM    3  O   UNL     1      41.272 -16.275  -0.149  1.00  0.00    -0.266 OA
HETATM    4  H   UNL     1      40.780 -13.737   1.682  1.00  0.00     0.163 HD
ENDROOT
BRANCH   1   5
HETATM    5  C   UNL     1      40.509 -15.677   2.479  1.00  0.00     0.201 C 
BRANCH   5   6
HETATM    6  C   UNL     1      41.703 -16.430   2.951  1.00  0.00     0.122 A 
HETATM    7  N   UNL     1      41.878 -17.760   2.657  1.00  0.00    -0.341 N 
HETATM    8  C   UNL     1      43.074 -18.175   3.188  1.00  0.00     0.061 A 
HETATM    9  H   UNL     1      41.217 -18.323   2.135  1.00  0.00     0.167 HD
HETATM   10  C   UNL     1      43.578 -17.035   3.786  1.00  0.00     0.149 A 
HETATM   11  N   UNL     1      42.723 -15.969   3.645  1.00  0.00    -0.243 NA
BRANCH   8  12
HETATM   12  C   UNL     1      43.599 -19.530   3.060  1.00  0.00    -0.008 A 
HETATM   13  C   UNL     1      43.358 -20.276   1.899  1.00  0.00     0.014 A 
HETATM   14  C   UNL     1      43.850 -21.578   1.773  1.00  0.00     0.001 A 
HETATM   15  C   UNL     1      44.594 -22.145   2.805  1.00  0.00     0.000 A 
HETATM   16  C   UNL     1      44.846 -21.412   3.963  1.00  0.00     0.001 A 
HETATM   17  C   UNL     1      44.350 -20.112   4.090  1.00  0.00     0.014 A 
ENDBRANCH   8  12
ENDBRANCH   5   6
ENDBRANCH   1   5
BRANCH   2  18
HETATM   18  C   UNL     1      41.682 -14.042  -0.681  1.00  0.00     0.141 A 
HETATM   19  N   UNL     1      42.097 -12.833  -0.187  1.00  0.00    -0.271 N 
HETATM   20  H   UNL     1      42.169 -12.570   0.792  1.00  0.00     0.189 HD
HETATM   21  N   UNL     1      42.425 -11.931  -1.124  1.00  0.00    -0.177 NA
HETATM   22  C   UNL     1      42.205 -12.580  -2.271  1.00  0.00     0.083 A 
HETATM   23  C   UNL     1      41.749 -13.903  -2.054  1.00  0.00     0.094 A 
HETATM   24 CL   UNL     1      41.356 -15.041  -3.254  1.00  0.00    -0.079 Cl
BRANCH  22  25
HETATM   25  C   UNL     1      42.421 -11.940  -3.639  1.00  0.00     0.041 A 
HETATM   26  C   UNL     1      41.259 -11.209  -4.285  1.00  0.00     0.011 A 
HETATM   27  C   UNL     1      42.406 -10.427  -3.746  1.00  0.00     0.011 A 
ENDBRANCH  22  25
ENDBRANCH   2  18
TORSDOF 5
ENDMDL
MODEL 9
REMARK VINA RESULT:      -7.7      4.676      7.968
REMARK  5 active torsions:
REMARK  status: ('A' for Active; 'I' for Inactive)
REMARK    1  A    between atoms: C_4  and  C_5 
REMARK    2  A    between atoms: C_8  and  C_9 
REMARK    3  A    between atoms: C_9  and  N_10 
REMARK       I    between atoms: N_10  and  C_11 
REMARK    4  A    between atoms: C_11  and  C_12 
REMARK    5  A    between atoms: C_16  and  C_17 
ROOT
HETATM    1  N   UNL     1      42.924 -15.552   2.911  1.00  0.00    -0.348 N 
HETATM    2  C   UNL     1      43.157 -16.269   4.055  1.00  0.00     0.271 C 
HETATM    3  O   UNL     1      42.964 -15.789   5.171  1.00  0.00    -0.266 OA
HETATM    4  H   UNL     1      42.961 -16.014   2.012  1.00  0.00     0.163 HD
ENDROOT
BRANCH   1   5
HETATM    5  C   UNL     1      42.508 -14.166   2.935  1.00  0.00     0.201 C 
BRANCH   5   6
HETATM    6  C   UNL     1      42.113 -13.723   1.570  1.00  0.00     0.122 A 
HETATM    7  N   UNL     1      41.391 -14.536   0.731  1.00  0.00    -0.341 N 
HETATM    8  C   UNL     1      41.144 -13.856  -0.436  1.00  0.00     0.061 A 
HETATM    9  H   UNL     1      41.102 -15.481   0.956  1.00  0.00     0.167 HD
HETATM   10  C   UNL     1      41.741 -12.626  -0.229  1.00  0.00     0.149 A 
HETATM   11  N   UNL     1      42.345 -12.558   1.003  1.00  0.00    -0.243 NA
BRANCH   8  12
HETATM   12  C   UNL     1      40.387 -14.403  -1.556  1.00  0.00    -0.008 A 
HETATM   13  C   UNL     1      39.116 -13.902  -1.864  1.00  0.00     0.014 A 
HETATM   14  C   UNL     1      38.381 -14.428  -2.931  1.00  0.00     0.001 A 
HETATM   15  C   UNL     1      38.914 -15.456  -3.704  1.00  0.00     0.000 A 
HETATM   16  C   UNL     1      40.179 -15.961  -3.412  1.00  0.00     0.001 A 
HETATM   17  C   UNL     1      40.911 -15.438  -2.343  1.00  0.00     0.014 A 
ENDBRANCH   8  12
ENDBRANCH   5   6
ENDBRANCH   1   5
BRANCH   2  18
HETATM   18  C   UNL     1      43.615 -17.618   3.880  1.00  0.00     0.141 A 
HETATM   19  N   UNL     1      43.919 -18.399   4.965  1.00  0.00    -0.271 N 
HETATM   20  H   UNL     1      43.852 -18.131   5.943  1.00  0.00     0.189 HD
HETATM   21  N   UNL     1      44.352 -19.632   4.661  1.00  0.00    -0.177 NA
HETATM   22  C   UNL     1      44.335 -19.646   3.325  1.00  0.00     0.083 A 
HETATM   23  C   UNL     1      43.876 -18.420   2.786  1.00  0.00     0.094 A 
HETATM   24 CL   UNL     1      43.715 -18.043   1.136  1.00  0.00    -0.079 Cl
BRANCH  22  25
HETATM   25  C   UNL     1      44.774 -20.855   2.504  1.00  0.00     0.041 A 
HETATM   26  C   UNL     1      44.340 -22.235   2.964  1.00  0.00     0.011 A 
HETATM   27  C   UNL     1      43.722 -21.642   1.746  1.00  0.00     0.011 A 
ENDBRANCH  22  25
ENDBRANCH   2  18
TORSDOF 5
ENDMDL
MODEL 10
REMARK VINA RESULT:      -7.5      3.234      9.754
REMARK  5 active torsions:
REMARK  status: ('A' for Active; 'I' for Inactive)
REMARK    1  A    between atoms: C_4  and  C_5 
REMARK    2  A    between atoms: C_8  and  C_9 
REMARK    3  A    between atoms: C_9  and  N_10 
REMARK       I    between atoms: N_10  and  C_11 
REMARK    4  A    between atoms: C_11  and  C_12 
REMARK    5  A    between atoms: C_16  and  C_17 
ROOT
HETATM    1  N   UNL     1      42.091 -12.099   7.234  1.00  0.00    -0.348 N 
HETATM    2  C   UNL     1      42.069 -10.780   7.605  1.00  0.00     0.271 C 
HETATM    3  O   UNL     1      41.928  -9.879   6.780  1.00  0.00    -0.266 OA
HETATM    4  H   UNL     1      42.071 -12.821   7.944  1.00  0.00     0.163 HD
ENDROOT
BRANCH   1   5
HETATM    5  C   UNL     1      42.025 -12.519   5.851  1.00  0.00     0.201 C 
BRANCH   5   6
HETATM    6  C   UNL     1      42.631 -13.868   5.693  1.00  0.00     0.122 A 
HETATM    7  N   UNL     1      42.529 -14.569   4.516  1.00  0.00    -0.341 N 
HETATM    8  C   UNL     1      43.208 -15.755   4.649  1.00  0.00     0.061 A 
HETATM    9  H   UNL     1      42.026 -14.246   3.698  1.00  0.00     0.167 HD
HETATM   10  C   UNL     1      43.707 -15.701   5.938  1.00  0.00     0.149 A 
HETATM   11  N   UNL     1      43.338 -14.542   6.576  1.00  0.00    -0.243 NA
BRANCH   8  12
HETATM   12  C   UNL     1      43.327 -16.753   3.592  1.00  0.00    -0.008 A 
HETATM   13  C   UNL     1      43.134 -18.111   3.874  1.00  0.00     0.014 A 
HETATM   14  C   UNL     1      43.256 -19.073   2.867  1.00  0.00     0.001 A 
HETATM   15  C   UNL     1      43.567 -18.684   1.566  1.00  0.00     0.000 A 
HETATM   16  C   UNL     1      43.757 -17.337   1.270  1.00  0.00     0.001 A 
HETATM   17  C   UNL     1      43.639 -16.376   2.278  1.00  0.00     0.014 A 
ENDBRANCH   8  12
ENDBRANCH   5   6
ENDBRANCH   1   5
BRANCH   2  18
HETATM   18  C   UNL     1      42.194 -10.509   9.009  1.00  0.00     0.141 A 
HETATM   19  N   UNL     1      41.132 -10.016   9.722  1.00  0.00    -0.271 N 
HETATM   20  H   UNL     1      40.203  -9.810   9.364  1.00  0.00     0.189 HD
HETATM   21  N   UNL     1      41.388  -9.792  11.020  1.00  0.00    -0.177 NA
HETATM   22  C   UNL     1      42.671 -10.145  11.148  1.00  0.00     0.083 A 
HETATM   23  C   UNL     1      43.220 -10.607   9.928  1.00  0.00     0.094 A 
HETATM   24 CL   UNL     1      44.815 -11.141   9.681  1.00  0.00    -0.079 Cl
BRANCH  22  25
HETATM   25  C   UNL     1      43.430 -10.041  12.469  1.00  0.00     0.041 A 
HETATM   26  C   UNL     1      43.023  -8.959  13.451  1.00  0.00     0.011 A 
HETATM   27  C   UNL     1      42.702 -10.381  13.755  1.00  0.00     0.011 A 
ENDBRANCH  22  25
ENDBRANCH   2  18
TORSDOF 5
ENDMDL
