MODEL 1
REMARK VINA RESULT:      -7.7      0.000      0.000
REMARK  10 active torsions:
REMARK  status: ('A' for Active; 'I' for Inactive)
REMARK    1  A    between atoms: C_6  and  C_7 
REMARK    2  A    between atoms: C_7  and  C_8 
REMARK       I    between atoms: C_8  and  N_9 
REMARK    3  A    between atoms: N_9  and  C_10 
REMARK    4  A    between atoms: C_10  and  C_11 
REMARK    5  A    between atoms: C_11  and  N_12 
REMARK    6  A    between atoms: C_17  and  C_18 
REMARK    7  A    between atoms: C_27  and  C_28 
REMARK    8  A    between atoms: C_28  and  O_29 
REMARK    9  A    between atoms: O_29  and  C_30 
REMARK   10  A    between atoms: C_30  and  C_31 
ROOT
HETATM    1  C   UNL     1      40.255 -14.452   6.197  1.00  0.00     0.071 C 
HETATM    2  C   UNL     1      40.739 -14.653   4.785  1.00  0.00     0.048 C 
HETATM    3  N   UNL     1      39.748 -15.068   3.892  1.00  0.00    -0.229 NA
HETATM    4  C   UNL     1      39.929 -14.734   2.659  1.00  0.00     0.170 C 
HETATM    5  N   UNL     1      41.234 -14.062   2.158  1.00  0.00    -0.318 N 
HETATM    6  C   UNL     1      40.952 -13.112   1.335  1.00  0.00     0.011 C 
HETATM    7  C   UNL     1      42.395 -14.522   2.937  1.00  0.00     0.169 C 
HETATM    8  S   UNL     1      38.701 -14.638   1.449  1.00  0.00    -0.086 SA
HETATM    9  C   UNL     1      39.571 -13.201   0.705  1.00  0.00     0.135 C 
HETATM   10  C   UNL     1      41.983 -14.343   4.362  1.00  0.00     0.069 C 
ENDROOT
BRANCH   6  11
HETATM   11  C   UNL     1      41.886 -11.952   1.140  1.00  0.00     0.156 C 
BRANCH  11  12
HETATM   12  C   UNL     1      42.386 -11.897  -0.294  1.00  0.00     0.223 C 
HETATM   13  N   UNL     1      41.824 -12.775  -1.182  1.00  0.00    -0.359 N 
HETATM   14  H   UNL     1      41.066 -13.394  -0.890  1.00  0.00     0.162 HD
HETATM   15  O   UNL     1      43.315 -11.158  -0.614  1.00  0.00    -0.273 OA
BRANCH  13  16
HETATM   16  C   UNL     1      42.399 -13.049  -2.508  1.00  0.00     0.150 C 
BRANCH  16  17
HETATM   17  C   UNL     1      41.464 -13.734  -3.536  1.00  0.00     0.253 C 
BRANCH  17  18
HETATM   18  N   UNL     1      40.307 -14.471  -2.889  1.00  0.00    -0.077 N 
HETATM   19  H   UNL     1      40.395 -14.336  -1.862  1.00  0.00     0.279 HD
HETATM   20  C   UNL     1      38.952 -13.927  -3.251  1.00  0.00     0.269 C 
HETATM   21  C   UNL     1      40.371 -15.954  -3.133  1.00  0.00     0.269 C 
ENDBRANCH  17  18
ENDBRANCH  16  17
ENDBRANCH  13  16
ENDBRANCH  11  12
ENDBRANCH   6  11
BRANCH   7  22
HETATM   22  C   UNL     1      42.807 -15.932   2.507  1.00  0.00     0.008 A 
HETATM   23  C   UNL     1      42.813 -16.345   1.162  1.00  0.00     0.125 A 
HETATM   24  F   UNL     1      42.424 -15.508   0.194  1.00  0.00    -0.205 F 
HETATM   25  C   UNL     1      43.222 -17.620   0.781  1.00  0.00     0.043 A 
HETATM   26  C   UNL     1      43.620 -18.536   1.747  1.00  0.00     0.003 A 
HETATM   27  C   UNL     1      43.589 -18.176   3.091  1.00  0.00     0.001 A 
HETATM   28  C   UNL     1      43.176 -16.894   3.472  1.00  0.00     0.013 A 
ENDBRANCH   7  22
BRANCH  10  29
HETATM   29  C   UNL     1      42.901 -13.452   5.080  1.00  0.00     0.294 C 
HETATM   30  O   UNL     1      42.692 -12.243   5.039  1.00  0.00    -0.259 OA
BRANCH  29  31
HETATM   31  O   UNL     1      44.014 -14.110   5.429  1.00  0.00    -0.313 OA
BRANCH  31  32
HETATM   32  C   UNL     1      44.059 -14.585   6.784  1.00  0.00     0.217 C 
BRANCH  32  33
HETATM   33  C   UNL     1      44.021 -16.084   6.831  1.00  0.00    -0.034 A 
HETATM   34  C   UNL     1      45.148 -16.827   6.458  1.00  0.00     0.009 A 
HETATM   35  C   UNL     1      45.131 -18.219   6.534  1.00  0.00     0.001 A 
HETATM   36  C   UNL     1      43.987 -18.881   6.977  1.00  0.00     0.000 A 
HETATM   37  C   UNL     1      42.856 -18.151   7.340  1.00  0.00     0.001 A 
HETATM   38  C   UNL     1      42.871 -16.758   7.265  1.00  0.00     0.009 A 
ENDBRANCH  32  33
ENDBRANCH  31  32
ENDBRANCH  29  31
ENDBRANCH  10  29
TORSDOF 10
ENDMDL
MODEL 2
REMARK VINA RESULT:      -7.7      2.218      5.221
REMARK  10 active torsions:
REMARK  status: ('A' for Active; 'I' for Inactive)
REMARK    1  A    between atoms: C_6  and  C_7 
REMARK    2  A    between atoms: C_7  and  C_8 
REMARK       I    between atoms: C_8  and  N_9 
REMARK    3  A    between atoms: N_9  and  C_10 
REMARK    4  A    between atoms: C_10  and  C_11 
REMARK    5  A    between atoms: C_11  and  N_12 
REMARK    6  A    between atoms: C_17  and  C_18 
REMARK    7  A    between atoms: C_27  and  C_28 
REMARK    8  A    between atoms: C_28  and  O_29 
REMARK    9  A    between atoms: O_29  and  C_30 
REMARK   10  A    between atoms: C_30  and  C_31 
ROOT
HETATM    1  C   UNL     1      40.226 -17.049   2.704  1.00  0.00     0.071 C 
HETATM    2  C   UNL     1      40.328 -15.827   1.827  1.00  0.00     0.048 C 
HETATM    3  N   UNL     1      39.096 -15.297   1.438  1.00  0.00    -0.229 NA
HETATM    4  C   UNL     1      39.083 -14.030   1.191  1.00  0.00     0.170 C 
HETATM    5  N   UNL     1      40.375 -13.172   1.163  1.00  0.00    -0.318 N 
HETATM    6  C   UNL     1      40.169 -12.046   1.755  1.00  0.00     0.011 C 
HETATM    7  C   UNL     1      41.524 -13.965   0.697  1.00  0.00     0.169 C 
HETATM    8  S   UNL     1      37.687 -13.014   1.196  1.00  0.00    -0.086 SA
HETATM    9  C   UNL     1      38.707 -11.645   1.873  1.00  0.00     0.135 C 
HETATM   10  C   UNL     1      41.487 -15.202   1.536  1.00  0.00     0.069 C 
ENDROOT
BRANCH   6  11
HETATM   11  C   UNL     1      41.298 -11.284   2.385  1.00  0.00     0.156 C 
BRANCH  11  12
HETATM   12  C   UNL     1      41.332 -11.512   3.887  1.00  0.00     0.223 C 
HETATM   13  N   UNL     1      42.300 -12.354   4.366  1.00  0.00    -0.359 N 
HETATM   14  H   UNL     1      42.994 -12.758   3.735  1.00  0.00     0.162 HD
HETATM   15  O   UNL     1      40.471 -11.030   4.622  1.00  0.00    -0.273 OA
BRANCH  13  16
HETATM   16  C   UNL     1      42.278 -12.904   5.730  1.00  0.00     0.150 C 
BRANCH  16  17
HETATM   17  C   UNL     1      42.260 -14.449   5.850  1.00  0.00     0.253 C 
BRANCH  17  18
HETATM   18  N   UNL     1      40.896 -15.000   6.220  1.00  0.00    -0.077 N 
HETATM   19  H   UNL     1      40.670 -14.644   7.170  1.00  0.00     0.279 HD
HETATM   20  C   UNL     1      39.779 -14.522   5.335  1.00  0.00     0.269 C 
HETATM   21  C   UNL     1      40.899 -16.502   6.316  1.00  0.00     0.269 C 
ENDBRANCH  17  18
ENDBRANCH  16  17
ENDBRANCH  13  16
ENDBRANCH  11  12
ENDBRANCH   6  11
BRANCH   7  22
HETATM   22  C   UNL     1      41.467 -14.156  -0.820  1.00  0.00     0.008 A 
HETATM   23  C   UNL     1      41.738 -13.117  -1.728  1.00  0.00     0.125 A 
HETATM   24  F   UNL     1      42.037 -11.890  -1.285  1.00  0.00    -0.205 F 
HETATM   25  C   UNL     1      41.715 -13.312  -3.106  1.00  0.00     0.043 A 
HETATM   26  C   UNL     1      41.396 -14.562  -3.622  1.00  0.00     0.003 A 
HETATM   27  C   UNL     1      41.081 -15.605  -2.755  1.00  0.00     0.001 A 
HETATM   28  C   UNL     1      41.103 -15.405  -1.370  1.00  0.00     0.013 A 
ENDBRANCH   7  22
BRANCH  10  29
HETATM   29  C   UNL     1      42.732 -15.375   2.293  1.00  0.00     0.294 C 
HETATM   30  O   UNL     1      43.315 -14.372   2.695  1.00  0.00    -0.259 OA
BRANCH  29  31
HETATM   31  O   UNL     1      43.188 -16.628   2.163  1.00  0.00    -0.313 OA
BRANCH  31  32
HETATM   32  C   UNL     1      43.623 -17.263   3.376  1.00  0.00     0.217 C 
BRANCH  32  33
HETATM   33  C   UNL     1      43.843 -18.732   3.165  1.00  0.00    -0.034 A 
HETATM   34  C   UNL     1      43.373 -19.353   2.000  1.00  0.00     0.009 A 
HETATM   35  C   UNL     1      43.606 -20.710   1.781  1.00  0.00     0.001 A 
HETATM   36  C   UNL     1      44.305 -21.459   2.726  1.00  0.00     0.000 A 
HETATM   37  C   UNL     1      44.768 -20.854   3.893  1.00  0.00     0.001 A 
HETATM   38  C   UNL     1      44.536 -19.496   4.114  1.00  0.00     0.009 A 
ENDBRANCH  32  33
ENDBRANCH  31  32
ENDBRANCH  29  31
ENDBRANCH  10  29
TORSDOF 10
ENDMDL
MODEL 3
REMARK VINA RESULT:      -7.6      2.953      5.048
REMARK  10 active torsions:
REMARK  status: ('A' for Active; 'I' for Inactive)
REMARK    1  A    between atoms: C_6  and  C_7 
REMARK    2  A    between atoms: C_7  and  C_8 
REMARK       I    between atoms: C_8  and  N_9 
REMARK    3  A    between atoms: N_9  and  C_10 
REMARK    4  A    between atoms: C_10  and  C_11 
REMARK    5  A    between atoms: C_11  and  N_12 
REMARK    6  A    between atoms: C_17  and  C_18 
REMARK    7  A    between atoms: C_27  and  C_28 
REMARK    8  A    between atoms: C_28  and  O_29 
REMARK    9  A    between atoms: O_29  and  C_30 
REMARK   10  A    between atoms: C_30  and  C_31 
ROOT
HETATM    1  C   UNL     1      42.770 -12.092  -1.404  1.00  0.00     0.071 C 
HETATM    2  C   UNL     1      42.063 -12.192  -0.077  1.00  0.00     0.048 C 
HETATM    3  N   UNL     1      42.004 -10.992   0.634  1.00  0.00    -0.229 NA
HETATM    4  C   UNL     1      41.003 -10.865   1.438  1.00  0.00     0.170 C 
HETATM    5  N   UNL     1      40.015 -12.024   1.732  1.00  0.00    -0.318 N 
HETATM    6  C   UNL     1      38.806 -11.578   1.751  1.00  0.00     0.011 C 
HETATM    7  C   UNL     1      40.695 -13.327   1.660  1.00  0.00     0.169 C 
HETATM    8  S   UNL     1      40.377  -9.374   2.044  1.00  0.00    -0.086 SA
HETATM    9  C   UNL     1      38.682 -10.079   1.979  1.00  0.00     0.135 C 
HETATM   10  C   UNL     1      41.420 -13.298   0.354  1.00  0.00     0.069 C 
ENDROOT
BRANCH   6  11
HETATM   11  C   UNL     1      37.644 -12.474   1.436  1.00  0.00     0.156 C 
BRANCH  11  12
HETATM   12  C   UNL     1      37.019 -12.099   0.102  1.00  0.00     0.223 C 
HETATM   13  N   UNL     1      37.640 -12.564  -1.027  1.00  0.00    -0.359 N 
HETATM   14  H   UNL     1      38.452 -13.179  -0.956  1.00  0.00     0.162 HD
HETATM   15  O   UNL     1      36.054 -11.340   0.044  1.00  0.00    -0.273 OA
BRANCH  13  16
HETATM   16  C   UNL     1      37.341 -12.051  -2.373  1.00  0.00     0.150 C 
BRANCH  16  17
HETATM   17  C   UNL     1      38.171 -12.648  -3.537  1.00  0.00     0.253 C 
BRANCH  17  18
HETATM   18  N   UNL     1      37.435 -13.735  -4.296  1.00  0.00    -0.077 N 
HETATM   19  H   UNL     1      37.933 -13.868  -5.199  1.00  0.00     0.279 HD
HETATM   20  C   UNL     1      37.457 -15.079  -3.621  1.00  0.00     0.269 C 
HETATM   21  C   UNL     1      36.026 -13.332  -4.640  1.00  0.00     0.269 C 
ENDBRANCH  17  18
ENDBRANCH  16  17
ENDBRANCH  13  16
ENDBRANCH  11  12
ENDBRANCH   6  11
BRANCH   7  22
HETATM   22  C   UNL     1      41.540 -13.562   2.915  1.00  0.00     0.008 A 
HETATM   23  C   UNL     1      40.980 -13.663   4.201  1.00  0.00     0.125 A 
HETATM   24  F   UNL     1      39.661 -13.527   4.378  1.00  0.00    -0.205 F 
HETATM   25  C   UNL     1      41.756 -13.911   5.330  1.00  0.00     0.043 A 
HETATM   26  C   UNL     1      43.133 -14.045   5.206  1.00  0.00     0.003 A 
HETATM   27  C   UNL     1      43.728 -13.910   3.955  1.00  0.00     0.001 A 
HETATM   28  C   UNL     1      42.946 -13.660   2.822  1.00  0.00     0.013 A 
ENDBRANCH   7  22
BRANCH  10  29
HETATM   29  C   UNL     1      41.000 -14.402  -0.518  1.00  0.00     0.294 C 
HETATM   30  O   UNL     1      39.868 -14.375  -0.990  1.00  0.00    -0.259 OA
BRANCH  29  31
HETATM   31  O   UNL     1      41.853 -15.430  -0.413  1.00  0.00    -0.313 OA
BRANCH  31  32
HETATM   32  C   UNL     1      41.306 -16.641   0.132  1.00  0.00     0.217 C 
BRANCH  32  33
HETATM   33  C   UNL     1      41.924 -16.960   1.461  1.00  0.00    -0.034 A 
HETATM   34  C   UNL     1      41.117 -17.075   2.601  1.00  0.00     0.009 A 
HETATM   35  C   UNL     1      41.680 -17.407   3.832  1.00  0.00     0.001 A 
HETATM   36  C   UNL     1      43.053 -17.621   3.938  1.00  0.00     0.000 A 
HETATM   37  C   UNL     1      43.867 -17.499   2.812  1.00  0.00     0.001 A 
HETATM   38  C   UNL     1      43.305 -17.167   1.579  1.00  0.00     0.009 A 
ENDBRANCH  32  33
ENDBRANCH  31  32
ENDBRANCH  29  31
ENDBRANCH  10  29
TORSDOF 10
ENDMDL
MODEL 4
REMARK VINA RESULT:      -7.6      1.819      3.768
REMARK  10 active torsions:
REMARK  status: ('A' for Active; 'I' for Inactive)
REMARK    1  A    between atoms: C_6  and  C_7 
REMARK    2  A    between atoms: C_7  and  C_8 
REMARK       I    between atoms: C_8  and  N_9 
REMARK    3  A    between atoms: N_9  and  C_10 
REMARK    4  A    between atoms: C_10  and  C_11 
REMARK    5  A    between atoms: C_11  and  N_12 
REMARK    6  A    between atoms: C_17  and  C_18 
REMARK    7  A    between atoms: C_27  and  C_28 
REMARK    8  A    between atoms: C_28  and  O_29 
REMARK    9  A    between atoms: O_29  and  C_30 
REMARK   10  A    between atoms: C_30  and  C_31 
ROOT
HETATM    1  C   UNL     1      40.256 -14.247   6.081  1.00  0.00     0.071 C 
HETATM    2  C   UNL     1      40.725 -14.612   4.696  1.00  0.00     0.048 C 
HETATM    3  N   UNL     1      39.715 -15.077   3.852  1.00  0.00    -0.229 NA
HETATM    4  C   UNL     1      39.902 -14.879   2.591  1.00  0.00     0.170 C 
HETATM    5  N   UNL     1      41.229 -14.313   2.022  1.00  0.00    -0.318 N 
HETATM    6  C   UNL     1      40.979 -13.442   1.105  1.00  0.00     0.011 C 
HETATM    7  C   UNL     1      42.376 -14.734   2.843  1.00  0.00     0.169 C 
HETATM    8  S   UNL     1      38.672 -14.861   1.378  1.00  0.00    -0.086 SA
HETATM    9  C   UNL     1      39.592 -13.543   0.490  1.00  0.00     0.135 C 
HETATM   10  C   UNL     1      41.978 -14.395   4.242  1.00  0.00     0.069 C 
ENDROOT
BRANCH   6  11
HETATM   11  C   UNL     1      41.955 -12.346   0.791  1.00  0.00     0.156 C 
BRANCH  11  12
HETATM   12  C   UNL     1      41.368 -10.987   1.133  1.00  0.00     0.223 C 
HETATM   13  N   UNL     1      41.269 -10.669   2.461  1.00  0.00    -0.359 N 
HETATM   14  H   UNL     1      41.628 -11.305   3.175  1.00  0.00     0.162 HD
HETATM   15  O   UNL     1      40.923 -10.248   0.255  1.00  0.00    -0.273 OA
BRANCH  13  16
HETATM   16  C   UNL     1      40.463  -9.542   2.955  1.00  0.00     0.150 C 
BRANCH  16  17
HETATM   17  C   UNL     1      39.780  -9.736   4.333  1.00  0.00     0.253 C 
BRANCH  17  18
HETATM   18  N   UNL     1      40.764 -10.027   5.449  1.00  0.00    -0.077 N 
HETATM   19  H   UNL     1      41.425 -10.746   5.093  1.00  0.00     0.279 HD
HETATM   20  C   UNL     1      41.619  -8.852   5.837  1.00  0.00     0.269 C 
HETATM   21  C   UNL     1      40.093 -10.623   6.656  1.00  0.00     0.269 C 
ENDBRANCH  17  18
ENDBRANCH  16  17
ENDBRANCH  13  16
ENDBRANCH  11  12
ENDBRANCH   6  11
BRANCH   7  22
HETATM   22  C   UNL     1      42.731 -16.196   2.560  1.00  0.00     0.008 A 
HETATM   23  C   UNL     1      42.923 -16.694   1.258  1.00  0.00     0.125 A 
HETATM   24  F   UNL     1      42.771 -15.893   0.197  1.00  0.00    -0.205 F 
HETATM   25  C   UNL     1      43.280 -18.017   1.016  1.00  0.00     0.043 A 
HETATM   26  C   UNL     1      43.435 -18.897   2.080  1.00  0.00     0.003 A 
HETATM   27  C   UNL     1      43.214 -18.451   3.380  1.00  0.00     0.001 A 
HETATM   28  C   UNL     1      42.854 -17.120   3.621  1.00  0.00     0.013 A 
ENDBRANCH   7  22
BRANCH  10  29
HETATM   29  C   UNL     1      42.932 -13.469   4.864  1.00  0.00     0.294 C 
HETATM   30  O   UNL     1      42.757 -12.264   4.716  1.00  0.00    -0.259 OA
BRANCH  29  31
HETATM   31  O   UNL     1      44.031 -14.127   5.256  1.00  0.00    -0.313 OA
BRANCH  31  32
HETATM   32  C   UNL     1      44.077 -14.493   6.644  1.00  0.00     0.217 C 
BRANCH  32  33
HETATM   33  C   UNL     1      44.042 -15.984   6.809  1.00  0.00    -0.034 A 
HETATM   34  C   UNL     1      42.892 -16.608   7.311  1.00  0.00     0.009 A 
HETATM   35  C   UNL     1      42.839 -17.996   7.433  1.00  0.00     0.001 A 
HETATM   36  C   UNL     1      43.935 -18.772   7.061  1.00  0.00     0.000 A 
HETATM   37  C   UNL     1      45.088 -18.161   6.571  1.00  0.00     0.001 A 
HETATM   38  C   UNL     1      45.143 -16.772   6.448  1.00  0.00     0.009 A 
ENDBRANCH  32  33
ENDBRANCH  31  32
ENDBRANCH  29  31
ENDBRANCH  10  29
TORSDOF 10
ENDMDL
MODEL 5
REMARK VINA RESULT:      -7.6      3.863      6.184
REMARK  10 active torsions:
REMARK  status: ('A' for Active; 'I' for Inactive)
REMARK    1  A    between atoms: C_6  and  C_7 
REMARK    2  A    between atoms: C_7  and  C_8 
REMARK       I    between atoms: C_8  and  N_9 
REMARK    3  A    between atoms: N_9  and  C_10 
REMARK    4  A    between atoms: C_10  and  C_11 
REMARK    5  A    between atoms: C_11  and  N_12 
REMARK    6  A    between atoms: C_17  and  C_18 
REMARK    7  A    between atoms: C_27  and  C_28 
REMARK    8  A    between atoms: C_28  and  O_29 
REMARK    9  A    between atoms: O_29  and  C_30 
REMARK   10  A    between atoms: C_30  and  C_31 
ROOT
HETATM    1  C   UNL     1      42.743 -12.109  -1.498  1.00  0.00     0.071 C 
HETATM    2  C   UNL     1      42.032 -12.228  -0.174  1.00  0.00     0.048 C 
HETATM    3  N   UNL     1      41.992 -11.042   0.563  1.00  0.00    -0.229 NA
HETATM    4  C   UNL     1      40.992 -10.917   1.368  1.00  0.00     0.170 C 
HETATM    5  N   UNL     1      39.984 -12.065   1.634  1.00  0.00    -0.318 N 
HETATM    6  C   UNL     1      38.782 -11.599   1.661  1.00  0.00     0.011 C 
HETATM    7  C   UNL     1      40.642 -13.378   1.535  1.00  0.00     0.169 C 
HETATM    8  S   UNL     1      40.389  -9.429   2.006  1.00  0.00    -0.086 SA
HETATM    9  C   UNL     1      38.683 -10.104   1.922  1.00  0.00     0.135 C 
HETATM   10  C   UNL     1      41.370 -13.332   0.230  1.00  0.00     0.069 C 
ENDROOT
BRANCH   6  11
HETATM   11  C   UNL     1      37.606 -12.469   1.324  1.00  0.00     0.156 C 
BRANCH  11  12
HETATM   12  C   UNL     1      36.605 -11.713   0.466  1.00  0.00     0.223 C 
HETATM   13  N   UNL     1      35.425 -11.353   1.060  1.00  0.00    -0.359 N 
HETATM   14  H   UNL     1      35.264 -11.542   2.050  1.00  0.00     0.162 HD
HETATM   15  O   UNL     1      36.814 -11.517  -0.730  1.00  0.00    -0.273 OA
BRANCH  13  16
HETATM   16  C   UNL     1      34.254 -10.893   0.297  1.00  0.00     0.150 C 
BRANCH  16  17
HETATM   17  C   UNL     1      33.132 -10.199   1.111  1.00  0.00     0.253 C 
BRANCH  17  18
HETATM   18  N   UNL     1      33.130 -10.592   2.576  1.00  0.00    -0.077 N 
HETATM   19  H   UNL     1      33.931 -11.238   2.720  1.00  0.00     0.279 HD
HETATM   20  C   UNL     1      33.363  -9.444   3.520  1.00  0.00     0.269 C 
HETATM   21  C   UNL     1      31.891 -11.355   2.956  1.00  0.00     0.269 C 
ENDBRANCH  17  18
ENDBRANCH  16  17
ENDBRANCH  13  16
ENDBRANCH  11  12
ENDBRANCH   6  11
BRANCH   7  22
HETATM   22  C   UNL     1      41.481 -13.655   2.785  1.00  0.00     0.008 A 
HETATM   23  C   UNL     1      40.910 -13.831   4.059  1.00  0.00     0.125 A 
HETATM   24  F   UNL     1      39.587 -13.733   4.229  1.00  0.00    -0.205 F 
HETATM   25  C   UNL     1      41.682 -14.116   5.183  1.00  0.00     0.043 A 
HETATM   26  C   UNL     1      43.062 -14.213   5.067  1.00  0.00     0.003 A 
HETATM   27  C   UNL     1      43.666 -14.004   3.830  1.00  0.00     0.001 A 
HETATM   28  C   UNL     1      42.889 -13.716   2.702  1.00  0.00     0.013 A 
ENDBRANCH   7  22
BRANCH  10  29
HETATM   29  C   UNL     1      40.934 -14.409  -0.667  1.00  0.00     0.294 C 
HETATM   30  O   UNL     1      39.820 -14.330  -1.175  1.00  0.00    -0.259 OA
BRANCH  29  31
HETATM   31  O   UNL     1      41.739 -15.472  -0.545  1.00  0.00    -0.313 OA
BRANCH  31  32
HETATM   32  C   UNL     1      41.165 -16.621   0.097  1.00  0.00     0.217 C 
BRANCH  32  33
HETATM   33  C   UNL     1      41.952 -17.007   1.315  1.00  0.00    -0.034 A 
HETATM   34  C   UNL     1      41.300 -17.208   2.538  1.00  0.00     0.009 A 
HETATM   35  C   UNL     1      42.021 -17.603   3.665  1.00  0.00     0.001 A 
HETATM   36  C   UNL     1      43.399 -17.793   3.580  1.00  0.00     0.000 A 
HETATM   37  C   UNL     1      44.059 -17.585   2.371  1.00  0.00     0.001 A 
HETATM   38  C   UNL     1      43.340 -17.191   1.242  1.00  0.00     0.009 A 
ENDBRANCH  32  33
ENDBRANCH  31  32
ENDBRANCH  29  31
ENDBRANCH  10  29
TORSDOF 10
ENDMDL
MODEL 6
REMARK VINA RESULT:      -7.4      2.746      5.082
REMARK  10 active torsions:
REMARK  status: ('A' for Active; 'I' for Inactive)
REMARK    1  A    between atoms: C_6  and  C_7 
REMARK    2  A    between atoms: C_7  and  C_8 
REMARK       I    between atoms: C_8  and  N_9 
REMARK    3  A    between atoms: N_9  and  C_10 
REMARK    4  A    between atoms: C_10  and  C_11 
REMARK    5  A    between atoms: C_11  and  N_12 
REMARK    6  A    between atoms: C_17  and  C_18 
REMARK    7  A    between atoms: C_27  and  C_28 
REMARK    8  A    between atoms: C_28  and  O_29 
REMARK    9  A    between atoms: O_29  and  C_30 
REMARK   10  A    between atoms: C_30  and  C_31 
ROOT
HETATM    1  C   UNL     1      43.189 -13.623   3.510  1.00  0.00     0.071 C 
HETATM    2  C   UNL     1      42.167 -13.420   2.422  1.00  0.00     0.048 C 
HETATM    3  N   UNL     1      42.473 -12.387   1.533  1.00  0.00    -0.229 NA
HETATM    4  C   UNL     1      41.993 -12.511   0.343  1.00  0.00     0.170 C 
HETATM    5  N   UNL     1      41.003 -13.640  -0.046  1.00  0.00    -0.318 N 
HETATM    6  C   UNL     1      41.316 -14.124  -1.198  1.00  0.00     0.011 C 
HETATM    7  C   UNL     1      40.149 -14.007   1.096  1.00  0.00     0.169 C 
HETATM    8  S   UNL     1      42.585 -11.719  -1.073  1.00  0.00    -0.086 SA
HETATM    9  C   UNL     1      42.179 -13.214  -2.059  1.00  0.00     0.135 C 
HETATM   10  C   UNL     1      41.107 -14.231   2.221  1.00  0.00     0.069 C 
ENDROOT
BRANCH   6  11
HETATM   11  C   UNL     1      40.952 -15.531  -1.573  1.00  0.00     0.156 C 
BRANCH  11  12
HETATM   12  C   UNL     1      40.166 -15.557  -2.873  1.00  0.00     0.223 C 
HETATM   13  N   UNL     1      38.855 -15.165  -2.815  1.00  0.00    -0.359 N 
HETATM   14  H   UNL     1      38.455 -14.821  -1.940  1.00  0.00     0.162 HD
HETATM   15  O   UNL     1      40.665 -15.995  -3.909  1.00  0.00    -0.273 OA
BRANCH  13  16
HETATM   16  C   UNL     1      37.896 -15.415  -3.902  1.00  0.00     0.150 C 
BRANCH  16  17
HETATM   17  C   UNL     1      36.630 -14.523  -3.922  1.00  0.00     0.253 C 
BRANCH  17  18
HETATM   18  N   UNL     1      36.857 -13.181  -4.592  1.00  0.00    -0.077 N 
HETATM   19  H   UNL     1      37.692 -13.283  -5.203  1.00  0.00     0.279 HD
HETATM   20  C   UNL     1      35.741 -12.753  -5.505  1.00  0.00     0.269 C 
HETATM   21  C   UNL     1      37.182 -12.099  -3.599  1.00  0.00     0.269 C 
ENDBRANCH  17  18
ENDBRANCH  16  17
ENDBRANCH  13  16
ENDBRANCH  11  12
ENDBRANCH   6  11
BRANCH   7  22
HETATM   22  C   UNL     1      39.060 -12.954   1.314  1.00  0.00     0.008 A 
HETATM   23  C   UNL     1      37.938 -12.836   0.474  1.00  0.00     0.125 A 
HETATM   24  F   UNL     1      37.796 -13.641  -0.585  1.00  0.00    -0.205 F 
HETATM   25  C   UNL     1      36.937 -11.895   0.703  1.00  0.00     0.043 A 
HETATM   26  C   UNL     1      37.041 -11.023   1.779  1.00  0.00     0.003 A 
HETATM   27  C   UNL     1      38.157 -11.083   2.609  1.00  0.00     0.001 A 
HETATM   28  C   UNL     1      39.163 -12.029   2.376  1.00  0.00     0.013 A 
ENDBRANCH   7  22
BRANCH  10  29
HETATM   29  C   UNL     1      40.993 -15.590   2.762  1.00  0.00     0.294 C 
HETATM   30  O   UNL     1      40.866 -15.726   3.975  1.00  0.00    -0.259 OA
BRANCH  29  31
HETATM   31  O   UNL     1      41.349 -16.492   1.838  1.00  0.00    -0.313 OA
BRANCH  31  32
HETATM   32  C   UNL     1      42.761 -16.640   1.622  1.00  0.00     0.217 C 
BRANCH  32  33
HETATM   33  C   UNL     1      43.295 -17.839   2.349  1.00  0.00    -0.034 A 
HETATM   34  C   UNL     1      43.421 -19.066   1.684  1.00  0.00     0.009 A 
HETATM   35  C   UNL     1      43.949 -20.175   2.343  1.00  0.00     0.001 A 
HETATM   36  C   UNL     1      44.351 -20.070   3.674  1.00  0.00     0.000 A 
HETATM   37  C   UNL     1      44.219 -18.858   4.349  1.00  0.00     0.001 A 
HETATM   38  C   UNL     1      43.691 -17.747   3.690  1.00  0.00     0.009 A 
ENDBRANCH  32  33
ENDBRANCH  31  32
ENDBRANCH  29  31
ENDBRANCH  10  29
TORSDOF 10
ENDMDL
MODEL 7
REMARK VINA RESULT:      -7.4      2.674      4.432
REMARK  10 active torsions:
REMARK  status: ('A' for Active; 'I' for Inactive)
REMARK    1  A    between atoms: C_6  and  C_7 
REMARK    2  A    between atoms: C_7  and  C_8 
REMARK       I    between atoms: C_8  and  N_9 
REMARK    3  A    between atoms: N_9  and  C_10 
REMARK    4  A    between atoms: C_10  and  C_11 
REMARK    5  A    between atoms: C_11  and  N_12 
REMARK    6  A    between atoms: C_17  and  C_18 
REMARK    7  A    between atoms: C_27  and  C_28 
REMARK    8  A    between atoms: C_28  and  O_29 
REMARK    9  A    between atoms: O_29  and  C_30 
REMARK   10  A    between atoms: C_30  and  C_31 
ROOT
HETATM    1  C   UNL     1      43.641 -15.388   2.541  1.00  0.00     0.071 C 
HETATM    2  C   UNL     1      42.526 -14.382   2.658  1.00  0.00     0.048 C 
HETATM    3  N   UNL     1      42.837 -13.119   2.148  1.00  0.00    -0.229 NA
HETATM    4  C   UNL     1      41.837 -12.427   1.718  1.00  0.00     0.170 C 
HETATM    5  N   UNL     1      40.365 -12.881   1.899  1.00  0.00    -0.318 N 
HETATM    6  C   UNL     1      39.700 -12.663   0.817  1.00  0.00     0.011 C 
HETATM    7  C   UNL     1      40.201 -13.650   3.144  1.00  0.00     0.169 C 
HETATM    8  S   UNL     1      41.925 -11.110   0.603  1.00  0.00    -0.086 SA
HETATM    9  C   UNL     1      40.318 -11.633  -0.115  1.00  0.00     0.135 C 
HETATM   10  C   UNL     1      41.283 -14.679   3.092  1.00  0.00     0.069 C 
ENDROOT
BRANCH   6  11
HETATM   11  C   UNL     1      38.486 -13.478   0.476  1.00  0.00     0.156 C 
BRANCH  11  12
HETATM   12  C   UNL     1      38.486 -13.855  -0.996  1.00  0.00     0.223 C 
HETATM   13  N   UNL     1      39.464 -14.717  -1.416  1.00  0.00    -0.359 N 
HETATM   14  H   UNL     1      40.122 -15.121  -0.747  1.00  0.00     0.162 HD
HETATM   15  O   UNL     1      37.697 -13.338  -1.785  1.00  0.00    -0.273 OA
BRANCH  13  16
HETATM   16  C   UNL     1      39.778 -14.940  -2.836  1.00  0.00     0.150 C 
BRANCH  16  17
HETATM   17  C   UNL     1      41.277 -14.889  -3.226  1.00  0.00     0.253 C 
BRANCH  17  18
HETATM   18  N   UNL     1      41.743 -13.499  -3.616  1.00  0.00    -0.077 N 
HETATM   19  H   UNL     1      42.208 -13.581  -4.542  1.00  0.00     0.279 HD
HETATM   20  C   UNL     1      40.627 -12.509  -3.812  1.00  0.00     0.269 C 
HETATM   21  C   UNL     1      42.776 -12.959  -2.665  1.00  0.00     0.269 C 
ENDBRANCH  17  18
ENDBRANCH  16  17
ENDBRANCH  13  16
ENDBRANCH  11  12
ENDBRANCH   6  11
BRANCH   7  22
HETATM   22  C   UNL     1      40.194 -12.714   4.356  1.00  0.00     0.008 A 
HETATM   23  C   UNL     1      39.210 -11.728   4.549  1.00  0.00     0.125 A 
HETATM   24  F   UNL     1      38.240 -11.552   3.645  1.00  0.00    -0.205 F 
HETATM   25  C   UNL     1      39.196 -10.906   5.673  1.00  0.00     0.043 A 
HETATM   26  C   UNL     1      40.189 -11.035   6.636  1.00  0.00     0.003 A 
HETATM   27  C   UNL     1      41.203 -11.972   6.459  1.00  0.00     0.001 A 
HETATM   28  C   UNL     1      41.216 -12.796   5.327  1.00  0.00     0.013 A 
ENDBRANCH   7  22
BRANCH  10  29
HETATM   29  C   UNL     1      40.734 -16.039   3.157  1.00  0.00     0.294 C 
HETATM   30  O   UNL     1      40.049 -16.437   2.220  1.00  0.00    -0.259 OA
BRANCH  29  31
HETATM   31  O   UNL     1      40.839 -16.525   4.400  1.00  0.00    -0.313 OA
BRANCH  31  32
HETATM   32  C   UNL     1      41.375 -17.853   4.509  1.00  0.00     0.217 C 
BRANCH  32  33
HETATM   33  C   UNL     1      42.720 -17.838   5.173  1.00  0.00    -0.034 A 
HETATM   34  C   UNL     1      43.073 -16.779   6.019  1.00  0.00     0.009 A 
HETATM   35  C   UNL     1      44.307 -16.777   6.669  1.00  0.00     0.001 A 
HETATM   36  C   UNL     1      45.200 -17.829   6.474  1.00  0.00     0.000 A 
HETATM   37  C   UNL     1      44.863 -18.882   5.626  1.00  0.00     0.001 A 
HETATM   38  C   UNL     1      43.629 -18.887   4.976  1.00  0.00     0.009 A 
ENDBRANCH  32  33
ENDBRANCH  31  32
ENDBRANCH  29  31
ENDBRANCH  10  29
TORSDOF 10
ENDMDL
MODEL 8
REMARK VINA RESULT:      -7.3      1.196      1.577
REMARK  10 active torsions:
REMARK  status: ('A' for Active; 'I' for Inactive)
REMARK    1  A    between atoms: C_6  and  C_7 
REMARK    2  A    between atoms: C_7  and  C_8 
REMARK       I    between atoms: C_8  and  N_9 
REMARK    3  A    between atoms: N_9  and  C_10 
REMARK    4  A    between atoms: C_10  and  C_11 
REMARK    5  A    between atoms: C_11  and  N_12 
REMARK    6  A    between atoms: C_17  and  C_18 
REMARK    7  A    between atoms: C_27  and  C_28 
REMARK    8  A    between atoms: C_28  and  O_29 
REMARK    9  A    between atoms: O_29  and  C_30 
REMARK   10  A    between atoms: C_30  and  C_31 
ROOT
HETATM    1  C   UNL     1      40.554 -14.322   6.256  1.00  0.00     0.071 C 
HETATM    2  C   UNL     1      40.944 -14.751   4.865  1.00  0.00     0.048 C 
HETATM    3  N   UNL     1      39.870 -15.141   4.063  1.00  0.00    -0.229 NA
HETATM    4  C   UNL     1      40.032 -14.983   2.793  1.00  0.00     0.170 C 
HETATM    5  N   UNL     1      41.384 -14.547   2.171  1.00  0.00    -0.318 N 
HETATM    6  C   UNL     1      41.183 -13.674   1.245  1.00  0.00     0.011 C 
HETATM    7  C   UNL     1      42.517 -15.053   2.965  1.00  0.00     0.169 C 
HETATM    8  S   UNL     1      38.770 -14.878   1.618  1.00  0.00    -0.086 SA
HETATM    9  C   UNL     1      39.773 -13.663   0.674  1.00  0.00     0.135 C 
HETATM   10  C   UNL     1      42.195 -14.654   4.368  1.00  0.00     0.069 C 
ENDROOT
BRANCH   6  11
HETATM   11  C   UNL     1      42.240 -12.674   0.878  1.00  0.00     0.156 C 
BRANCH  11  12
HETATM   12  C   UNL     1      42.113 -12.264  -0.580  1.00  0.00     0.223 C 
HETATM   13  N   UNL     1      42.401 -13.217  -1.520  1.00  0.00    -0.359 N 
HETATM   14  H   UNL     1      42.636 -14.171  -1.237  1.00  0.00     0.162 HD
HETATM   15  O   UNL     1      41.850 -11.105  -0.894  1.00  0.00    -0.273 OA
BRANCH  13  16
HETATM   16  C   UNL     1      42.615 -12.901  -2.941  1.00  0.00     0.150 C 
BRANCH  16  17
HETATM   17  C   UNL     1      41.353 -12.532  -3.761  1.00  0.00     0.253 C 
BRANCH  17  18
HETATM   18  N   UNL     1      41.183 -11.037  -3.952  1.00  0.00    -0.077 N 
HETATM   19  H   UNL     1      40.836 -10.652  -3.052  1.00  0.00     0.279 HD
HETATM   20  C   UNL     1      42.466 -10.305  -4.235  1.00  0.00     0.269 C 
HETATM   21  C   UNL     1      40.142 -10.712  -4.988  1.00  0.00     0.269 C 
ENDBRANCH  17  18
ENDBRANCH  16  17
ENDBRANCH  13  16
ENDBRANCH  11  12
ENDBRANCH   6  11
BRANCH   7  22
HETATM   22  C   UNL     1      42.733 -16.545   2.701  1.00  0.00     0.008 A 
HETATM   23  C   UNL     1      42.917 -17.070   1.409  1.00  0.00     0.125 A 
HETATM   24  F   UNL     1      42.880 -16.268   0.340  1.00  0.00    -0.205 F 
HETATM   25  C   UNL     1      43.146 -18.425   1.186  1.00  0.00     0.043 A 
HETATM   26  C   UNL     1      43.178 -19.307   2.259  1.00  0.00     0.003 A 
HETATM   27  C   UNL     1      42.960 -18.830   3.549  1.00  0.00     0.001 A 
HETATM   28  C   UNL     1      42.728 -17.467   3.771  1.00  0.00     0.013 A 
ENDBRANCH   7  22
BRANCH  10  29
HETATM   29  C   UNL     1      43.248 -13.806   4.940  1.00  0.00     0.294 C 
HETATM   30  O   UNL     1      44.040 -13.264   4.176  1.00  0.00    -0.259 OA
BRANCH  29  31
HETATM   31  O   UNL     1      43.342 -14.007   6.261  1.00  0.00    -0.313 OA
BRANCH  31  32
HETATM   32  C   UNL     1      44.522 -14.696   6.705  1.00  0.00     0.217 C 
BRANCH  32  33
HETATM   33  C   UNL     1      44.264 -16.167   6.848  1.00  0.00    -0.034 A 
HETATM   34  C   UNL     1      45.218 -17.093   6.406  1.00  0.00     0.009 A 
HETATM   35  C   UNL     1      45.000 -18.461   6.569  1.00  0.00     0.001 A 
HETATM   36  C   UNL     1      43.826 -18.915   7.168  1.00  0.00     0.000 A 
HETATM   37  C   UNL     1      42.866 -18.002   7.601  1.00  0.00     0.001 A 
HETATM   38  C   UNL     1      43.082 -16.633   7.439  1.00  0.00     0.009 A 
ENDBRANCH  32  33
ENDBRANCH  31  32
ENDBRANCH  29  31
ENDBRANCH  10  29
TORSDOF 10
ENDMDL
MODEL 9
REMARK VINA RESULT:      -7.0      3.001      7.393
REMARK  10 active torsions:
REMARK  status: ('A' for Active; 'I' for Inactive)
REMARK    1  A    between atoms: C_6  and  C_7 
REMARK    2  A    between atoms: C_7  and  C_8 
REMARK       I    between atoms: C_8  and  N_9 
REMARK    3  A    between atoms: N_9  and  C_10 
REMARK    4  A    between atoms: C_10  and  C_11 
REMARK    5  A    between atoms: C_11  and  N_12 
REMARK    6  A    between atoms: C_17  and  C_18 
REMARK    7  A    between atoms: C_27  and  C_28 
REMARK    8  A    between atoms: C_28  and  O_29 
REMARK    9  A    between atoms: O_29  and  C_30 
REMARK   10  A    between atoms: C_30  and  C_31 
ROOT
HETATM    1  C   UNL     1      42.305 -12.127   0.783  1.00  0.00     0.071 C 
HETATM    2  C   UNL     1      42.266 -13.301   1.727  1.00  0.00     0.048 C 
HETATM    3  N   UNL     1      43.320 -13.335   2.643  1.00  0.00    -0.229 NA
HETATM    4  C   UNL     1      43.071 -13.929   3.761  1.00  0.00     0.170 C 
HETATM    5  N   UNL     1      41.752 -14.702   4.022  1.00  0.00    -0.318 N 
HETATM    6  C   UNL     1      41.317 -14.445   5.208  1.00  0.00     0.011 C 
HETATM    7  C   UNL     1      41.240 -15.304   2.780  1.00  0.00     0.169 C 
HETATM    8  S   UNL     1      43.936 -13.703   5.239  1.00  0.00    -0.086 SA
HETATM    9  C   UNL     1      42.367 -13.910   6.170  1.00  0.00     0.135 C 
HETATM   10  C   UNL     1      41.247 -14.184   1.792  1.00  0.00     0.069 C 
ENDROOT
BRANCH   6  11
HETATM   11  C   UNL     1      39.857 -14.551   5.539  1.00  0.00     0.156 C 
BRANCH  11  12
HETATM   12  C   UNL     1      39.209 -13.177   5.566  1.00  0.00     0.223 C 
HETATM   13  N   UNL     1      39.195 -12.474   4.392  1.00  0.00    -0.359 N 
HETATM   14  H   UNL     1      39.559 -12.890   3.533  1.00  0.00     0.162 HD
HETATM   15  O   UNL     1      38.797 -12.690   6.618  1.00  0.00    -0.273 OA
BRANCH  13  16
HETATM   16  C   UNL     1      38.882 -11.037   4.323  1.00  0.00     0.150 C 
BRANCH  16  17
HETATM   17  C   UNL     1      39.986 -10.068   4.813  1.00  0.00     0.253 C 
BRANCH  17  18
HETATM   18  N   UNL     1      40.060  -9.966   6.325  1.00  0.00    -0.077 N 
HETATM   19  H   UNL     1      39.514 -10.761   6.712  1.00  0.00     0.279 HD
HETATM   20  C   UNL     1      41.448 -10.121   6.884  1.00  0.00     0.269 C 
HETATM   21  C   UNL     1      39.412  -8.710   6.841  1.00  0.00     0.269 C 
ENDBRANCH  17  18
ENDBRANCH  16  17
ENDBRANCH  13  16
ENDBRANCH  11  12
ENDBRANCH   6  11
BRANCH   7  22
HETATM   22  C   UNL     1      42.048 -16.553   2.416  1.00  0.00     0.008 A 
HETATM   23  C   UNL     1      42.091 -17.696   3.236  1.00  0.00     0.125 A 
HETATM   24  F   UNL     1      41.434 -17.720   4.401  1.00  0.00    -0.205 F 
HETATM   25  C   UNL     1      42.802 -18.837   2.877  1.00  0.00     0.043 A 
HETATM   26  C   UNL     1      43.516 -18.862   1.685  1.00  0.00     0.003 A 
HETATM   27  C   UNL     1      43.530 -17.735   0.868  1.00  0.00     0.001 A 
HETATM   28  C   UNL     1      42.815 -16.587   1.231  1.00  0.00     0.013 A 
ENDBRANCH   7  22
BRANCH  10  29
HETATM   29  C   UNL     1      39.907 -13.939   1.246  1.00  0.00     0.294 C 
HETATM   30  O   UNL     1      38.936 -14.336   1.884  1.00  0.00    -0.259 OA
BRANCH  29  31
HETATM   31  O   UNL     1      39.986 -13.569  -0.039  1.00  0.00    -0.313 OA
BRANCH  31  32
HETATM   32  C   UNL     1      38.743 -13.539  -0.758  1.00  0.00     0.217 C 
BRANCH  32  33
HETATM   33  C   UNL     1      38.810 -14.402  -1.984  1.00  0.00    -0.034 A 
HETATM   34  C   UNL     1      37.688 -14.529  -2.814  1.00  0.00     0.009 A 
HETATM   35  C   UNL     1      37.755 -15.300  -3.975  1.00  0.00     0.001 A 
HETATM   36  C   UNL     1      38.938 -15.953  -4.312  1.00  0.00     0.000 A 
HETATM   37  C   UNL     1      40.057 -15.842  -3.488  1.00  0.00     0.001 A 
HETATM   38  C   UNL     1      39.993 -15.071  -2.326  1.00  0.00     0.009 A 
ENDBRANCH  32  33
ENDBRANCH  31  32
ENDBRANCH  29  31
ENDBRANCH  10  29
TORSDOF 10
ENDMDL
MODEL 10
REMARK VINA RESULT:      -7.0      1.594      2.657
REMARK  10 active torsions:
REMARK  status: ('A' for Active; 'I' for Inactive)
REMARK    1  A    between atoms: C_6  and  C_7 
REMARK    2  A    between atoms: C_7  and  C_8 
REMARK       I    between atoms: C_8  and  N_9 
REMARK    3  A    between atoms: N_9  and  C_10 
REMARK    4  A    between atoms: C_10  and  C_11 
REMARK    5  A    between atoms: C_11  and  N_12 
REMARK    6  A    between atoms: C_17  and  C_18 
REMARK    7  A    between atoms: C_27  and  C_28 
REMARK    8  A    between atoms: C_28  and  O_29 
REMARK    9  A    between atoms: O_29  and  C_30 
REMARK   10  A    between atoms: C_30  and  C_31 
ROOT
HETATM    1  C   UNL     1      40.492 -14.450   6.308  1.00  0.00     0.071 C 
HETATM    2  C   UNL     1      40.956 -14.760   4.908  1.00  0.00     0.048 C 
HETATM    3  N   UNL     1      39.955 -15.253   4.068  1.00  0.00    -0.229 NA
HETATM    4  C   UNL     1      40.112 -15.017   2.810  1.00  0.00     0.170 C 
HETATM    5  N   UNL     1      41.402 -14.377   2.235  1.00  0.00    -0.318 N 
HETATM    6  C   UNL     1      41.098 -13.498   1.343  1.00  0.00     0.011 C 
HETATM    7  C   UNL     1      42.581 -14.763   3.028  1.00  0.00     0.169 C 
HETATM    8  S   UNL     1      38.864 -15.029   1.616  1.00  0.00    -0.086 SA
HETATM    9  C   UNL     1      39.708 -13.650   0.745  1.00  0.00     0.135 C 
HETATM   10  C   UNL     1      42.189 -14.474   4.441  1.00  0.00     0.069 C 
ENDROOT
BRANCH   6  11
HETATM   11  C   UNL     1      42.017 -12.350   1.040  1.00  0.00     0.156 C 
BRANCH  11  12
HETATM   12  C   UNL     1      41.858 -11.897  -0.402  1.00  0.00     0.223 C 
HETATM   13  N   UNL     1      42.467 -12.659  -1.363  1.00  0.00    -0.359 N 
HETATM   14  H   UNL     1      42.955 -13.520  -1.110  1.00  0.00     0.162 HD
HETATM   15  O   UNL     1      41.283 -10.845  -0.677  1.00  0.00    -0.273 OA
BRANCH  13  16
HETATM   16  C   UNL     1      42.657 -12.198  -2.747  1.00  0.00     0.150 C 
BRANCH  16  17
HETATM   17  C   UNL     1      41.579 -12.633  -3.772  1.00  0.00     0.253 C 
BRANCH  17  18
HETATM   18  N   UNL     1      40.170 -12.566  -3.216  1.00  0.00    -0.077 N 
HETATM   19  H   UNL     1      40.251 -12.366  -2.200  1.00  0.00     0.279 HD
HETATM   20  C   UNL     1      39.339 -11.447  -3.781  1.00  0.00     0.269 C 
HETATM   21  C   UNL     1      39.450 -13.882  -3.338  1.00  0.00     0.269 C 
ENDBRANCH  17  18
ENDBRANCH  16  17
ENDBRANCH  13  16
ENDBRANCH  11  12
ENDBRANCH   6  11
BRANCH   7  22
HETATM   22  C   UNL     1      42.999 -16.199   2.705  1.00  0.00     0.008 A 
HETATM   23  C   UNL     1      43.039 -16.703   1.392  1.00  0.00     0.125 A 
HETATM   24  F   UNL     1      42.678 -15.933   0.360  1.00  0.00    -0.205 F 
HETATM   25  C   UNL     1      43.454 -18.002   1.109  1.00  0.00     0.043 A 
HETATM   26  C   UNL     1      43.824 -18.850   2.145  1.00  0.00     0.003 A 
HETATM   27  C   UNL     1      43.759 -18.400   3.461  1.00  0.00     0.001 A 
HETATM   28  C   UNL     1      43.340 -17.095   3.743  1.00  0.00     0.013 A 
ENDBRANCH   7  22
BRANCH  10  29
HETATM   29  C   UNL     1      43.110 -13.520   5.070  1.00  0.00     0.294 C 
HETATM   30  O   UNL     1      42.876 -12.321   4.955  1.00  0.00    -0.259 OA
BRANCH  29  31
HETATM   31  O   UNL     1      44.246 -14.134   5.427  1.00  0.00    -0.313 OA
BRANCH  31  32
HETATM   32  C   UNL     1      44.355 -14.485   6.815  1.00  0.00     0.217 C 
BRANCH  32  33
HETATM   33  C   UNL     1      45.002 -13.382   7.601  1.00  0.00    -0.034 A 
HETATM   34  C   UNL     1      44.331 -12.808   8.689  1.00  0.00     0.009 A 
HETATM   35  C   UNL     1      44.941 -11.808   9.445  1.00  0.00     0.001 A 
HETATM   36  C   UNL     1      46.222 -11.369   9.118  1.00  0.00     0.000 A 
HETATM   37  C   UNL     1      46.895 -11.926   8.031  1.00  0.00     0.001 A 
HETATM   38  C   UNL     1      46.286 -12.927   7.273  1.00  0.00     0.009 A 
ENDBRANCH  32  33
ENDBRANCH  31  32
ENDBRANCH  29  31
ENDBRANCH  10  29
TORSDOF 10
ENDMDL
