MODEL 1
REMARK VINA RESULT:      -8.5      0.000      0.000
REMARK  6 active torsions:
REMARK  status: ('A' for Active; 'I' for Inactive)
REMARK    1  A    between atoms: C_8  and  N_9 
REMARK       I    between atoms: N_9  and  C_10 
REMARK    2  A    between atoms: C_10  and  C_11 
REMARK    3  A    between atoms: C_11  and  N_12 
REMARK    4  A    between atoms: N_12  and  C_13 
REMARK    5  A    between atoms: C_13  and  C_14 
REMARK    6  A    between atoms: C_15  and  C_16 
ROOT
HETATM    1  N   UNL     1      41.815 -18.076   1.782  1.00  0.00     0.100 N 
HETATM    2  H   UNL     1      41.787 -18.749   1.009  1.00  0.00     0.317 HD
ENDROOT
BRANCH   1   3
HETATM    3  C   UNL     1      41.363 -16.783   1.233  1.00  0.00     0.372 C 
BRANCH   3   4
HETATM    4  C   UNL     1      40.424 -16.031   2.191  1.00  0.00     0.250 C 
HETATM    5  N   UNL     1      41.080 -15.628   3.338  1.00  0.00    -0.322 N 
HETATM    6  H   UNL     1      42.051 -15.898   3.437  1.00  0.00     0.169 HD
HETATM    7  O   UNL     1      39.241 -15.859   1.918  1.00  0.00    -0.271 OA
BRANCH   5   8
HETATM    8  C   UNL     1      40.562 -14.906   4.401  1.00  0.00     0.085 A 
HETATM    9  C   UNL     1      40.556 -15.424   5.684  1.00  0.00     0.052 A 
HETATM   10  C   UNL     1      41.018 -16.715   6.247  1.00  0.00     0.072 C 
HETATM   11  N   UNL     1      39.980 -14.469   6.470  1.00  0.00    -0.280 N 
HETATM   12  H   UNL     1      39.801 -14.503   7.469  1.00  0.00     0.189 HD
HETATM   13  N   UNL     1      39.623 -13.368   5.808  1.00  0.00    -0.177 NA
HETATM   14  C   UNL     1      39.969 -13.616   4.535  1.00  0.00     0.079 A 
HETATM   15  C   UNL     1      39.707 -12.559   3.526  1.00  0.00     0.075 C 
ENDBRANCH   5   8
ENDBRANCH   3   4
ENDBRANCH   1   3
BRANCH   1  16
HETATM   16  C   UNL     1      43.187 -18.053   2.302  1.00  0.00     0.250 C 
HETATM   17  C   UNL     1      44.136 -17.432   1.270  1.00  0.00     0.048 C 
BRANCH  16  18
HETATM   18  C   UNL     1      43.707 -19.412   2.760  1.00  0.00    -0.011 A 
HETATM   19  C   UNL     1      44.230 -19.692   4.047  1.00  0.00     0.056 A 
HETATM   20  C   UNL     1      44.683 -21.003   4.320  1.00  0.00     0.017 A 
HETATM   21  C   UNL     1      44.604 -22.020   3.367  1.00  0.00     0.001 A 
HETATM   22  C   UNL     1      44.076 -21.748   2.115  1.00  0.00     0.001 A 
HETATM   23  C   UNL     1      43.633 -20.461   1.815  1.00  0.00     0.010 A 
BRANCH  19  24
HETATM   24  C   UNL     1      44.391 -18.659   5.151  1.00  0.00     0.418 C 
HETATM   25  F   UNL     1      44.031 -17.393   4.816  1.00  0.00    -0.166 F 
HETATM   26  F   UNL     1      43.615 -18.952   6.243  1.00  0.00    -0.166 F 
HETATM   27  F   UNL     1      45.662 -18.603   5.644  1.00  0.00    -0.166 F 
ENDBRANCH  19  24
ENDBRANCH  16  18
ENDBRANCH   1  16
TORSDOF 6
ENDMDL
MODEL 2
REMARK VINA RESULT:      -8.0      2.554      3.581
REMARK  6 active torsions:
REMARK  status: ('A' for Active; 'I' for Inactive)
REMARK    1  A    between atoms: C_8  and  N_9 
REMARK       I    between atoms: N_9  and  C_10 
REMARK    2  A    between atoms: C_10  and  C_11 
REMARK    3  A    between atoms: C_11  and  N_12 
REMARK    4  A    between atoms: N_12  and  C_13 
REMARK    5  A    between atoms: C_13  and  C_14 
REMARK    6  A    between atoms: C_15  and  C_16 
ROOT
HETATM    1  N   UNL     1      41.967 -17.713   2.739  1.00  0.00     0.100 N 
HETATM    2  H   UNL     1      41.510 -18.578   3.046  1.00  0.00     0.317 HD
ENDROOT
BRANCH   1   3
HETATM    3  C   UNL     1      41.370 -17.361   1.435  1.00  0.00     0.372 C 
BRANCH   3   4
HETATM    4  C   UNL     1      40.719 -15.969   1.441  1.00  0.00     0.250 C 
HETATM    5  N   UNL     1      40.523 -15.489   0.160  1.00  0.00    -0.322 N 
HETATM    6  H   UNL     1      40.854 -16.062  -0.605  1.00  0.00     0.169 HD
HETATM    7  O   UNL     1      40.447 -15.398   2.493  1.00  0.00    -0.271 OA
BRANCH   5   8
HETATM    8  C   UNL     1      39.938 -14.291  -0.215  1.00  0.00     0.085 A 
HETATM    9  C   UNL     1      40.614 -13.381  -1.008  1.00  0.00     0.052 A 
HETATM   10  C   UNL     1      41.970 -13.386  -1.608  1.00  0.00     0.072 C 
HETATM   11  N   UNL     1      39.762 -12.329  -1.180  1.00  0.00    -0.280 N 
HETATM   12  H   UNL     1      39.921 -11.471  -1.700  1.00  0.00     0.189 HD
HETATM   13  N   UNL     1      38.584 -12.485  -0.575  1.00  0.00    -0.177 NA
HETATM   14  C   UNL     1      38.671 -13.682   0.025  1.00  0.00     0.079 A 
HETATM   15  C   UNL     1      37.493 -14.162   0.790  1.00  0.00     0.075 C 
ENDBRANCH   5   8
ENDBRANCH   3   4
ENDBRANCH   1   3
BRANCH   1  16
HETATM   16  C   UNL     1      43.411 -17.967   2.682  1.00  0.00     0.250 C 
HETATM   17  C   UNL     1      43.994 -17.427   1.370  1.00  0.00     0.048 C 
BRANCH  16  18
HETATM   18  C   UNL     1      43.798 -19.430   2.878  1.00  0.00    -0.011 A 
HETATM   19  C   UNL     1      44.206 -20.006   4.106  1.00  0.00     0.056 A 
HETATM   20  C   UNL     1      44.543 -21.379   4.128  1.00  0.00     0.017 A 
HETATM   21  C   UNL     1      44.459 -22.174   2.985  1.00  0.00     0.001 A 
HETATM   22  C   UNL     1      44.042 -21.612   1.788  1.00  0.00     0.001 A 
HETATM   23  C   UNL     1      43.716 -20.259   1.735  1.00  0.00     0.010 A 
BRANCH  19  24
HETATM   24  C   UNL     1      44.363 -19.233   5.406  1.00  0.00     0.418 C 
HETATM   25  F   UNL     1      43.334 -18.402   5.713  1.00  0.00    -0.166 F 
HETATM   26  F   UNL     1      44.457 -20.068   6.490  1.00  0.00    -0.166 F 
HETATM   27  F   UNL     1      45.509 -18.493   5.449  1.00  0.00    -0.166 F 
ENDBRANCH  19  24
ENDBRANCH  16  18
ENDBRANCH   1  16
TORSDOF 6
ENDMDL
MODEL 3
REMARK VINA RESULT:      -7.9      1.964      2.561
REMARK  6 active torsions:
REMARK  status: ('A' for Active; 'I' for Inactive)
REMARK    1  A    between atoms: C_8  and  N_9 
REMARK       I    between atoms: N_9  and  C_10 
REMARK    2  A    between atoms: C_10  and  C_11 
REMARK    3  A    between atoms: C_11  and  N_12 
REMARK    4  A    between atoms: N_12  and  C_13 
REMARK    5  A    between atoms: C_13  and  C_14 
REMARK    6  A    between atoms: C_15  and  C_16 
ROOT
HETATM    1  N   UNL     1      42.146 -17.876   2.973  1.00  0.00     0.100 N 
HETATM    2  H   UNL     1      41.570 -18.582   2.502  1.00  0.00     0.317 HD
ENDROOT
BRANCH   1   3
HETATM    3  C   UNL     1      41.712 -16.564   2.455  1.00  0.00     0.372 C 
BRANCH   3   4
HETATM    4  C   UNL     1      42.394 -15.390   3.178  1.00  0.00     0.250 C 
HETATM    5  N   UNL     1      42.071 -15.358   4.521  1.00  0.00    -0.322 N 
HETATM    6  H   UNL     1      41.416 -16.053   4.857  1.00  0.00     0.169 HD
HETATM    7  O   UNL     1      43.113 -14.601   2.573  1.00  0.00    -0.271 OA
BRANCH   5   8
HETATM    8  C   UNL     1      42.521 -14.465   5.479  1.00  0.00     0.085 A 
HETATM    9  C   UNL     1      41.881 -13.257   5.690  1.00  0.00     0.052 A 
HETATM   10  C   UNL     1      40.703 -12.622   5.054  1.00  0.00     0.072 C 
HETATM   11  N   UNL     1      42.577 -12.634   6.685  1.00  0.00    -0.280 N 
HETATM   12  H   UNL     1      42.401 -11.723   7.098  1.00  0.00     0.189 HD
HETATM   13  N   UNL     1      43.608 -13.342   7.147  1.00  0.00    -0.177 NA
HETATM   14  C   UNL     1      43.594 -14.469   6.419  1.00  0.00     0.079 A 
HETATM   15  C   UNL     1      44.631 -15.492   6.703  1.00  0.00     0.075 C 
ENDBRANCH   5   8
ENDBRANCH   3   4
ENDBRANCH   1   3
BRANCH   1  16
HETATM   16  C   UNL     1      43.552 -18.190   2.692  1.00  0.00     0.250 C 
HETATM   17  C   UNL     1      43.910 -17.784   1.257  1.00  0.00     0.048 C 
BRANCH  16  18
HETATM   18  C   UNL     1      43.933 -19.645   2.948  1.00  0.00    -0.011 A 
HETATM   19  C   UNL     1      44.331 -20.173   4.201  1.00  0.00     0.056 A 
HETATM   20  C   UNL     1      44.663 -21.545   4.279  1.00  0.00     0.017 A 
HETATM   21  C   UNL     1      44.584 -22.384   3.167  1.00  0.00     0.001 A 
HETATM   22  C   UNL     1      44.176 -21.869   1.947  1.00  0.00     0.001 A 
HETATM   23  C   UNL     1      43.855 -20.517   1.838  1.00  0.00     0.010 A 
BRANCH  19  24
HETATM   24  C   UNL     1      44.482 -19.350   5.470  1.00  0.00     0.418 C 
HETATM   25  F   UNL     1      45.575 -18.544   5.510  1.00  0.00    -0.166 F 
HETATM   26  F   UNL     1      43.426 -18.495   5.654  1.00  0.00    -0.166 F 
HETATM   27  F   UNL     1      44.499 -20.114   6.600  1.00  0.00    -0.166 F 
ENDBRANCH  19  24
ENDBRANCH  16  18
ENDBRANCH   1  16
TORSDOF 6
ENDMDL
MODEL 4
REMARK VINA RESULT:      -7.8      1.714      2.278
REMARK  6 active torsions:
REMARK  status: ('A' for Active; 'I' for Inactive)
REMARK    1  A    between atoms: C_8  and  N_9 
REMARK       I    between atoms: N_9  and  C_10 
REMARK    2  A    between atoms: C_10  and  C_11 
REMARK    3  A    between atoms: C_11  and  N_12 
REMARK    4  A    between atoms: N_12  and  C_13 
REMARK    5  A    between atoms: C_13  and  C_14 
REMARK    6  A    between atoms: C_15  and  C_16 
ROOT
HETATM    1  N   UNL     1      41.894 -18.040   2.048  1.00  0.00     0.100 N 
HETATM    2  H   UNL     1      41.876 -17.629   1.109  1.00  0.00     0.317 HD
ENDROOT
BRANCH   1   3
HETATM    3  C   UNL     1      41.082 -17.158   2.910  1.00  0.00     0.372 C 
BRANCH   3   4
HETATM    4  C   UNL     1      40.725 -15.829   2.225  1.00  0.00     0.250 C 
HETATM    5  N   UNL     1      39.783 -15.120   2.944  1.00  0.00    -0.322 N 
HETATM    6  H   UNL     1      39.415 -15.553   3.782  1.00  0.00     0.169 HD
HETATM    7  O   UNL     1      41.239 -15.504   1.159  1.00  0.00    -0.271 OA
BRANCH   5   8
HETATM    8  C   UNL     1      39.251 -13.876   2.647  1.00  0.00     0.085 A 
HETATM    9  C   UNL     1      39.598 -12.755   3.380  1.00  0.00     0.052 A 
HETATM   10  C   UNL     1      40.497 -12.554   4.541  1.00  0.00     0.072 C 
HETATM   11  N   UNL     1      38.901 -11.718   2.830  1.00  0.00    -0.280 N 
HETATM   12  H   UNL     1      38.899 -10.743   3.113  1.00  0.00     0.189 HD
HETATM   13  N   UNL     1      38.141 -12.069   1.793  1.00  0.00    -0.177 NA
HETATM   14  C   UNL     1      38.339 -13.391   1.664  1.00  0.00     0.079 A 
HETATM   15  C   UNL     1      37.626 -14.096   0.570  1.00  0.00     0.075 C 
ENDBRANCH   5   8
ENDBRANCH   3   4
ENDBRANCH   1   3
BRANCH   1  16
HETATM   16  C   UNL     1      43.298 -18.145   2.461  1.00  0.00     0.250 C 
HETATM   17  C   UNL     1      44.210 -17.492   1.414  1.00  0.00     0.048 C 
BRANCH  16  18
HETATM   18  C   UNL     1      43.759 -19.569   2.759  1.00  0.00    -0.011 A 
HETATM   19  C   UNL     1      44.157 -20.045   4.033  1.00  0.00     0.056 A 
HETATM   20  C   UNL     1      44.568 -21.393   4.150  1.00  0.00     0.017 A 
HETATM   21  C   UNL     1      44.566 -22.259   3.056  1.00  0.00     0.001 A 
HETATM   22  C   UNL     1      44.158 -21.795   1.815  1.00  0.00     0.001 A 
HETATM   23  C   UNL     1      43.760 -20.468   1.668  1.00  0.00     0.010 A 
BRANCH  19  24
HETATM   24  C   UNL     1      44.228 -19.186   5.286  1.00  0.00     0.418 C 
HETATM   25  F   UNL     1      44.987 -18.066   5.177  1.00  0.00    -0.166 F 
HETATM   26  F   UNL     1      42.992 -18.722   5.658  1.00  0.00    -0.166 F 
HETATM   27  F   UNL     1      44.673 -19.875   6.376  1.00  0.00    -0.166 F 
ENDBRANCH  19  24
ENDBRANCH  16  18
ENDBRANCH   1  16
TORSDOF 6
ENDMDL
MODEL 5
REMARK VINA RESULT:      -7.7      3.347      5.288
REMARK  6 active torsions:
REMARK  status: ('A' for Active; 'I' for Inactive)
REMARK    1  A    between atoms: C_8  and  N_9 
REMARK       I    between atoms: N_9  and  C_10 
REMARK    2  A    between atoms: C_10  and  C_11 
REMARK    3  A    between atoms: C_11  and  N_12 
REMARK    4  A    between atoms: N_12  and  C_13 
REMARK    5  A    between atoms: C_13  and  C_14 
REMARK    6  A    between atoms: C_15  and  C_16 
ROOT
HETATM    1  N   UNL     1      39.626 -16.117   1.893  1.00  0.00     0.100 N 
HETATM    2  H   UNL     1      40.093 -16.415   1.031  1.00  0.00     0.317 HD
ENDROOT
BRANCH   1   3
HETATM    3  C   UNL     1      39.049 -14.785   1.623  1.00  0.00     0.372 C 
BRANCH   3   4
HETATM    4  C   UNL     1      39.197 -14.366   0.151  1.00  0.00     0.250 C 
HETATM    5  N   UNL     1      40.470 -14.609  -0.325  1.00  0.00    -0.322 N 
HETATM    6  H   UNL     1      41.148 -14.980   0.329  1.00  0.00     0.169 HD
HETATM    7  O   UNL     1      38.262 -13.864  -0.464  1.00  0.00    -0.271 OA
BRANCH   5   8
HETATM    8  C   UNL     1      40.953 -14.386  -1.604  1.00  0.00     0.085 A 
HETATM    9  C   UNL     1      41.817 -13.339  -1.871  1.00  0.00     0.052 A 
HETATM   10  C   UNL     1      42.404 -12.280  -1.017  1.00  0.00     0.072 C 
HETATM   11  N   UNL     1      42.086 -13.408  -3.207  1.00  0.00    -0.280 N 
HETATM   12  H   UNL     1      42.678 -12.796  -3.761  1.00  0.00     0.189 HD
HETATM   13  N   UNL     1      41.480 -14.420  -3.828  1.00  0.00    -0.177 NA
HETATM   14  C   UNL     1      40.776 -15.033  -2.863  1.00  0.00     0.079 A 
HETATM   15  C   UNL     1      39.982 -16.229  -3.236  1.00  0.00     0.075 C 
ENDBRANCH   5   8
ENDBRANCH   3   4
ENDBRANCH   1   3
BRANCH   1  16
HETATM   16  C   UNL     1      40.625 -16.124   2.967  1.00  0.00     0.250 C 
HETATM   17  C   UNL     1      41.067 -14.692   3.291  1.00  0.00     0.048 C 
BRANCH  16  18
HETATM   18  C   UNL     1      41.837 -17.009   2.690  1.00  0.00    -0.011 A 
HETATM   19  C   UNL     1      42.457 -17.860   3.637  1.00  0.00     0.056 A 
HETATM   20  C   UNL     1      43.582 -18.615   3.231  1.00  0.00     0.017 A 
HETATM   21  C   UNL     1      44.072 -18.558   1.926  1.00  0.00     0.001 A 
HETATM   22  C   UNL     1      43.452 -17.739   0.996  1.00  0.00     0.001 A 
HETATM   23  C   UNL     1      42.349 -16.975   1.372  1.00  0.00     0.010 A 
BRANCH  19  24
HETATM   24  C   UNL     1      42.030 -17.980   5.092  1.00  0.00     0.418 C 
HETATM   25  F   UNL     1      42.202 -16.859   5.839  1.00  0.00    -0.166 F 
HETATM   26  F   UNL     1      40.694 -18.263   5.211  1.00  0.00    -0.166 F 
HETATM   27  F   UNL     1      42.652 -19.003   5.745  1.00  0.00    -0.166 F 
ENDBRANCH  19  24
ENDBRANCH  16  18
ENDBRANCH   1  16
TORSDOF 6
ENDMDL
MODEL 6
REMARK VINA RESULT:      -7.7      1.622      2.384
REMARK  6 active torsions:
REMARK  status: ('A' for Active; 'I' for Inactive)
REMARK    1  A    between atoms: C_8  and  N_9 
REMARK       I    between atoms: N_9  and  C_10 
REMARK    2  A    between atoms: C_10  and  C_11 
REMARK    3  A    between atoms: C_11  and  N_12 
REMARK    4  A    between atoms: N_12  and  C_13 
REMARK    5  A    between atoms: C_13  and  C_14 
REMARK    6  A    between atoms: C_15  and  C_16 
ROOT
HETATM    1  N   UNL     1      42.040 -18.025   2.614  1.00  0.00     0.100 N 
HETATM    2  H   UNL     1      41.593 -18.932   2.439  1.00  0.00     0.317 HD
ENDROOT
BRANCH   1   3
HETATM    3  C   UNL     1      41.607 -17.126   1.526  1.00  0.00     0.372 C 
BRANCH   3   4
HETATM    4  C   UNL     1      41.014 -15.808   2.051  1.00  0.00     0.250 C 
HETATM    5  N   UNL     1      41.995 -14.953   2.513  1.00  0.00    -0.322 N 
HETATM    6  H   UNL     1      42.950 -15.289   2.497  1.00  0.00     0.169 HD
HETATM    7  O   UNL     1      39.803 -15.610   2.049  1.00  0.00    -0.271 OA
BRANCH   5   8
HETATM    8  C   UNL     1      41.833 -13.676   3.026  1.00  0.00     0.085 A 
HETATM    9  C   UNL     1      41.774 -12.572   2.194  1.00  0.00     0.052 A 
HETATM   10  C   UNL     1      41.863 -12.419   0.722  1.00  0.00     0.072 C 
HETATM   11  N   UNL     1      41.616 -11.493   3.015  1.00  0.00    -0.280 N 
HETATM   12  H   UNL     1      41.542 -10.514   2.757  1.00  0.00     0.189 HD
HETATM   13  N   UNL     1      41.554 -11.805   4.310  1.00  0.00    -0.177 NA
HETATM   14  C   UNL     1      41.688 -13.141   4.340  1.00  0.00     0.079 A 
HETATM   15  C   UNL     1      41.650 -13.812   5.663  1.00  0.00     0.075 C 
ENDBRANCH   5   8
ENDBRANCH   3   4
ENDBRANCH   1   3
BRANCH   1  16
HETATM   16  C   UNL     1      43.489 -18.244   2.662  1.00  0.00     0.250 C 
HETATM   17  C   UNL     1      44.149 -17.721   1.380  1.00  0.00     0.048 C 
BRANCH  16  18
HETATM   18  C   UNL     1      43.897 -19.691   2.922  1.00  0.00    -0.011 A 
HETATM   19  C   UNL     1      44.304 -20.210   4.176  1.00  0.00     0.056 A 
HETATM   20  C   UNL     1      44.661 -21.576   4.257  1.00  0.00     0.017 A 
HETATM   21  C   UNL     1      44.597 -22.418   3.147  1.00  0.00     0.001 A 
HETATM   22  C   UNL     1      44.181 -21.913   1.925  1.00  0.00     0.001 A 
HETATM   23  C   UNL     1      43.835 -20.568   1.814  1.00  0.00     0.010 A 
BRANCH  19  24
HETATM   24  C   UNL     1      44.440 -19.381   5.443  1.00  0.00     0.418 C 
HETATM   25  F   UNL     1      45.497 -18.528   5.467  1.00  0.00    -0.166 F 
HETATM   26  F   UNL     1      43.350 -18.573   5.645  1.00  0.00    -0.166 F 
HETATM   27  F   UNL     1      44.508 -20.144   6.572  1.00  0.00    -0.166 F 
ENDBRANCH  19  24
ENDBRANCH  16  18
ENDBRANCH   1  16
TORSDOF 6
ENDMDL
MODEL 7
REMARK VINA RESULT:      -7.7      2.263      3.595
REMARK  6 active torsions:
REMARK  status: ('A' for Active; 'I' for Inactive)
REMARK    1  A    between atoms: C_8  and  N_9 
REMARK       I    between atoms: N_9  and  C_10 
REMARK    2  A    between atoms: C_10  and  C_11 
REMARK    3  A    between atoms: C_11  and  N_12 
REMARK    4  A    between atoms: N_12  and  C_13 
REMARK    5  A    between atoms: C_13  and  C_14 
REMARK    6  A    between atoms: C_15  and  C_16 
ROOT
HETATM    1  N   UNL     1      42.174 -17.772   3.071  1.00  0.00     0.100 N 
HETATM    2  H   UNL     1      41.632 -18.228   2.330  1.00  0.00     0.317 HD
ENDROOT
BRANCH   1   3
HETATM    3  C   UNL     1      41.864 -16.331   2.994  1.00  0.00     0.372 C 
BRANCH   3   4
HETATM    4  C   UNL     1      40.731 -16.023   2.001  1.00  0.00     0.250 C 
HETATM    5  N   UNL     1      40.994 -14.887   1.261  1.00  0.00    -0.322 N 
HETATM    6  H   UNL     1      41.844 -14.380   1.474  1.00  0.00     0.169 HD
HETATM    7  O   UNL     1      39.732 -16.732   1.936  1.00  0.00    -0.271 OA
BRANCH   5   8
HETATM    8  C   UNL     1      40.216 -14.330   0.259  1.00  0.00     0.085 A 
HETATM    9  C   UNL     1      39.254 -13.378   0.544  1.00  0.00     0.052 A 
HETATM   10  C   UNL     1      38.807 -12.752   1.811  1.00  0.00     0.072 C 
HETATM   11  N   UNL     1      38.682 -13.054  -0.652  1.00  0.00    -0.280 N 
HETATM   12  H   UNL     1      37.933 -12.393  -0.830  1.00  0.00     0.189 HD
HETATM   13  N   UNL     1      39.202 -13.706  -1.692  1.00  0.00    -0.177 NA
HETATM   14  C   UNL     1      40.144 -14.498  -1.156  1.00  0.00     0.079 A 
HETATM   15  C   UNL     1      40.927 -15.363  -2.072  1.00  0.00     0.075 C 
ENDBRANCH   5   8
ENDBRANCH   3   4
ENDBRANCH   1   3
BRANCH   1  16
HETATM   16  C   UNL     1      43.589 -18.087   2.847  1.00  0.00     0.250 C 
HETATM   17  C   UNL     1      44.032 -17.590   1.466  1.00  0.00     0.048 C 
BRANCH  16  18
HETATM   18  C   UNL     1      43.939 -19.562   3.023  1.00  0.00    -0.011 A 
HETATM   19  C   UNL     1      44.290 -20.174   4.252  1.00  0.00     0.056 A 
HETATM   20  C   UNL     1      44.597 -21.554   4.254  1.00  0.00     0.017 A 
HETATM   21  C   UNL     1      44.537 -22.321   3.090  1.00  0.00     0.001 A 
HETATM   22  C   UNL     1      44.175 -21.724   1.893  1.00  0.00     0.001 A 
HETATM   23  C   UNL     1      43.879 -20.363   1.860  1.00  0.00     0.010 A 
BRANCH  19  24
HETATM   24  C   UNL     1      44.417 -19.433   5.574  1.00  0.00     0.418 C 
HETATM   25  F   UNL     1      44.654 -20.218   6.656  1.00  0.00    -0.166 F 
HETATM   26  F   UNL     1      45.463 -18.547   5.565  1.00  0.00    -0.166 F 
HETATM   27  F   UNL     1      43.326 -18.666   5.859  1.00  0.00    -0.166 F 
ENDBRANCH  19  24
ENDBRANCH  16  18
ENDBRANCH   1  16
TORSDOF 6
ENDMDL
MODEL 8
REMARK VINA RESULT:      -7.5      3.697      5.460
REMARK  6 active torsions:
REMARK  status: ('A' for Active; 'I' for Inactive)
REMARK    1  A    between atoms: C_8  and  N_9 
REMARK       I    between atoms: N_9  and  C_10 
REMARK    2  A    between atoms: C_10  and  C_11 
REMARK    3  A    between atoms: C_11  and  N_12 
REMARK    4  A    between atoms: N_12  and  C_13 
REMARK    5  A    between atoms: C_13  and  C_14 
REMARK    6  A    between atoms: C_15  and  C_16 
ROOT
HETATM    1  N   UNL     1      42.712 -16.013   2.674  1.00  0.00     0.100 N 
HETATM    2  H   UNL     1      43.190 -15.388   3.331  1.00  0.00     0.317 HD
ENDROOT
BRANCH   1   3
HETATM    3  C   UNL     1      41.717 -15.191   1.957  1.00  0.00     0.372 C 
BRANCH   3   4
HETATM    4  C   UNL     1      41.790 -15.374   0.432  1.00  0.00     0.250 C 
HETATM    5  N   UNL     1      41.578 -14.185  -0.237  1.00  0.00    -0.322 N 
HETATM    6  H   UNL     1      41.364 -13.369   0.323  1.00  0.00     0.169 HD
HETATM    7  O   UNL     1      41.997 -16.476  -0.068  1.00  0.00    -0.271 OA
BRANCH   5   8
HETATM    8  C   UNL     1      41.599 -13.967  -1.605  1.00  0.00     0.085 A 
HETATM    9  C   UNL     1      42.261 -12.879  -2.147  1.00  0.00     0.052 A 
HETATM   10  C   UNL     1      43.029 -11.767  -1.538  1.00  0.00     0.072 C 
HETATM   11  N   UNL     1      42.082 -12.967  -3.497  1.00  0.00    -0.280 N 
HETATM   12  H   UNL     1      42.419 -12.336  -4.217  1.00  0.00     0.189 HD
HETATM   13  N   UNL     1      41.369 -14.027  -3.879  1.00  0.00    -0.177 NA
HETATM   14  C   UNL     1      41.061 -14.654  -2.732  1.00  0.00     0.079 A 
HETATM   15  C   UNL     1      40.264 -15.903  -2.818  1.00  0.00     0.075 C 
ENDBRANCH   5   8
ENDBRANCH   3   4
ENDBRANCH   1   3
BRANCH   1  16
HETATM   16  C   UNL     1      42.126 -17.112   3.450  1.00  0.00     0.250 C 
HETATM   17  C   UNL     1      41.232 -16.557   4.566  1.00  0.00     0.048 C 
BRANCH  16  18
HETATM   18  C   UNL     1      43.147 -18.092   4.019  1.00  0.00    -0.011 A 
HETATM   19  C   UNL     1      43.733 -19.165   3.302  1.00  0.00     0.056 A 
HETATM   20  C   UNL     1      44.661 -19.996   3.971  1.00  0.00     0.017 A 
HETATM   21  C   UNL     1      45.025 -19.769   5.298  1.00  0.00     0.001 A 
HETATM   22  C   UNL     1      44.464 -18.708   5.992  1.00  0.00     0.001 A 
HETATM   23  C   UNL     1      43.538 -17.881   5.361  1.00  0.00     0.010 A 
BRANCH  19  24
HETATM   24  C   UNL     1      43.390 -19.525   1.865  1.00  0.00     0.418 C 
HETATM   25  F   UNL     1      43.827 -20.743   1.453  1.00  0.00    -0.166 F 
HETATM   26  F   UNL     1      42.035 -19.565   1.657  1.00  0.00    -0.166 F 
HETATM   27  F   UNL     1      43.843 -18.605   0.965  1.00  0.00    -0.166 F 
ENDBRANCH  19  24
ENDBRANCH  16  18
ENDBRANCH   1  16
TORSDOF 6
ENDMDL
MODEL 9
REMARK VINA RESULT:      -7.4      1.900      2.664
REMARK  6 active torsions:
REMARK  status: ('A' for Active; 'I' for Inactive)
REMARK    1  A    between atoms: C_8  and  N_9 
REMARK       I    between atoms: N_9  and  C_10 
REMARK    2  A    between atoms: C_10  and  C_11 
REMARK    3  A    between atoms: C_11  and  N_12 
REMARK    4  A    between atoms: N_12  and  C_13 
REMARK    5  A    between atoms: C_13  and  C_14 
REMARK    6  A    between atoms: C_15  and  C_16 
ROOT
HETATM    1  N   UNL     1      41.963 -17.790   2.939  1.00  0.00     0.100 N 
HETATM    2  H   UNL     1      41.448 -18.676   2.910  1.00  0.00     0.317 HD
ENDROOT
BRANCH   1   3
HETATM    3  C   UNL     1      41.291 -16.880   1.991  1.00  0.00     0.372 C 
BRANCH   3   4
HETATM    4  C   UNL     1      40.703 -15.638   2.681  1.00  0.00     0.250 C 
HETATM    5  N   UNL     1      40.271 -14.699   1.765  1.00  0.00    -0.322 N 
HETATM    6  H   UNL     1      40.421 -14.903   0.785  1.00  0.00     0.169 HD
HETATM    7  O   UNL     1      40.668 -15.546   3.904  1.00  0.00    -0.271 OA
BRANCH   5   8
HETATM    8  C   UNL     1      39.665 -13.481   2.023  1.00  0.00     0.085 A 
HETATM    9  C   UNL     1      38.368 -13.225   1.614  1.00  0.00     0.052 A 
HETATM   10  C   UNL     1      37.370 -14.036   0.877  1.00  0.00     0.072 C 
HETATM   11  N   UNL     1      38.092 -11.952   2.021  1.00  0.00    -0.280 N 
HETATM   12  H   UNL     1      37.235 -11.423   1.889  1.00  0.00     0.189 HD
HETATM   13  N   UNL     1      39.096 -11.363   2.671  1.00  0.00    -0.177 NA
HETATM   14  C   UNL     1      40.074 -12.284   2.682  1.00  0.00     0.079 A 
HETATM   15  C   UNL     1      41.350 -11.933   3.354  1.00  0.00     0.075 C 
ENDBRANCH   5   8
ENDBRANCH   3   4
ENDBRANCH   1   3
BRANCH   1  16
HETATM   16  C   UNL     1      43.361 -18.076   2.599  1.00  0.00     0.250 C 
HETATM   17  C   UNL     1      43.646 -17.676   1.145  1.00  0.00     0.048 C 
BRANCH  16  18
HETATM   18  C   UNL     1      43.785 -19.519   2.849  1.00  0.00    -0.011 A 
HETATM   19  C   UNL     1      44.162 -20.050   4.108  1.00  0.00     0.056 A 
HETATM   20  C   UNL     1      44.540 -21.410   4.181  1.00  0.00     0.017 A 
HETATM   21  C   UNL     1      44.525 -22.237   3.057  1.00  0.00     0.001 A 
HETATM   22  C   UNL     1      44.139 -21.721   1.830  1.00  0.00     0.001 A 
HETATM   23  C   UNL     1      43.773 -20.380   1.728  1.00  0.00     0.010 A 
BRANCH  19  24
HETATM   24  C   UNL     1      44.244 -19.238   5.391  1.00  0.00     0.418 C 
HETATM   25  F   UNL     1      44.608 -19.938   6.497  1.00  0.00    -0.166 F 
HETATM   26  F   UNL     1      45.178 -18.237   5.304  1.00  0.00    -0.166 F 
HETATM   27  F   UNL     1      43.080 -18.590   5.685  1.00  0.00    -0.166 F 
ENDBRANCH  19  24
ENDBRANCH  16  18
ENDBRANCH   1  16
TORSDOF 6
ENDMDL
MODEL 10
REMARK VINA RESULT:      -7.3      3.464      5.071
REMARK  6 active torsions:
REMARK  status: ('A' for Active; 'I' for Inactive)
REMARK    1  A    between atoms: C_8  and  N_9 
REMARK       I    between atoms: N_9  and  C_10 
REMARK    2  A    between atoms: C_10  and  C_11 
REMARK    3  A    between atoms: C_11  and  N_12 
REMARK    4  A    between atoms: N_12  and  C_13 
REMARK    5  A    between atoms: C_13  and  C_14 
REMARK    6  A    between atoms: C_15  and  C_16 
ROOT
HETATM    1  N   UNL     1      42.024 -16.745   2.160  1.00  0.00     0.100 N 
HETATM    2  H   UNL     1      41.486 -17.447   2.678  1.00  0.00     0.317 HD
ENDROOT
BRANCH   1   3
HETATM    3  C   UNL     1      41.730 -16.960   0.729  1.00  0.00     0.372 C 
BRANCH   3   4
HETATM    4  C   UNL     1      41.123 -15.717   0.058  1.00  0.00     0.250 C 
HETATM    5  N   UNL     1      41.577 -15.561  -1.237  1.00  0.00    -0.322 N 
HETATM    6  H   UNL     1      42.261 -16.228  -1.572  1.00  0.00     0.169 HD
HETATM    7  O   UNL     1      40.349 -14.982   0.663  1.00  0.00    -0.271 OA
BRANCH   5   8
HETATM    8  C   UNL     1      41.224 -14.577  -2.146  1.00  0.00     0.085 A 
HETATM    9  C   UNL     1      40.346 -14.842  -3.182  1.00  0.00     0.052 A 
HETATM   10  C   UNL     1      39.624 -16.067  -3.598  1.00  0.00     0.072 C 
HETATM   11  N   UNL     1      40.224 -13.672  -3.876  1.00  0.00    -0.280 N 
HETATM   12  H   UNL     1      39.667 -13.490  -4.705  1.00  0.00     0.189 HD
HETATM   13  N   UNL     1      40.938 -12.667  -3.369  1.00  0.00    -0.177 NA
HETATM   14  C   UNL     1      41.562 -13.201  -2.307  1.00  0.00     0.079 A 
HETATM   15  C   UNL     1      42.446 -12.319  -1.505  1.00  0.00     0.075 C 
ENDBRANCH   5   8
ENDBRANCH   3   4
ENDBRANCH   1   3
BRANCH   1  16
HETATM   16  C   UNL     1      43.439 -16.921   2.508  1.00  0.00     0.250 C 
HETATM   17  C   UNL     1      44.232 -17.397   1.284  1.00  0.00     0.048 C 
BRANCH  16  18
HETATM   18  C   UNL     1      43.681 -17.846   3.696  1.00  0.00    -0.011 A 
HETATM   19  C   UNL     1      43.455 -17.505   5.053  1.00  0.00     0.056 A 
HETATM   20  C   UNL     1      43.737 -18.470   6.047  1.00  0.00     0.017 A 
HETATM   21  C   UNL     1      44.203 -19.744   5.722  1.00  0.00     0.001 A 
HETATM   22  C   UNL     1      44.405 -20.082   4.393  1.00  0.00     0.001 A 
HETATM   23  C   UNL     1      44.148 -19.146   3.394  1.00  0.00     0.010 A 
BRANCH  19  24
HETATM   24  C   UNL     1      42.979 -16.140   5.526  1.00  0.00     0.418 C 
HETATM   25  F   UNL     1      41.705 -15.820   5.182  1.00  0.00    -0.166 F 
HETATM   26  F   UNL     1      42.994 -16.040   6.894  1.00  0.00    -0.166 F 
HETATM   27  F   UNL     1      43.783 -15.122   5.103  1.00  0.00    -0.166 F 
ENDBRANCH  19  24
ENDBRANCH  16  18
ENDBRANCH   1  16
TORSDOF 6
ENDMDL
