MODEL 1
REMARK VINA RESULT:      -7.0      0.000      0.000
REMARK  5 active torsions:
REMARK  status: ('A' for Active; 'I' for Inactive)
REMARK    1  A    between atoms: C_2  and  O_3 
REMARK    2  A    between atoms: C_4  and  C_5 
REMARK    3  A    between atoms: C_5  and  O_6 
REMARK    4  A    between atoms: C_9  and  C_10 
REMARK    5  A    between atoms: C_22  and  O_23 
ROOT
HETATM    1  C   UNL     1      43.221 -20.708   2.020  1.00  0.00     0.047 C 
HETATM    2  C   UNL     1      43.932 -19.573   2.784  1.00  0.00     0.073 C 
HETATM    3  C   UNL     1      43.012 -19.065   3.954  1.00  0.00     0.133 C 
HETATM    4  C   UNL     1      41.804 -18.171   3.514  1.00  0.00     0.074 C 
HETATM    5  C   UNL     1      41.992 -17.555   2.164  1.00  0.00     0.030 A 
HETATM    6  C   UNL     1      43.142 -17.675   1.415  1.00  0.00     0.042 A 
HETATM    7  N   UNL     1      42.927 -17.016   0.239  1.00  0.00    -0.279 N 
HETATM    8  H   UNL     1      43.557 -16.896  -0.548  1.00  0.00     0.189 HD
HETATM    9  N   UNL     1      41.676 -16.516   0.146  1.00  0.00    -0.149 NA
HETATM   10  C   UNL     1      41.135 -16.862   1.308  1.00  0.00     0.190 A 
HETATM   11  C   UNL     1      44.346 -18.443   1.794  1.00  0.00     0.097 C 
ENDROOT
BRANCH   4  12
HETATM   12  C   UNL     1      41.439 -17.018   4.444  1.00  0.00    -0.047 A 
HETATM   13  C   UNL     1      41.848 -15.690   4.199  1.00  0.00     0.027 A 
HETATM   14  C   UNL     1      41.520 -14.669   5.090  1.00  0.00     0.011 A 
HETATM   15 BR   UNL     1      42.092 -12.901   4.738  1.00  0.00    -0.051 Br
HETATM   16  C   UNL     1      40.785 -14.942   6.239  1.00  0.00     0.019 A 
HETATM   17  C   UNL     1      40.375 -16.249   6.498  1.00  0.00     0.002 A 
HETATM   18  C   UNL     1      40.701 -17.278   5.609  1.00  0.00     0.008 A 
ENDBRANCH   4  12
BRANCH   3  19
HETATM   19  C   UNL     1      43.859 -18.430   5.039  1.00  0.00     0.266 C 
HETATM   20  O   UNL     1      44.534 -17.417   4.891  1.00  0.00    -0.265 OA
BRANCH  19  21
HETATM   21  O   UNL     1      43.800 -19.172   6.181  1.00  0.00    -0.326 OA
HETATM   22  C   UNL     1      43.744 -18.405   7.384  1.00  0.00     0.213 C 
ENDBRANCH  19  21
ENDBRANCH   3  19
BRANCH   2  23
HETATM   23  O   UNL     1      45.125 -20.184   3.306  1.00  0.00    -0.389 OA
HETATM   24  H   UNL     1      44.922 -21.123   3.494  1.00  0.00     0.210 HD
ENDBRANCH   2  23
BRANCH  10  25
HETATM   25  O   UNL     1      39.860 -16.525   1.465  1.00  0.00    -0.343 OA
HETATM   26  H   UNL     1      39.839 -15.567   1.298  1.00  0.00     0.219 HD
ENDBRANCH  10  25
TORSDOF 5
ENDMDL
MODEL 2
REMARK VINA RESULT:      -6.9      2.939      4.574
REMARK  5 active torsions:
REMARK  status: ('A' for Active; 'I' for Inactive)
REMARK    1  A    between atoms: C_2  and  O_3 
REMARK    2  A    between atoms: C_4  and  C_5 
REMARK    3  A    between atoms: C_5  and  O_6 
REMARK    4  A    between atoms: C_9  and  C_10 
REMARK    5  A    between atoms: C_22  and  O_23 
ROOT
HETATM    1  C   UNL     1      40.073 -16.128   1.421  1.00  0.00     0.047 C 
HETATM    2  C   UNL     1      41.604 -16.275   1.516  1.00  0.00     0.073 C 
HETATM    3  C   UNL     1      41.964 -17.406   2.547  1.00  0.00     0.133 C 
HETATM    4  C   UNL     1      41.791 -17.017   4.054  1.00  0.00     0.074 C 
HETATM    5  C   UNL     1      41.790 -15.539   4.280  1.00  0.00     0.030 A 
HETATM    6  C   UNL     1      42.012 -14.607   3.290  1.00  0.00     0.042 A 
HETATM    7  N   UNL     1      41.897 -13.374   3.866  1.00  0.00    -0.279 N 
HETATM    8  H   UNL     1      42.001 -12.459   3.437  1.00  0.00     0.189 HD
HETATM    9  N   UNL     1      41.554 -13.440   5.170  1.00  0.00    -0.149 NA
HETATM   10  C   UNL     1      41.486 -14.747   5.389  1.00  0.00     0.190 A 
HETATM   11  C   UNL     1      42.252 -14.900   1.863  1.00  0.00     0.097 C 
ENDROOT
BRANCH   4  12
HETATM   12  C   UNL     1      42.825 -17.579   5.024  1.00  0.00    -0.047 A 
HETATM   13  C   UNL     1      42.764 -18.901   5.512  1.00  0.00     0.027 A 
HETATM   14  C   UNL     1      43.712 -19.368   6.422  1.00  0.00     0.011 A 
HETATM   15 BR   UNL     1      43.596 -21.143   7.066  1.00  0.00    -0.051 Br
HETATM   16  C   UNL     1      44.735 -18.537   6.866  1.00  0.00     0.019 A 
HETATM   17  C   UNL     1      44.810 -17.227   6.395  1.00  0.00     0.002 A 
HETATM   18  C   UNL     1      43.863 -16.752   5.484  1.00  0.00     0.008 A 
ENDBRANCH   4  12
BRANCH   3  19
HETATM   19  C   UNL     1      43.334 -17.976   2.233  1.00  0.00     0.266 C 
HETATM   20  O   UNL     1      44.346 -17.303   2.071  1.00  0.00    -0.265 OA
BRANCH  19  21
HETATM   21  O   UNL     1      43.266 -19.332   2.109  1.00  0.00    -0.326 OA
HETATM   22  C   UNL     1      44.434 -20.026   2.547  1.00  0.00     0.213 C 
ENDBRANCH  19  21
ENDBRANCH   3  19
BRANCH   2  23
HETATM   23  O   UNL     1      42.012 -16.651   0.189  1.00  0.00    -0.389 OA
HETATM   24  H   UNL     1      41.230 -16.577  -0.397  1.00  0.00     0.210 HD
ENDBRANCH   2  23
BRANCH  10  25
HETATM   25  O   UNL     1      41.113 -15.101   6.614  1.00  0.00    -0.343 OA
HETATM   26  H   UNL     1      41.859 -15.623   6.955  1.00  0.00     0.219 HD
ENDBRANCH  10  25
TORSDOF 5
ENDMDL
MODEL 3
REMARK VINA RESULT:      -6.9      3.192      4.816
REMARK  5 active torsions:
REMARK  status: ('A' for Active; 'I' for Inactive)
REMARK    1  A    between atoms: C_2  and  O_3 
REMARK    2  A    between atoms: C_4  and  C_5 
REMARK    3  A    between atoms: C_5  and  O_6 
REMARK    4  A    between atoms: C_9  and  C_10 
REMARK    5  A    between atoms: C_22  and  O_23 
ROOT
HETATM    1  C   UNL     1      38.814 -15.115   1.825  1.00  0.00     0.047 C 
HETATM    2  C   UNL     1      40.340 -14.950   1.973  1.00  0.00     0.073 C 
HETATM    3  C   UNL     1      40.868 -15.906   3.105  1.00  0.00     0.133 C 
HETATM    4  C   UNL     1      40.559 -15.443   4.569  1.00  0.00     0.074 C 
HETATM    5  C   UNL     1      40.261 -13.981   4.670  1.00  0.00     0.030 A 
HETATM    6  C   UNL     1      40.341 -13.102   3.611  1.00  0.00     0.042 A 
HETATM    7  N   UNL     1      39.965 -11.876   4.078  1.00  0.00    -0.279 N 
HETATM    8  H   UNL     1      39.908 -10.994   3.577  1.00  0.00     0.189 HD
HETATM    9  N   UNL     1      39.586 -11.907   5.373  1.00  0.00    -0.149 NA
HETATM   10  C   UNL     1      39.764 -13.181   5.700  1.00  0.00     0.190 A 
HETATM   11  C   UNL     1      40.693 -13.453   2.220  1.00  0.00     0.097 C 
ENDROOT
BRANCH   4  12
HETATM   12  C   UNL     1      41.640 -15.715   5.609  1.00  0.00    -0.047 A 
HETATM   13  C   UNL     1      42.714 -14.829   5.833  1.00  0.00     0.027 A 
HETATM   14  C   UNL     1      43.701 -15.129   6.773  1.00  0.00     0.011 A 
HETATM   15 BR   UNL     1      45.133 -13.925   7.042  1.00  0.00    -0.051 Br
HETATM   16  C   UNL     1      43.643 -16.310   7.505  1.00  0.00     0.019 A 
HETATM   17  C   UNL     1      42.589 -17.199   7.295  1.00  0.00     0.002 A 
HETATM   18  C   UNL     1      41.598 -16.905   6.354  1.00  0.00     0.008 A 
ENDBRANCH   4  12
BRANCH   3  19
HETATM   19  C   UNL     1      42.334 -16.218   2.877  1.00  0.00     0.266 C 
HETATM   20  O   UNL     1      43.185 -15.384   2.587  1.00  0.00    -0.265 OA
BRANCH  19  21
HETATM   21  O   UNL     1      42.557 -17.558   2.991  1.00  0.00    -0.326 OA
HETATM   22  C   UNL     1      43.841 -17.903   3.511  1.00  0.00     0.213 C 
ENDBRANCH  19  21
ENDBRANCH   3  19
BRANCH   2  23
HETATM   23  O   UNL     1      40.868 -15.340   0.694  1.00  0.00    -0.389 OA
HETATM   24  H   UNL     1      40.380 -14.846   0.004  1.00  0.00     0.210 HD
ENDBRANCH   2  23
BRANCH  10  25
HETATM   25  O   UNL     1      39.414 -13.506   6.940  1.00  0.00    -0.343 OA
HETATM   26  H   UNL     1      38.873 -12.756   7.244  1.00  0.00     0.219 HD
ENDBRANCH  10  25
TORSDOF 5
ENDMDL
MODEL 4
REMARK VINA RESULT:      -6.8      2.576      4.026
REMARK  5 active torsions:
REMARK  status: ('A' for Active; 'I' for Inactive)
REMARK    1  A    between atoms: C_2  and  O_3 
REMARK    2  A    between atoms: C_4  and  C_5 
REMARK    3  A    between atoms: C_5  and  O_6 
REMARK    4  A    between atoms: C_9  and  C_10 
REMARK    5  A    between atoms: C_22  and  O_23 
ROOT
HETATM    1  C   UNL     1      43.232 -20.187   7.238  1.00  0.00     0.047 C 
HETATM    2  C   UNL     1      43.867 -18.831   6.871  1.00  0.00     0.073 C 
HETATM    3  C   UNL     1      42.813 -17.938   6.120  1.00  0.00     0.133 C 
HETATM    4  C   UNL     1      42.533 -18.343   4.632  1.00  0.00     0.074 C 
HETATM    5  C   UNL     1      43.629 -19.165   4.033  1.00  0.00     0.030 A 
HETATM    6  C   UNL     1      44.810 -19.463   4.677  1.00  0.00     0.042 A 
HETATM    7  N   UNL     1      45.537 -20.256   3.836  1.00  0.00    -0.279 N 
HETATM    8  H   UNL     1      46.457 -20.661   3.980  1.00  0.00     0.189 HD
HETATM    9  N   UNL     1      44.876 -20.545   2.695  1.00  0.00    -0.149 NA
HETATM   10  C   UNL     1      43.733 -19.888   2.843  1.00  0.00     0.190 A 
HETATM   11  C   UNL     1      45.173 -19.059   6.050  1.00  0.00     0.097 C 
ENDROOT
BRANCH   4  12
HETATM   12  C   UNL     1      42.294 -17.200   3.651  1.00  0.00    -0.047 A 
HETATM   13  C   UNL     1      41.001 -16.778   3.282  1.00  0.00     0.027 A 
HETATM   14  C   UNL     1      40.825 -15.748   2.357  1.00  0.00     0.011 A 
HETATM   15 BR   UNL     1      39.076 -15.212   1.875  1.00  0.00    -0.051 Br
HETATM   16  C   UNL     1      41.924 -15.120   1.781  1.00  0.00     0.019 A 
HETATM   17  C   UNL     1      43.210 -15.526   2.134  1.00  0.00     0.002 A 
HETATM   18  C   UNL     1      43.394 -16.558   3.059  1.00  0.00     0.008 A 
ENDBRANCH   4  12
BRANCH   3  19
HETATM   19  C   UNL     1      43.166 -16.473   6.281  1.00  0.00     0.266 C 
HETATM   20  O   UNL     1      44.310 -16.034   6.316  1.00  0.00    -0.265 OA
BRANCH  19  21
HETATM   21  O   UNL     1      42.035 -15.727   6.431  1.00  0.00    -0.326 OA
HETATM   22  C   UNL     1      42.112 -14.416   5.872  1.00  0.00     0.213 C 
ENDBRANCH  19  21
ENDBRANCH   3  19
BRANCH   2  23
HETATM   23  O   UNL     1      44.218 -18.244   8.136  1.00  0.00    -0.389 OA
HETATM   24  H   UNL     1      44.524 -17.330   7.967  1.00  0.00     0.210 HD
ENDBRANCH   2  23
BRANCH  10  25
HETATM   25  O   UNL     1      42.855 -20.042   1.858  1.00  0.00    -0.343 OA
HETATM   26  H   UNL     1      42.885 -19.200   1.372  1.00  0.00     0.219 HD
ENDBRANCH  10  25
TORSDOF 5
ENDMDL
MODEL 5
REMARK VINA RESULT:      -6.7      3.444      5.985
REMARK  5 active torsions:
REMARK  status: ('A' for Active; 'I' for Inactive)
REMARK    1  A    between atoms: C_2  and  O_3 
REMARK    2  A    between atoms: C_4  and  C_5 
REMARK    3  A    between atoms: C_5  and  O_6 
REMARK    4  A    between atoms: C_9  and  C_10 
REMARK    5  A    between atoms: C_22  and  O_23 
ROOT
HETATM    1  C   UNL     1      40.232 -15.005   5.381  1.00  0.00     0.047 C 
HETATM    2  C   UNL     1      41.559 -15.013   4.597  1.00  0.00     0.073 C 
HETATM    3  C   UNL     1      41.807 -16.444   3.992  1.00  0.00     0.133 C 
HETATM    4  C   UNL     1      42.272 -17.532   5.019  1.00  0.00     0.074 C 
HETATM    5  C   UNL     1      42.862 -16.949   6.263  1.00  0.00     0.030 A 
HETATM    6  C   UNL     1      43.069 -15.601   6.460  1.00  0.00     0.042 A 
HETATM    7  N   UNL     1      43.584 -15.453   7.716  1.00  0.00    -0.279 N 
HETATM    8  H   UNL     1      43.860 -14.600   8.195  1.00  0.00     0.189 HD
HETATM    9  N   UNL     1      43.674 -16.624   8.381  1.00  0.00    -0.149 NA
HETATM   10  C   UNL     1      43.226 -17.502   7.492  1.00  0.00     0.190 A 
HETATM   11  C   UNL     1      42.722 -14.524   5.511  1.00  0.00     0.097 C 
ENDROOT
BRANCH   4  12
HETATM   12  C   UNL     1      43.294 -18.546   4.517  1.00  0.00    -0.047 A 
HETATM   13  C   UNL     1      43.021 -19.433   3.455  1.00  0.00     0.027 A 
HETATM   14  C   UNL     1      43.972 -20.368   3.045  1.00  0.00     0.011 A 
HETATM   15 BR   UNL     1      43.570 -21.549   1.624  1.00  0.00    -0.051 Br
HETATM   16  C   UNL     1      45.207 -20.443   3.679  1.00  0.00     0.019 A 
HETATM   17  C   UNL     1      45.494 -19.575   4.732  1.00  0.00     0.002 A 
HETATM   18  C   UNL     1      44.545 -18.637   5.149  1.00  0.00     0.008 A 
ENDBRANCH   4  12
BRANCH   3  19
HETATM   19  C   UNL     1      42.713 -16.344   2.781  1.00  0.00     0.266 C 
HETATM   20  O   UNL     1      43.866 -15.926   2.807  1.00  0.00    -0.265 OA
BRANCH  19  21
HETATM   21  O   UNL     1      42.048 -16.736   1.658  1.00  0.00    -0.326 OA
HETATM   22  C   UNL     1      42.063 -15.781   0.596  1.00  0.00     0.213 C 
ENDBRANCH  19  21
ENDBRANCH   3  19
BRANCH   2  23
HETATM   23  O   UNL     1      41.363 -14.048   3.549  1.00  0.00    -0.389 OA
HETATM   24  H   UNL     1      40.530 -13.568   3.736  1.00  0.00     0.210 HD
ENDBRANCH   2  23
BRANCH  10  25
HETATM   25  O   UNL     1      43.163 -18.759   7.915  1.00  0.00    -0.343 OA
HETATM   26  H   UNL     1      43.083 -18.687   8.881  1.00  0.00     0.219 HD
ENDBRANCH  10  25
TORSDOF 5
ENDMDL
MODEL 6
REMARK VINA RESULT:      -6.4      3.080      4.733
REMARK  5 active torsions:
REMARK  status: ('A' for Active; 'I' for Inactive)
REMARK    1  A    between atoms: C_2  and  O_3 
REMARK    2  A    between atoms: C_4  and  C_5 
REMARK    3  A    between atoms: C_5  and  O_6 
REMARK    4  A    between atoms: C_9  and  C_10 
REMARK    5  A    between atoms: C_22  and  O_23 
ROOT
HETATM    1  C   UNL     1      45.147 -19.195   4.730  1.00  0.00     0.047 C 
HETATM    2  C   UNL     1      43.684 -18.824   4.418  1.00  0.00     0.073 C 
HETATM    3  C   UNL     1      43.624 -17.375   3.809  1.00  0.00     0.133 C 
HETATM    4  C   UNL     1      43.823 -16.210   4.838  1.00  0.00     0.074 C 
HETATM    5  C   UNL     1      43.552 -16.622   6.249  1.00  0.00     0.030 A 
HETATM    6  C   UNL     1      43.084 -17.865   6.613  1.00  0.00     0.042 A 
HETATM    7  N   UNL     1      42.996 -17.879   7.976  1.00  0.00    -0.279 N 
HETATM    8  H   UNL     1      42.687 -18.629   8.587  1.00  0.00     0.189 HD
HETATM    9  N   UNL     1      43.436 -16.731   8.535  1.00  0.00    -0.149 NA
HETATM   10  C   UNL     1      43.772 -16.000   7.480  1.00  0.00     0.190 A 
HETATM   11  C   UNL     1      42.807 -18.989   5.696  1.00  0.00     0.097 C 
ENDROOT
BRANCH   4  12
HETATM   12  C   UNL     1      42.988 -14.954   4.609  1.00  0.00    -0.047 A 
HETATM   13  C   UNL     1      41.841 -14.658   5.375  1.00  0.00     0.027 A 
HETATM   14  C   UNL     1      41.086 -13.515   5.115  1.00  0.00     0.011 A 
HETATM   15 BR   UNL     1      39.549 -13.151   6.154  1.00  0.00    -0.051 Br
HETATM   16  C   UNL     1      41.451 -12.645   4.091  1.00  0.00     0.019 A 
HETATM   17  C   UNL     1      42.580 -12.923   3.323  1.00  0.00     0.002 A 
HETATM   18  C   UNL     1      43.341 -14.068   3.578  1.00  0.00     0.008 A 
ENDBRANCH   4  12
BRANCH   3  19
HETATM   19  C   UNL     1      42.373 -17.218   2.968  1.00  0.00     0.266 C 
HETATM   20  O   UNL     1      41.229 -17.332   3.394  1.00  0.00    -0.265 OA
BRANCH  19  21
HETATM   21  O   UNL     1      42.704 -16.985   1.666  1.00  0.00    -0.326 OA
HETATM   22  C   UNL     1      41.658 -16.412   0.882  1.00  0.00     0.213 C 
ENDBRANCH  19  21
ENDBRANCH   3  19
BRANCH   2  23
HETATM   23  O   UNL     1      43.266 -19.799   3.447  1.00  0.00    -0.389 OA
HETATM   24  H   UNL     1      42.634 -20.405   3.884  1.00  0.00     0.210 HD
ENDBRANCH   2  23
BRANCH  10  25
HETATM   25  O   UNL     1      44.292 -14.809   7.754  1.00  0.00    -0.343 OA
HETATM   26  H   UNL     1      44.760 -14.555   6.940  1.00  0.00     0.219 HD
ENDBRANCH  10  25
TORSDOF 5
ENDMDL
MODEL 7
REMARK VINA RESULT:      -6.3      3.166      5.342
REMARK  5 active torsions:
REMARK  status: ('A' for Active; 'I' for Inactive)
REMARK    1  A    between atoms: C_2  and  O_3 
REMARK    2  A    between atoms: C_4  and  C_5 
REMARK    3  A    between atoms: C_5  and  O_6 
REMARK    4  A    between atoms: C_9  and  C_10 
REMARK    5  A    between atoms: C_22  and  O_23 
ROOT
HETATM    1  C   UNL     1      40.936 -16.280   5.964  1.00  0.00     0.047 C 
HETATM    2  C   UNL     1      41.488 -15.094   5.147  1.00  0.00     0.073 C 
HETATM    3  C   UNL     1      40.374 -14.555   4.176  1.00  0.00     0.133 C 
HETATM    4  C   UNL     1      40.099 -15.445   2.917  1.00  0.00     0.074 C 
HETATM    5  C   UNL     1      41.232 -16.365   2.590  1.00  0.00     0.030 A 
HETATM    6  C   UNL     1      42.436 -16.372   3.259  1.00  0.00     0.042 A 
HETATM    7  N   UNL     1      43.197 -17.362   2.707  1.00  0.00    -0.279 N 
HETATM    8  H   UNL     1      44.141 -17.650   2.948  1.00  0.00     0.189 HD
HETATM    9  N   UNL     1      42.539 -18.047   1.747  1.00  0.00    -0.149 NA
HETATM   10  C   UNL     1      41.362 -17.436   1.705  1.00  0.00     0.190 A 
HETATM   11  C   UNL     1      42.794 -15.516   4.409  1.00  0.00     0.097 C 
ENDROOT
BRANCH   4  12
HETATM   12  C   UNL     1      39.782 -14.707   1.620  1.00  0.00    -0.047 A 
HETATM   13  C   UNL     1      40.790 -14.242   0.749  1.00  0.00     0.027 A 
HETATM   14  C   UNL     1      40.460 -13.543  -0.412  1.00  0.00     0.011 A 
HETATM   15 BR   UNL     1      41.834 -12.925  -1.554  1.00  0.00    -0.051 Br
HETATM   16  C   UNL     1      39.130 -13.290  -0.730  1.00  0.00     0.019 A 
HETATM   17  C   UNL     1      38.121 -13.741   0.120  1.00  0.00     0.002 A 
HETATM   18  C   UNL     1      38.445 -14.441   1.286  1.00  0.00     0.008 A 
ENDBRANCH   4  12
BRANCH   3  19
HETATM   19  C   UNL     1      40.645 -13.104   3.832  1.00  0.00     0.266 C 
HETATM   20  O   UNL     1      41.750 -12.649   3.559  1.00  0.00    -0.265 OA
BRANCH  19  21
HETATM   21  O   UNL     1      39.497 -12.375   3.918  1.00  0.00    -0.326 OA
HETATM   22  C   UNL     1      39.048 -12.130   5.251  1.00  0.00     0.213 C 
ENDBRANCH  19  21
ENDBRANCH   3  19
BRANCH   2  23
HETATM   23  O   UNL     1      41.821 -14.103   6.135  1.00  0.00    -0.389 OA
HETATM   24  H   UNL     1      42.311 -14.550   6.855  1.00  0.00     0.210 HD
ENDBRANCH   2  23
BRANCH  10  25
HETATM   25  O   UNL     1      40.482 -17.952   0.854  1.00  0.00    -0.343 OA
HETATM   26  H   UNL     1      40.255 -18.818   1.236  1.00  0.00     0.219 HD
ENDBRANCH  10  25
TORSDOF 5
ENDMDL
MODEL 8
REMARK VINA RESULT:      -6.3      2.972      5.082
REMARK  5 active torsions:
REMARK  status: ('A' for Active; 'I' for Inactive)
REMARK    1  A    between atoms: C_2  and  O_3 
REMARK    2  A    between atoms: C_4  and  C_5 
REMARK    3  A    between atoms: C_5  and  O_6 
REMARK    4  A    between atoms: C_9  and  C_10 
REMARK    5  A    between atoms: C_22  and  O_23 
ROOT
HETATM    1  C   UNL     1      41.899 -11.920   1.375  1.00  0.00     0.047 C 
HETATM    2  C   UNL     1      40.929 -12.670   2.309  1.00  0.00     0.073 C 
HETATM    3  C   UNL     1      41.746 -13.497   3.368  1.00  0.00     0.133 C 
HETATM    4  C   UNL     1      42.414 -14.805   2.822  1.00  0.00     0.074 C 
HETATM    5  C   UNL     1      41.786 -15.301   1.559  1.00  0.00     0.030 A 
HETATM    6  C   UNL     1      40.674 -14.733   0.976  1.00  0.00     0.042 A 
HETATM    7  N   UNL     1      40.420 -15.430  -0.170  1.00  0.00    -0.279 N 
HETATM    8  H   UNL     1      39.677 -15.291  -0.848  1.00  0.00     0.189 HD
HETATM    9  N   UNL     1      41.339 -16.391  -0.406  1.00  0.00    -0.149 NA
HETATM   10  C   UNL     1      42.150 -16.285   0.639  1.00  0.00     0.190 A 
HETATM   11  C   UNL     1      39.949 -13.544   1.470  1.00  0.00     0.097 C 
ENDROOT
BRANCH   4  12
HETATM   12  C   UNL     1      42.436 -16.002   3.767  1.00  0.00    -0.047 A 
HETATM   13  C   UNL     1      43.552 -16.309   4.573  1.00  0.00     0.027 A 
HETATM   14  C   UNL     1      43.544 -17.431   5.401  1.00  0.00     0.011 A 
HETATM   15 BR   UNL     1      45.060 -17.822   6.462  1.00  0.00    -0.051 Br
HETATM   16  C   UNL     1      42.434 -18.268   5.447  1.00  0.00     0.019 A 
HETATM   17  C   UNL     1      41.323 -17.980   4.656  1.00  0.00     0.002 A 
HETATM   18  C   UNL     1      41.324 -16.858   3.822  1.00  0.00     0.008 A 
ENDBRANCH   4  12
BRANCH   3  19
HETATM   19  C   UNL     1      40.902 -13.733   4.604  1.00  0.00     0.266 C 
HETATM   20  O   UNL     1      39.720 -14.059   4.588  1.00  0.00    -0.265 OA
BRANCH  19  21
HETATM   21  O   UNL     1      41.629 -13.481   5.730  1.00  0.00    -0.326 OA
HETATM   22  C   UNL     1      41.617 -12.117   6.151  1.00  0.00     0.213 C 
ENDBRANCH  19  21
ENDBRANCH   3  19
BRANCH   2  23
HETATM   23  O   UNL     1      40.175 -11.628   2.953  1.00  0.00    -0.389 OA
HETATM   24  H   UNL     1      39.298 -11.581   2.520  1.00  0.00     0.210 HD
ENDBRANCH   2  23
BRANCH  10  25
HETATM   25  O   UNL     1      43.195 -17.105   0.635  1.00  0.00    -0.343 OA
HETATM   26  H   UNL     1      43.588 -16.993  -0.248  1.00  0.00     0.219 HD
ENDBRANCH  10  25
TORSDOF 5
ENDMDL
MODEL 9
REMARK VINA RESULT:      -6.3      3.395      5.177
REMARK  5 active torsions:
REMARK  status: ('A' for Active; 'I' for Inactive)
REMARK    1  A    between atoms: C_2  and  O_3 
REMARK    2  A    between atoms: C_4  and  C_5 
REMARK    3  A    between atoms: C_5  and  O_6 
REMARK    4  A    between atoms: C_9  and  C_10 
REMARK    5  A    between atoms: C_22  and  O_23 
ROOT
HETATM    1  C   UNL     1      43.619 -16.845   5.456  1.00  0.00     0.047 C 
HETATM    2  C   UNL     1      42.451 -17.185   4.508  1.00  0.00     0.073 C 
HETATM    3  C   UNL     1      42.566 -16.323   3.197  1.00  0.00     0.133 C 
HETATM    4  C   UNL     1      42.158 -14.818   3.350  1.00  0.00     0.074 C 
HETATM    5  C   UNL     1      41.287 -14.565   4.539  1.00  0.00     0.030 A 
HETATM    6  C   UNL     1      40.808 -15.555   5.369  1.00  0.00     0.042 A 
HETATM    7  N   UNL     1      40.088 -14.941   6.353  1.00  0.00    -0.279 N 
HETATM    8  H   UNL     1      39.591 -15.360   7.134  1.00  0.00     0.189 HD
HETATM    9  N   UNL     1      40.115 -13.595   6.253  1.00  0.00    -0.149 NA
HETATM   10  C   UNL     1      40.847 -13.397   5.164  1.00  0.00     0.190 A 
HETATM   11  C   UNL     1      41.092 -16.999   5.247  1.00  0.00     0.097 C 
ENDROOT
BRANCH   4  12
HETATM   12  C   UNL     1      41.429 -14.189   2.167  1.00  0.00    -0.047 A 
HETATM   13  C   UNL     1      40.031 -14.283   2.003  1.00  0.00     0.027 A 
HETATM   14  C   UNL     1      39.406 -13.721   0.890  1.00  0.00     0.011 A 
HETATM   15 BR   UNL     1      37.531 -13.872   0.695  1.00  0.00    -0.051 Br
HETATM   16  C   UNL     1      40.151 -13.059  -0.080  1.00  0.00     0.019 A 
HETATM   17  C   UNL     1      41.534 -12.959   0.065  1.00  0.00     0.002 A 
HETATM   18  C   UNL     1      42.167 -13.521   1.177  1.00  0.00     0.008 A 
ENDBRANCH   4  12
BRANCH   3  19
HETATM   19  C   UNL     1      41.853 -17.019   2.056  1.00  0.00     0.266 C 
HETATM   20  O   UNL     1      40.733 -17.513   2.132  1.00  0.00    -0.265 OA
BRANCH  19  21
HETATM   21  O   UNL     1      42.654 -17.062   0.953  1.00  0.00    -0.326 OA
HETATM   22  C   UNL     1      44.013 -17.405   1.220  1.00  0.00     0.213 C 
ENDBRANCH  19  21
ENDBRANCH   3  19
BRANCH   2  23
HETATM   23  O   UNL     1      42.625 -18.581   4.212  1.00  0.00    -0.389 OA
HETATM   24  H   UNL     1      42.963 -18.654   3.296  1.00  0.00     0.210 HD
ENDBRANCH   2  23
BRANCH  10  25
HETATM   25  O   UNL     1      41.075 -12.125   4.854  1.00  0.00    -0.343 OA
HETATM   26  H   UNL     1      42.038 -12.074   4.730  1.00  0.00     0.219 HD
ENDBRANCH  10  25
TORSDOF 5
ENDMDL
MODEL 10
REMARK VINA RESULT:      -6.2      3.380      5.223
REMARK  5 active torsions:
REMARK  status: ('A' for Active; 'I' for Inactive)
REMARK    1  A    between atoms: C_2  and  O_3 
REMARK    2  A    between atoms: C_4  and  C_5 
REMARK    3  A    between atoms: C_5  and  O_6 
REMARK    4  A    between atoms: C_9  and  C_10 
REMARK    5  A    between atoms: C_22  and  O_23 
ROOT
HETATM    1  C   UNL     1      44.020 -14.986   6.453  1.00  0.00     0.047 C 
HETATM    2  C   UNL     1      43.175 -15.965   5.612  1.00  0.00     0.073 C 
HETATM    3  C   UNL     1      43.180 -15.510   4.107  1.00  0.00     0.133 C 
HETATM    4  C   UNL     1      42.280 -14.270   3.781  1.00  0.00     0.074 C 
HETATM    5  C   UNL     1      41.218 -14.032   4.806  1.00  0.00     0.030 A 
HETATM    6  C   UNL     1      40.982 -14.862   5.880  1.00  0.00     0.042 A 
HETATM    7  N   UNL     1      39.970 -14.303   6.606  1.00  0.00    -0.279 N 
HETATM    8  H   UNL     1      39.535 -14.642   7.459  1.00  0.00     0.189 HD
HETATM    9  N   UNL     1      39.563 -13.118   6.102  1.00  0.00    -0.149 NA
HETATM   10  C   UNL     1      40.333 -12.975   5.030  1.00  0.00     0.190 A 
HETATM   11  C   UNL     1      41.742 -16.084   6.213  1.00  0.00     0.097 C 
ENDROOT
BRANCH   4  12
HETATM   12  C   UNL     1      41.557 -14.291   2.438  1.00  0.00    -0.047 A 
HETATM   13  C   UNL     1      42.088 -13.680   1.283  1.00  0.00     0.027 A 
HETATM   14  C   UNL     1      41.381 -13.694   0.081  1.00  0.00     0.011 A 
HETATM   15 BR   UNL     1      42.117 -12.858  -1.447  1.00  0.00    -0.051 Br
HETATM   16  C   UNL     1      40.137 -14.311   0.000  1.00  0.00     0.019 A 
HETATM   17  C   UNL     1      39.595 -14.918   1.132  1.00  0.00     0.002 A 
HETATM   18  C   UNL     1      40.298 -14.907   2.341  1.00  0.00     0.008 A 
ENDBRANCH   4  12
BRANCH   3  19
HETATM   19  C   UNL     1      42.905 -16.698   3.206  1.00  0.00     0.266 C 
HETATM   20  O   UNL     1      42.047 -17.548   3.419  1.00  0.00    -0.265 OA
BRANCH  19  21
HETATM   21  O   UNL     1      43.777 -16.711   2.159  1.00  0.00    -0.326 OA
HETATM   22  C   UNL     1      43.289 -17.367   0.989  1.00  0.00     0.213 C 
ENDBRANCH  19  21
ENDBRANCH   3  19
BRANCH   2  23
HETATM   23  O   UNL     1      43.840 -17.231   5.761  1.00  0.00    -0.389 OA
HETATM   24  H   UNL     1      43.995 -17.595   4.865  1.00  0.00     0.210 HD
ENDBRANCH   2  23
BRANCH  10  25
HETATM   25  O   UNL     1      40.168 -11.842   4.357  1.00  0.00    -0.343 OA
HETATM   26  H   UNL     1      39.418 -11.406   4.796  1.00  0.00     0.219 HD
ENDBRANCH  10  25
TORSDOF 5
ENDMDL
