MODEL 1
REMARK VINA RESULT:      -9.5      0.000      0.000
REMARK  6 active torsions:
REMARK  status: ('A' for Active; 'I' for Inactive)
REMARK    1  A    between atoms: C_3  and  O_4 
REMARK    2  A    between atoms: O_4  and  C_5 
REMARK    3  A    between atoms: C_5  and  C_6 
REMARK       I    between atoms: C_6  and  N_7 
REMARK    4  A    between atoms: N_7  and  C_8 
REMARK    5  A    between atoms: C_8  and  C_9 
REMARK       I    between atoms: C_9  and  N_10 
REMARK    6  A    between atoms: N_10  and  N_11 
ROOT
HETATM    1  C   UNL     1      43.822 -13.876   6.454  1.00  0.00     0.255 C 
HETATM    2  N   UNL     1      43.842 -15.157   6.976  1.00  0.00    -0.245 N 
HETATM    3  O   UNL     1      43.978 -13.595   5.266  1.00  0.00    -0.270 OA
HETATM    4  H   UNL     1      43.755 -15.297   7.986  1.00  0.00     0.192 HD
ENDROOT
BRANCH   1   5
HETATM    5  C   UNL     1      43.657 -12.775   7.502  1.00  0.00     0.227 C 
BRANCH   5   6
HETATM    6  N   UNL     1      44.433 -12.964   8.723  1.00  0.00    -0.350 N 
HETATM    7  C   UNL     1      44.295 -12.297   9.911  1.00  0.00     0.242 C 
HETATM    8  O   UNL     1      44.882 -12.730  10.903  1.00  0.00    -0.271 OA
HETATM    9  H   UNL     1      45.008 -13.797   8.800  1.00  0.00     0.163 HD
BRANCH   7  10
HETATM   10  C   UNL     1      43.385 -11.076   9.980  1.00  0.00     0.278 C 
BRANCH  10  11
HETATM   11  O   UNL     1      42.357 -11.325  10.931  1.00  0.00    -0.342 OA
BRANCH  11  12
HETATM   12  C   UNL     1      42.464 -10.681  12.135  1.00  0.00     0.075 A 
HETATM   13  C   UNL     1      41.449 -10.943  13.072  1.00  0.00    -0.029 A 
HETATM   14  C   UNL     1      40.266 -11.813  12.744  1.00  0.00     0.051 C 
HETATM   15  C   UNL     1      41.498 -10.318  14.329  1.00  0.00     0.009 A 
HETATM   16  C   UNL     1      42.556  -9.475  14.664  1.00  0.00     0.001 A 
HETATM   17  C   UNL     1      43.571  -9.241  13.744  1.00  0.00     0.003 A 
HETATM   18  C   UNL     1      43.527  -9.841  12.483  1.00  0.00     0.037 A 
ENDBRANCH  11  12
ENDBRANCH  10  11
ENDBRANCH   7  10
ENDBRANCH   5   6
ENDBRANCH   1   5
BRANCH   2  19
HETATM   19  N   UNL     1      43.992 -16.230   6.147  1.00  0.00    -0.166 NA
HETATM   20  C   UNL     1      43.936 -17.403   6.688  1.00  0.00     0.157 A 
HETATM   21  C   UNL     1      43.697 -17.769   8.153  1.00  0.00     0.277 A 
HETATM   22  C   UNL     1      44.079 -18.668   5.978  1.00  0.00     0.028 A 
HETATM   23  O   UNL     1      43.530 -16.966   9.047  1.00  0.00    -0.266 OA
HETATM   24  N   UNL     1      43.709 -19.146   8.198  1.00  0.00    -0.321 N 
HETATM   25  C   UNL     1      43.933 -19.677   6.930  1.00  0.00     0.048 A 
HETATM   26  H   UNL     1      43.570 -19.674   9.048  1.00  0.00     0.169 HD
HETATM   27  C   UNL     1      44.011 -21.008   6.579  1.00  0.00     0.032 A 
HETATM   28  C   UNL     1      44.246 -21.302   5.229  1.00  0.00     0.021 A 
HETATM   29  C   UNL     1      44.394 -20.271   4.278  1.00  0.00     0.012 A 
HETATM   30 BR   UNL     1      44.713 -20.723   2.468  1.00  0.00    -0.051 Br
HETATM   31  C   UNL     1      44.311 -18.928   4.643  1.00  0.00     0.035 A 
ENDBRANCH   2  19
TORSDOF 6
ENDMDL
MODEL 2
REMARK VINA RESULT:      -9.2      5.539      9.630
REMARK  6 active torsions:
REMARK  status: ('A' for Active; 'I' for Inactive)
REMARK    1  A    between atoms: C_3  and  O_4 
REMARK    2  A    between atoms: O_4  and  C_5 
REMARK    3  A    between atoms: C_5  and  C_6 
REMARK       I    between atoms: C_6  and  N_7 
REMARK    4  A    between atoms: N_7  and  C_8 
REMARK    5  A    between atoms: C_8  and  C_9 
REMARK       I    between atoms: C_9  and  N_10 
REMARK    6  A    between atoms: N_10  and  N_11 
ROOT
HETATM    1  C   UNL     1      43.614 -14.741   6.043  1.00  0.00     0.255 C 
HETATM    2  N   UNL     1      42.243 -14.909   6.118  1.00  0.00    -0.245 N 
HETATM    3  O   UNL     1      44.188 -13.953   5.291  1.00  0.00    -0.270 OA
HETATM    4  H   UNL     1      41.851 -15.625   6.736  1.00  0.00     0.192 HD
ENDROOT
BRANCH   1   5
HETATM    5  C   UNL     1      44.412 -15.686   6.941  1.00  0.00     0.227 C 
BRANCH   5   6
HETATM    6  N   UNL     1      43.700 -16.890   7.356  1.00  0.00    -0.350 N 
HETATM    7  C   UNL     1      44.009 -18.188   7.049  1.00  0.00     0.242 C 
HETATM    8  O   UNL     1      43.435 -19.092   7.659  1.00  0.00    -0.271 OA
HETATM    9  H   UNL     1      43.021 -16.810   8.106  1.00  0.00     0.163 HD
BRANCH   7  10
HETATM   10  C   UNL     1      45.082 -18.474   6.005  1.00  0.00     0.278 C 
BRANCH  10  11
HETATM   11  O   UNL     1      44.470 -18.515   4.721  1.00  0.00    -0.342 OA
BRANCH  11  12
HETATM   12  C   UNL     1      44.443 -19.731   4.092  1.00  0.00     0.075 A 
HETATM   13  C   UNL     1      44.108 -19.717   2.727  1.00  0.00    -0.029 A 
HETATM   14  C   UNL     1      43.717 -18.450   2.015  1.00  0.00     0.051 C 
HETATM   15  C   UNL     1      44.064 -20.929   2.018  1.00  0.00     0.009 A 
HETATM   16  C   UNL     1      44.383 -22.132   2.645  1.00  0.00     0.001 A 
HETATM   17  C   UNL     1      44.740 -22.137   3.988  1.00  0.00     0.003 A 
HETATM   18  C   UNL     1      44.771 -20.942   4.711  1.00  0.00     0.037 A 
ENDBRANCH  11  12
ENDBRANCH  10  11
ENDBRANCH   7  10
ENDBRANCH   5   6
ENDBRANCH   1   5
BRANCH   2  19
HETATM   19  N   UNL     1      41.416 -14.133   5.359  1.00  0.00    -0.166 NA
HETATM   20  C   UNL     1      40.845 -14.699   4.347  1.00  0.00     0.157 A 
HETATM   21  C   UNL     1      40.946 -16.152   3.881  1.00  0.00     0.277 A 
HETATM   22  C   UNL     1      39.937 -14.042   3.414  1.00  0.00     0.028 A 
HETATM   23  O   UNL     1      41.617 -17.005   4.422  1.00  0.00    -0.266 OA
HETATM   24  N   UNL     1      40.131 -16.244   2.774  1.00  0.00    -0.321 N 
HETATM   25  C   UNL     1      39.539 -15.014   2.496  1.00  0.00     0.048 A 
HETATM   26  H   UNL     1      39.997 -17.099   2.254  1.00  0.00     0.169 HD
HETATM   27  C   UNL     1      38.666 -14.715   1.472  1.00  0.00     0.032 A 
HETATM   28  C   UNL     1      38.198 -13.396   1.393  1.00  0.00     0.021 A 
HETATM   29  C   UNL     1      38.611 -12.423   2.328  1.00  0.00     0.012 A 
HETATM   30 BR   UNL     1      37.952 -10.656   2.174  1.00  0.00    -0.051 Br
HETATM   31  C   UNL     1      39.493 -12.737   3.361  1.00  0.00     0.035 A 
ENDBRANCH   2  19
TORSDOF 6
ENDMDL
MODEL 3
REMARK VINA RESULT:      -9.2      5.758      9.626
REMARK  6 active torsions:
REMARK  status: ('A' for Active; 'I' for Inactive)
REMARK    1  A    between atoms: C_3  and  O_4 
REMARK    2  A    between atoms: O_4  and  C_5 
REMARK    3  A    between atoms: C_5  and  C_6 
REMARK       I    between atoms: C_6  and  N_7 
REMARK    4  A    between atoms: N_7  and  C_8 
REMARK    5  A    between atoms: C_8  and  C_9 
REMARK       I    between atoms: C_9  and  N_10 
REMARK    6  A    between atoms: N_10  and  N_11 
ROOT
HETATM    1  C   UNL     1      43.145 -13.688   3.959  1.00  0.00     0.255 C 
HETATM    2  N   UNL     1      41.963 -13.529   3.258  1.00  0.00    -0.245 N 
HETATM    3  O   UNL     1      44.271 -13.653   3.461  1.00  0.00    -0.270 OA
HETATM    4  H   UNL     1      41.067 -13.624   3.744  1.00  0.00     0.192 HD
ENDROOT
BRANCH   1   5
HETATM    5  C   UNL     1      42.957 -13.994   5.445  1.00  0.00     0.227 C 
BRANCH   5   6
HETATM    6  N   UNL     1      41.991 -15.047   5.740  1.00  0.00    -0.350 N 
HETATM    7  C   UNL     1      42.246 -16.375   5.956  1.00  0.00     0.242 C 
HETATM    8  O   UNL     1      41.345 -17.083   6.408  1.00  0.00    -0.271 OA
HETATM    9  H   UNL     1      41.053 -14.773   6.015  1.00  0.00     0.163 HD
BRANCH   7  10
HETATM   10  C   UNL     1      43.642 -16.922   5.680  1.00  0.00     0.278 C 
BRANCH  10  11
HETATM   11  O   UNL     1      43.689 -17.396   4.340  1.00  0.00    -0.342 OA
BRANCH  11  12
HETATM   12  C   UNL     1      44.017 -18.714   4.164  1.00  0.00     0.075 A 
HETATM   13  C   UNL     1      44.064 -19.173   2.836  1.00  0.00    -0.029 A 
HETATM   14  C   UNL     1      43.690 -18.291   1.676  1.00  0.00     0.051 C 
HETATM   15  C   UNL     1      44.398 -20.513   2.584  1.00  0.00     0.009 A 
HETATM   16  C   UNL     1      44.716 -21.376   3.631  1.00  0.00     0.001 A 
HETATM   17  C   UNL     1      44.694 -20.911   4.941  1.00  0.00     0.003 A 
HETATM   18  C   UNL     1      44.347 -19.585   5.208  1.00  0.00     0.037 A 
ENDBRANCH  11  12
ENDBRANCH  10  11
ENDBRANCH   7  10
ENDBRANCH   5   6
ENDBRANCH   1   5
BRANCH   2  19
HETATM   19  N   UNL     1      41.992 -13.260   1.921  1.00  0.00    -0.166 NA
HETATM   20  C   UNL     1      41.623 -14.209   1.123  1.00  0.00     0.157 A 
HETATM   21  C   UNL     1      41.124 -15.611   1.473  1.00  0.00     0.277 A 
HETATM   22  C   UNL     1      41.590 -14.123  -0.332  1.00  0.00     0.028 A 
HETATM   23  O   UNL     1      41.014 -16.044   2.600  1.00  0.00    -0.266 OA
HETATM   24  N   UNL     1      40.843 -16.216   0.267  1.00  0.00    -0.321 N 
HETATM   25  C   UNL     1      41.113 -15.351  -0.791  1.00  0.00     0.048 A 
HETATM   26  H   UNL     1      40.488 -17.158   0.189  1.00  0.00     0.169 HD
HETATM   27  C   UNL     1      40.957 -15.598  -2.138  1.00  0.00     0.032 A 
HETATM   28  C   UNL     1      41.298 -14.566  -3.023  1.00  0.00     0.021 A 
HETATM   29  C   UNL     1      41.781 -13.330  -2.544  1.00  0.00     0.012 A 
HETATM   30 BR   UNL     1      42.231 -11.971  -3.782  1.00  0.00    -0.051 Br
HETATM   31  C   UNL     1      41.934 -13.090  -1.179  1.00  0.00     0.035 A 
ENDBRANCH   2  19
TORSDOF 6
ENDMDL
MODEL 4
REMARK VINA RESULT:      -8.9      6.636     10.583
REMARK  6 active torsions:
REMARK  status: ('A' for Active; 'I' for Inactive)
REMARK    1  A    between atoms: C_3  and  O_4 
REMARK    2  A    between atoms: O_4  and  C_5 
REMARK    3  A    between atoms: C_5  and  C_6 
REMARK       I    between atoms: C_6  and  N_7 
REMARK    4  A    between atoms: N_7  and  C_8 
REMARK    5  A    between atoms: C_8  and  C_9 
REMARK       I    between atoms: C_9  and  N_10 
REMARK    6  A    between atoms: N_10  and  N_11 
ROOT
HETATM    1  C   UNL     1      40.993 -16.216   4.207  1.00  0.00     0.255 C 
HETATM    2  N   UNL     1      40.539 -16.564   2.947  1.00  0.00    -0.245 N 
HETATM    3  O   UNL     1      40.901 -15.094   4.705  1.00  0.00    -0.270 OA
HETATM    4  H   UNL     1      40.703 -17.509   2.591  1.00  0.00     0.192 HD
ENDROOT
BRANCH   1   5
HETATM    5  C   UNL     1      41.711 -17.344   4.948  1.00  0.00     0.227 C 
BRANCH   5   6
HETATM    6  N   UNL     1      42.838 -16.921   5.773  1.00  0.00    -0.350 N 
HETATM    7  C   UNL     1      43.866 -17.696   6.240  1.00  0.00     0.242 C 
HETATM    8  O   UNL     1      44.847 -17.140   6.735  1.00  0.00    -0.271 OA
HETATM    9  H   UNL     1      43.017 -15.927   5.864  1.00  0.00     0.163 HD
BRANCH   7  10
HETATM   10  C   UNL     1      43.787 -19.211   6.089  1.00  0.00     0.278 C 
BRANCH  10  11
HETATM   11  O   UNL     1      44.865 -19.645   5.268  1.00  0.00    -0.342 OA
BRANCH  11  12
HETATM   12  C   UNL     1      44.532 -20.248   4.085  1.00  0.00     0.075 A 
HETATM   13  C   UNL     1      44.706 -21.642   4.027  1.00  0.00    -0.029 A 
HETATM   14  C   UNL     1      45.304 -22.418   5.169  1.00  0.00     0.051 C 
HETATM   15  C   UNL     1      44.381 -22.326   2.844  1.00  0.00     0.009 A 
HETATM   16  C   UNL     1      43.858 -21.643   1.748  1.00  0.00     0.001 A 
HETATM   17  C   UNL     1      43.663 -20.269   1.819  1.00  0.00     0.003 A 
HETATM   18  C   UNL     1      43.998 -19.572   2.983  1.00  0.00     0.037 A 
ENDBRANCH  11  12
ENDBRANCH  10  11
ENDBRANCH   7  10
ENDBRANCH   5   6
ENDBRANCH   1   5
BRANCH   2  19
HETATM   19  N   UNL     1      39.888 -15.644   2.178  1.00  0.00    -0.166 NA
HETATM   20  C   UNL     1      40.373 -15.415   1.001  1.00  0.00     0.157 A 
HETATM   21  C   UNL     1      41.584 -16.058   0.324  1.00  0.00     0.277 A 
HETATM   22  C   UNL     1      39.830 -14.469   0.034  1.00  0.00     0.028 A 
HETATM   23  O   UNL     1      42.290 -16.903   0.832  1.00  0.00    -0.266 OA
HETATM   24  N   UNL     1      41.660 -15.482  -0.924  1.00  0.00    -0.321 N 
HETATM   25  C   UNL     1      40.638 -14.552  -1.100  1.00  0.00     0.048 A 
HETATM   26  H   UNL     1      42.369 -15.721  -1.603  1.00  0.00     0.169 HD
HETATM   27  C   UNL     1      40.388 -13.779  -2.213  1.00  0.00     0.032 A 
HETATM   28  C   UNL     1      39.292 -12.907  -2.156  1.00  0.00     0.021 A 
HETATM   29  C   UNL     1      38.485 -12.832  -1.002  1.00  0.00     0.012 A 
HETATM   30 BR   UNL     1      37.020 -11.635  -0.974  1.00  0.00    -0.051 Br
HETATM   31  C   UNL     1      38.745 -13.620   0.119  1.00  0.00     0.035 A 
ENDBRANCH   2  19
TORSDOF 6
ENDMDL
MODEL 5
REMARK VINA RESULT:      -8.8      5.918      9.930
REMARK  6 active torsions:
REMARK  status: ('A' for Active; 'I' for Inactive)
REMARK    1  A    between atoms: C_3  and  O_4 
REMARK    2  A    between atoms: O_4  and  C_5 
REMARK    3  A    between atoms: C_5  and  C_6 
REMARK       I    between atoms: C_6  and  N_7 
REMARK    4  A    between atoms: N_7  and  C_8 
REMARK    5  A    between atoms: C_8  and  C_9 
REMARK       I    between atoms: C_9  and  N_10 
REMARK    6  A    between atoms: N_10  and  N_11 
ROOT
HETATM    1  C   UNL     1      42.210 -15.773   5.578  1.00  0.00     0.255 C 
HETATM    2  N   UNL     1      41.231 -15.467   4.649  1.00  0.00    -0.245 N 
HETATM    3  O   UNL     1      43.357 -15.325   5.568  1.00  0.00    -0.270 OA
HETATM    4  H   UNL     1      40.318 -15.926   4.703  1.00  0.00     0.192 HD
ENDROOT
BRANCH   1   5
HETATM    5  C   UNL     1      41.782 -16.803   6.623  1.00  0.00     0.227 C 
BRANCH   5   6
HETATM    6  N   UNL     1      42.856 -17.297   7.478  1.00  0.00    -0.350 N 
HETATM    7  C   UNL     1      43.660 -18.385   7.263  1.00  0.00     0.242 C 
HETATM    8  O   UNL     1      44.656 -18.532   7.972  1.00  0.00    -0.271 OA
HETATM    9  H   UNL     1      43.200 -16.688   8.213  1.00  0.00     0.163 HD
BRANCH   7  10
HETATM   10  C   UNL     1      43.326 -19.347   6.128  1.00  0.00     0.278 C 
BRANCH  10  11
HETATM   11  O   UNL     1      44.497 -19.557   5.349  1.00  0.00    -0.342 OA
BRANCH  11  12
HETATM   12  C   UNL     1      44.324 -20.150   4.127  1.00  0.00     0.075 A 
HETATM   13  C   UNL     1      44.621 -21.522   4.053  1.00  0.00    -0.029 A 
HETATM   14  C   UNL     1      45.178 -22.280   5.227  1.00  0.00     0.051 C 
HETATM   15  C   UNL     1      44.463 -22.195   2.830  1.00  0.00     0.009 A 
HETATM   16  C   UNL     1      43.984 -21.524   1.707  1.00  0.00     0.001 A 
HETATM   17  C   UNL     1      43.667 -20.173   1.791  1.00  0.00     0.003 A 
HETATM   18  C   UNL     1      43.836 -19.487   2.996  1.00  0.00     0.037 A 
ENDBRANCH  11  12
ENDBRANCH  10  11
ENDBRANCH   7  10
ENDBRANCH   5   6
ENDBRANCH   1   5
BRANCH   2  19
HETATM   19  N   UNL     1      41.489 -14.567   3.657  1.00  0.00    -0.166 NA
HETATM   20  C   UNL     1      41.300 -14.964   2.441  1.00  0.00     0.157 A 
HETATM   21  C   UNL     1      40.796 -16.320   1.945  1.00  0.00     0.277 A 
HETATM   22  C   UNL     1      41.523 -14.159   1.246  1.00  0.00     0.028 A 
HETATM   23  O   UNL     1      40.502 -17.252   2.664  1.00  0.00    -0.266 OA
HETATM   24  N   UNL     1      40.755 -16.221   0.572  1.00  0.00    -0.321 N 
HETATM   25  C   UNL     1      41.179 -14.961   0.157  1.00  0.00     0.048 A 
HETATM   26  H   UNL     1      40.452 -16.974  -0.029  1.00  0.00     0.169 HD
HETATM   27  C   UNL     1      41.273 -14.490  -1.135  1.00  0.00     0.032 A 
HETATM   28  C   UNL     1      41.731 -13.176  -1.307  1.00  0.00     0.021 A 
HETATM   29  C   UNL     1      42.077 -12.378  -0.196  1.00  0.00     0.012 A 
HETATM   30 BR   UNL     1      42.692 -10.612  -0.484  1.00  0.00    -0.051 Br
HETATM   31  C   UNL     1      41.976 -12.863   1.107  1.00  0.00     0.035 A 
ENDBRANCH   2  19
TORSDOF 6
ENDMDL
MODEL 6
REMARK VINA RESULT:      -8.5      5.420      7.981
REMARK  6 active torsions:
REMARK  status: ('A' for Active; 'I' for Inactive)
REMARK    1  A    between atoms: C_3  and  O_4 
REMARK    2  A    between atoms: O_4  and  C_5 
REMARK    3  A    between atoms: C_5  and  C_6 
REMARK       I    between atoms: C_6  and  N_7 
REMARK    4  A    between atoms: N_7  and  C_8 
REMARK    5  A    between atoms: C_8  and  C_9 
REMARK       I    between atoms: C_9  and  N_10 
REMARK    6  A    between atoms: N_10  and  N_11 
ROOT
HETATM    1  C   UNL     1      42.650 -13.694   3.784  1.00  0.00     0.255 C 
HETATM    2  N   UNL     1      42.126 -14.836   4.363  1.00  0.00    -0.245 N 
HETATM    3  O   UNL     1      43.500 -13.680   2.894  1.00  0.00    -0.270 OA
HETATM    4  H   UNL     1      41.458 -14.755   5.135  1.00  0.00     0.192 HD
ENDROOT
BRANCH   1   5
HETATM    5  C   UNL     1      42.136 -12.390   4.395  1.00  0.00     0.227 C 
BRANCH   5   6
HETATM    6  N   UNL     1      41.675 -11.396   3.431  1.00  0.00    -0.350 N 
HETATM    7  C   UNL     1      40.490 -11.388   2.745  1.00  0.00     0.242 C 
HETATM    8  O   UNL     1      40.166 -10.366   2.138  1.00  0.00    -0.271 OA
HETATM    9  H   UNL     1      42.166 -10.509   3.386  1.00  0.00     0.163 HD
BRANCH   7  10
HETATM   10  C   UNL     1      39.590 -12.618   2.793  1.00  0.00     0.278 C 
BRANCH  10  11
HETATM   11  O   UNL     1      39.523 -13.185   1.490  1.00  0.00    -0.342 OA
BRANCH  11  12
HETATM   12  C   UNL     1      40.006 -14.459   1.347  1.00  0.00     0.075 A 
HETATM   13  C   UNL     1      41.123 -14.611   0.509  1.00  0.00    -0.029 A 
HETATM   14  C   UNL     1      41.706 -13.455  -0.258  1.00  0.00     0.051 C 
HETATM   15  C   UNL     1      41.672 -15.890   0.320  1.00  0.00     0.009 A 
HETATM   16  C   UNL     1      41.142 -16.995   0.982  1.00  0.00     0.001 A 
HETATM   17  C   UNL     1      40.053 -16.836   1.832  1.00  0.00     0.003 A 
HETATM   18  C   UNL     1      39.486 -15.573   2.015  1.00  0.00     0.037 A 
ENDBRANCH  11  12
ENDBRANCH  10  11
ENDBRANCH   7  10
ENDBRANCH   5   6
ENDBRANCH   1   5
BRANCH   2  19
HETATM   19  N   UNL     1      42.509 -16.066   3.914  1.00  0.00    -0.166 NA
HETATM   20  C   UNL     1      43.142 -16.824   4.749  1.00  0.00     0.157 A 
HETATM   21  C   UNL     1      43.511 -16.542   6.206  1.00  0.00     0.277 A 
HETATM   22  C   UNL     1      43.640 -18.164   4.462  1.00  0.00     0.028 A 
HETATM   23  O   UNL     1      43.253 -15.515   6.797  1.00  0.00    -0.266 OA
HETATM   24  N   UNL     1      44.157 -17.675   6.650  1.00  0.00    -0.321 N 
HETATM   25  C   UNL     1      44.236 -18.626   5.636  1.00  0.00     0.048 A 
HETATM   26  H   UNL     1      44.513 -17.777   7.590  1.00  0.00     0.169 HD
HETATM   27  C   UNL     1      44.807 -19.879   5.701  1.00  0.00     0.032 A 
HETATM   28  C   UNL     1      44.766 -20.664   4.542  1.00  0.00     0.021 A 
HETATM   29  C   UNL     1      44.161 -20.183   3.362  1.00  0.00     0.012 A 
HETATM   30 BR   UNL     1      44.135 -21.283   1.822  1.00  0.00    -0.051 Br
HETATM   31  C   UNL     1      43.584 -18.915   3.306  1.00  0.00     0.035 A 
ENDBRANCH   2  19
TORSDOF 6
ENDMDL
MODEL 7
REMARK VINA RESULT:      -8.4      3.161      4.331
REMARK  6 active torsions:
REMARK  status: ('A' for Active; 'I' for Inactive)
REMARK    1  A    between atoms: C_3  and  O_4 
REMARK    2  A    between atoms: O_4  and  C_5 
REMARK    3  A    between atoms: C_5  and  C_6 
REMARK       I    between atoms: C_6  and  N_7 
REMARK    4  A    between atoms: N_7  and  C_8 
REMARK    5  A    between atoms: C_8  and  C_9 
REMARK       I    between atoms: C_9  and  N_10 
REMARK    6  A    between atoms: N_10  and  N_11 
ROOT
HETATM    1  C   UNL     1      40.819 -14.046   5.661  1.00  0.00     0.255 C 
HETATM    2  N   UNL     1      40.367 -15.304   5.302  1.00  0.00    -0.245 N 
HETATM    3  O   UNL     1      41.989 -13.763   5.917  1.00  0.00    -0.270 OA
HETATM    4  H   UNL     1      39.366 -15.462   5.157  1.00  0.00     0.192 HD
ENDROOT
BRANCH   1   5
HETATM    5  C   UNL     1      39.714 -12.998   5.794  1.00  0.00     0.227 C 
BRANCH   5   6
HETATM    6  N   UNL     1      39.220 -12.791   7.152  1.00  0.00    -0.350 N 
HETATM    7  C   UNL     1      39.587 -11.808   8.032  1.00  0.00     0.242 C 
HETATM    8  O   UNL     1      38.916 -11.648   9.052  1.00  0.00    -0.271 OA
HETATM    9  H   UNL     1      38.379 -13.284   7.435  1.00  0.00     0.163 HD
BRANCH   7  10
HETATM   10  C   UNL     1      40.779 -10.917   7.701  1.00  0.00     0.278 C 
BRANCH  10  11
HETATM   11  O   UNL     1      41.118 -10.161   8.857  1.00  0.00    -0.342 OA
BRANCH  11  12
HETATM   12  C   UNL     1      42.341 -10.411   9.419  1.00  0.00     0.075 A 
HETATM   13  C   UNL     1      42.575  -9.840  10.681  1.00  0.00    -0.029 A 
HETATM   14  C   UNL     1      41.573  -8.933  11.342  1.00  0.00     0.051 C 
HETATM   15  C   UNL     1      43.808 -10.059  11.317  1.00  0.00     0.009 A 
HETATM   16  C   UNL     1      44.780 -10.863  10.726  1.00  0.00     0.001 A 
HETATM   17  C   UNL     1      44.534 -11.448   9.489  1.00  0.00     0.003 A 
HETATM   18  C   UNL     1      43.320 -11.225   8.836  1.00  0.00     0.037 A 
ENDBRANCH  11  12
ENDBRANCH  10  11
ENDBRANCH   7  10
ENDBRANCH   5   6
ENDBRANCH   1   5
BRANCH   2  19
HETATM   19  N   UNL     1      41.251 -16.332   5.158  1.00  0.00    -0.166 NA
HETATM   20  C   UNL     1      41.455 -16.767   3.957  1.00  0.00     0.157 A 
HETATM   21  C   UNL     1      40.851 -16.267   2.644  1.00  0.00     0.277 A 
HETATM   22  C   UNL     1      42.353 -17.857   3.595  1.00  0.00     0.028 A 
HETATM   23  O   UNL     1      40.054 -15.358   2.553  1.00  0.00    -0.266 OA
HETATM   24  N   UNL     1      41.409 -17.050   1.658  1.00  0.00    -0.321 N 
HETATM   25  C   UNL     1      42.287 -17.982   2.207  1.00  0.00     0.048 A 
HETATM   26  H   UNL     1      41.195 -16.942   0.677  1.00  0.00     0.169 HD
HETATM   27  C   UNL     1      43.031 -18.931   1.539  1.00  0.00     0.032 A 
HETATM   28  C   UNL     1      43.851 -19.764   2.312  1.00  0.00     0.021 A 
HETATM   29  C   UNL     1      43.906 -19.627   3.716  1.00  0.00     0.012 A 
HETATM   30 BR   UNL     1      45.026 -20.780   4.713  1.00  0.00    -0.051 Br
HETATM   31  C   UNL     1      43.151 -18.663   4.382  1.00  0.00     0.035 A 
ENDBRANCH   2  19
TORSDOF 6
ENDMDL
MODEL 8
REMARK VINA RESULT:      -8.3      6.324     10.258
REMARK  6 active torsions:
REMARK  status: ('A' for Active; 'I' for Inactive)
REMARK    1  A    between atoms: C_3  and  O_4 
REMARK    2  A    between atoms: O_4  and  C_5 
REMARK    3  A    between atoms: C_5  and  C_6 
REMARK       I    between atoms: C_6  and  N_7 
REMARK    4  A    between atoms: N_7  and  C_8 
REMARK    5  A    between atoms: C_8  and  C_9 
REMARK       I    between atoms: C_9  and  N_10 
REMARK    6  A    between atoms: N_10  and  N_11 
ROOT
HETATM    1  C   UNL     1      41.479 -16.824   4.146  1.00  0.00     0.255 C 
HETATM    2  N   UNL     1      41.260 -15.540   3.681  1.00  0.00    -0.245 N 
HETATM    3  O   UNL     1      41.524 -17.832   3.441  1.00  0.00    -0.270 OA
HETATM    4  H   UNL     1      41.186 -14.764   4.345  1.00  0.00     0.192 HD
ENDROOT
BRANCH   1   5
HETATM    5  C   UNL     1      41.597 -16.929   5.667  1.00  0.00     0.227 C 
BRANCH   5   6
HETATM    6  N   UNL     1      42.941 -16.725   6.197  1.00  0.00    -0.350 N 
HETATM    7  C   UNL     1      43.959 -17.638   6.260  1.00  0.00     0.242 C 
HETATM    8  O   UNL     1      45.093 -17.241   6.533  1.00  0.00    -0.271 OA
HETATM    9  H   UNL     1      43.251 -15.773   6.362  1.00  0.00     0.163 HD
BRANCH   7  10
HETATM   10  C   UNL     1      43.671 -19.102   5.944  1.00  0.00     0.278 C 
BRANCH  10  11
HETATM   11  O   UNL     1      44.793 -19.652   5.265  1.00  0.00    -0.342 OA
BRANCH  11  12
HETATM   12  C   UNL     1      44.543 -20.286   4.077  1.00  0.00     0.075 A 
HETATM   13  C   UNL     1      44.692 -21.684   4.075  1.00  0.00    -0.029 A 
HETATM   14  C   UNL     1      45.181 -22.435   5.284  1.00  0.00     0.051 C 
HETATM   15  C   UNL     1      44.448 -22.399   2.891  1.00  0.00     0.009 A 
HETATM   16  C   UNL     1      44.029 -21.741   1.736  1.00  0.00     0.001 A 
HETATM   17  C   UNL     1      43.856 -20.362   1.751  1.00  0.00     0.003 A 
HETATM   18  C   UNL     1      44.112 -19.635   2.916  1.00  0.00     0.037 A 
ENDBRANCH  11  12
ENDBRANCH  10  11
ENDBRANCH   7  10
ENDBRANCH   5   6
ENDBRANCH   1   5
BRANCH   2  19
HETATM   19  N   UNL     1      41.128 -15.311   2.343  1.00  0.00    -0.166 NA
HETATM   20  C   UNL     1      41.479 -14.145   1.909  1.00  0.00     0.157 A 
HETATM   21  C   UNL     1      42.056 -12.967   2.695  1.00  0.00     0.277 A 
HETATM   22  C   UNL     1      41.408 -13.704   0.521  1.00  0.00     0.028 A 
HETATM   23  O   UNL     1      42.261 -12.968   3.890  1.00  0.00    -0.266 OA
HETATM   24  N   UNL     1      42.277 -11.974   1.765  1.00  0.00    -0.321 N 
HETATM   25  C   UNL     1      41.900 -12.399   0.493  1.00  0.00     0.048 A 
HETATM   26  H   UNL     1      42.663 -11.071   2.000  1.00  0.00     0.169 HD
HETATM   27  C   UNL     1      41.973 -11.688  -0.685  1.00  0.00     0.032 A 
HETATM   28  C   UNL     1      41.531 -12.330  -1.850  1.00  0.00     0.021 A 
HETATM   29  C   UNL     1      41.034 -13.650  -1.806  1.00  0.00     0.012 A 
HETATM   30 BR   UNL     1      40.446 -14.469  -3.407  1.00  0.00    -0.051 Br
HETATM   31  C   UNL     1      40.966 -14.361  -0.609  1.00  0.00     0.035 A 
ENDBRANCH   2  19
TORSDOF 6
ENDMDL
MODEL 9
REMARK VINA RESULT:      -8.3      5.889      9.799
REMARK  6 active torsions:
REMARK  status: ('A' for Active; 'I' for Inactive)
REMARK    1  A    between atoms: C_3  and  O_4 
REMARK    2  A    between atoms: O_4  and  C_5 
REMARK    3  A    between atoms: C_5  and  C_6 
REMARK       I    between atoms: C_6  and  N_7 
REMARK    4  A    between atoms: N_7  and  C_8 
REMARK    5  A    between atoms: C_8  and  C_9 
REMARK       I    between atoms: C_9  and  N_10 
REMARK    6  A    between atoms: N_10  and  N_11 
ROOT
HETATM    1  C   UNL     1      42.613 -13.625   3.652  1.00  0.00     0.255 C 
HETATM    2  N   UNL     1      41.517 -13.379   2.843  1.00  0.00    -0.245 N 
HETATM    3  O   UNL     1      43.788 -13.518   3.300  1.00  0.00    -0.270 OA
HETATM    4  H   UNL     1      40.573 -13.543   3.202  1.00  0.00     0.192 HD
ENDROOT
BRANCH   1   5
HETATM    5  C   UNL     1      42.258 -14.129   5.051  1.00  0.00     0.227 C 
BRANCH   5   6
HETATM    6  N   UNL     1      43.376 -14.677   5.811  1.00  0.00    -0.350 N 
HETATM    7  C   UNL     1      43.544 -15.969   6.232  1.00  0.00     0.242 C 
HETATM    8  O   UNL     1      44.644 -16.309   6.670  1.00  0.00    -0.271 OA
HETATM    9  H   UNL     1      44.223 -14.123   5.882  1.00  0.00     0.163 HD
BRANCH   7  10
HETATM   10  C   UNL     1      42.387 -16.953   6.102  1.00  0.00     0.278 C 
BRANCH  10  11
HETATM   11  O   UNL     1      42.914 -18.238   5.793  1.00  0.00    -0.342 OA
BRANCH  11  12
HETATM   12  C   UNL     1      43.083 -18.531   4.466  1.00  0.00     0.075 A 
HETATM   13  C   UNL     1      44.035 -19.519   4.163  1.00  0.00    -0.029 A 
HETATM   14  C   UNL     1      44.884 -20.160   5.228  1.00  0.00     0.051 C 
HETATM   15  C   UNL     1      44.257 -19.872   2.822  1.00  0.00     0.009 A 
HETATM   16  C   UNL     1      43.519 -19.278   1.800  1.00  0.00     0.001 A 
HETATM   17  C   UNL     1      42.559 -18.321   2.106  1.00  0.00     0.003 A 
HETATM   18  C   UNL     1      42.340 -17.947   3.434  1.00  0.00     0.037 A 
ENDBRANCH  11  12
ENDBRANCH  10  11
ENDBRANCH   7  10
ENDBRANCH   5   6
ENDBRANCH   1   5
BRANCH   2  19
HETATM   19  N   UNL     1      41.697 -12.933   1.566  1.00  0.00    -0.166 NA
HETATM   20  C   UNL     1      41.318 -13.717   0.611  1.00  0.00     0.157 A 
HETATM   21  C   UNL     1      40.659 -15.094   0.710  1.00  0.00     0.277 A 
HETATM   22  C   UNL     1      41.430 -13.428  -0.814  1.00  0.00     0.028 A 
HETATM   23  O   UNL     1      40.403 -15.664   1.749  1.00  0.00    -0.266 OA
HETATM   24  N   UNL     1      40.438 -15.492  -0.590  1.00  0.00    -0.321 N 
HETATM   25  C   UNL     1      40.886 -14.523  -1.485  1.00  0.00     0.048 A 
HETATM   26  H   UNL     1      40.004 -16.372  -0.834  1.00  0.00     0.169 HD
HETATM   27  C   UNL     1      40.835 -14.564  -2.862  1.00  0.00     0.032 A 
HETATM   28  C   UNL     1      41.352 -13.462  -3.555  1.00  0.00     0.021 A 
HETATM   29  C   UNL     1      41.901 -12.362  -2.863  1.00  0.00     0.012 A 
HETATM   30 BR   UNL     1      42.590 -10.901  -3.847  1.00  0.00    -0.051 Br
HETATM   31  C   UNL     1      41.946 -12.330  -1.469  1.00  0.00     0.035 A 
ENDBRANCH   2  19
TORSDOF 6
ENDMDL
MODEL 10
REMARK VINA RESULT:      -8.3      7.595     11.633
REMARK  6 active torsions:
REMARK  status: ('A' for Active; 'I' for Inactive)
REMARK    1  A    between atoms: C_3  and  O_4 
REMARK    2  A    between atoms: O_4  and  C_5 
REMARK    3  A    between atoms: C_5  and  C_6 
REMARK       I    between atoms: C_6  and  N_7 
REMARK    4  A    between atoms: N_7  and  C_8 
REMARK    5  A    between atoms: C_8  and  C_9 
REMARK       I    between atoms: C_9  and  N_10 
REMARK    6  A    between atoms: N_10  and  N_11 
ROOT
HETATM    1  C   UNL     1      42.658 -14.070   2.746  1.00  0.00     0.255 C 
HETATM    2  N   UNL     1      42.010 -13.564   1.634  1.00  0.00    -0.245 N 
HETATM    3  O   UNL     1      43.635 -13.554   3.289  1.00  0.00    -0.270 OA
HETATM    4  H   UNL     1      41.235 -14.085   1.215  1.00  0.00     0.192 HD
ENDROOT
BRANCH   1   5
HETATM    5  C   UNL     1      42.104 -15.407   3.240  1.00  0.00     0.227 C 
BRANCH   5   6
HETATM    6  N   UNL     1      41.412 -16.199   2.229  1.00  0.00    -0.350 N 
HETATM    7  C   UNL     1      41.866 -17.326   1.598  1.00  0.00     0.242 C 
HETATM    8  O   UNL     1      41.070 -17.993   0.935  1.00  0.00    -0.271 OA
HETATM    9  H   UNL     1      40.417 -16.044   2.099  1.00  0.00     0.163 HD
BRANCH   7  10
HETATM   10  C   UNL     1      43.321 -17.746   1.775  1.00  0.00     0.278 C 
BRANCH  10  11
HETATM   11  O   UNL     1      43.396 -19.165   1.721  1.00  0.00    -0.342 OA
BRANCH  11  12
HETATM   12  C   UNL     1      43.906 -19.796   2.824  1.00  0.00     0.075 A 
HETATM   13  C   UNL     1      44.204 -21.162   2.678  1.00  0.00    -0.029 A 
HETATM   14  C   UNL     1      43.901 -21.911   1.409  1.00  0.00     0.051 C 
HETATM   15  C   UNL     1      44.733 -21.871   3.769  1.00  0.00     0.009 A 
HETATM   16  C   UNL     1      44.996 -21.225   4.976  1.00  0.00     0.001 A 
HETATM   17  C   UNL     1      44.725 -19.868   5.108  1.00  0.00     0.003 A 
HETATM   18  C   UNL     1      44.182 -19.155   4.037  1.00  0.00     0.037 A 
ENDBRANCH  11  12
ENDBRANCH  10  11
ENDBRANCH   7  10
ENDBRANCH   5   6
ENDBRANCH   1   5
BRANCH   2  19
HETATM   19  N   UNL     1      42.413 -12.380   1.088  1.00  0.00    -0.166 NA
HETATM   20  C   UNL     1      42.207 -12.217  -0.178  1.00  0.00     0.157 A 
HETATM   21  C   UNL     1      41.540 -13.172  -1.169  1.00  0.00     0.277 A 
HETATM   22  C   UNL     1      42.569 -11.031  -0.946  1.00  0.00     0.028 A 
HETATM   23  O   UNL     1      41.105 -14.267  -0.885  1.00  0.00    -0.266 OA
HETATM   24  N   UNL     1      41.552 -12.516  -2.380  1.00  0.00    -0.321 N 
HETATM   25  C   UNL     1      42.151 -11.265  -2.257  1.00  0.00     0.048 A 
HETATM   26  H   UNL     1      41.168 -12.910  -3.227  1.00  0.00     0.169 HD
HETATM   27  C   UNL     1      42.344 -10.324  -3.246  1.00  0.00     0.032 A 
HETATM   28  C   UNL     1      42.976  -9.129  -2.879  1.00  0.00     0.021 A 
HETATM   29  C   UNL     1      43.395  -8.907  -1.550  1.00  0.00     0.012 A 
HETATM   30 BR   UNL     1      44.248  -7.277  -1.109  1.00  0.00    -0.051 Br
HETATM   31  C   UNL     1      43.194  -9.865  -0.557  1.00  0.00     0.035 A 
ENDBRANCH   2  19
TORSDOF 6
ENDMDL
