MODEL 1
REMARK VINA RESULT:      -9.3      0.000      0.000
REMARK  9 active torsions:
REMARK  status: ('A' for Active; 'I' for Inactive)
REMARK    1  A    between atoms: C_4  and  C_5 
REMARK    2  A    between atoms: C_5  and  N_6 
REMARK    3  A    between atoms: C_12  and  N_13 
REMARK       I    between atoms: N_13  and  C_14 
REMARK    4  A    between atoms: N_13  and  C_27 
REMARK    5  A    between atoms: C_14  and  C_15 
REMARK    6  A    between atoms: C_15  and  C_16 
REMARK    7  A    between atoms: C_27  and  C_28 
REMARK    8  A    between atoms: C_28  and  C_29 
REMARK    9  A    between atoms: C_35  and  N_36 
ROOT
HETATM    1  N   UNL     1      42.387 -15.069   5.487  1.00  0.00    -0.310 N 
HETATM    2  C   UNL     1      41.750 -16.215   4.968  1.00  0.00     0.228 C 
HETATM    3  O   UNL     1      41.066 -16.186   3.934  1.00  0.00    -0.273 OA
ENDROOT
BRANCH   1   4
HETATM    4  C   UNL     1      41.883 -13.777   5.123  1.00  0.00     0.144 C 
HETATM    5  C   UNL     1      42.604 -13.037   4.022  1.00  0.00     0.279 C 
HETATM    6  N   UNL     1      41.899 -12.067   3.393  1.00  0.00    -0.273 N 
HETATM    7  O   UNL     1      43.765 -13.276   3.699  1.00  0.00    -0.265 OA
HETATM    8  C   UNL     1      41.127 -11.234   4.132  1.00  0.00     0.331 C 
HETATM    9  H   UNL     1      42.412 -11.580   2.672  1.00  0.00     0.173 HD
HETATM   10  N   UNL     1      40.580 -11.780   5.284  1.00  0.00    -0.284 N 
HETATM   11  O   UNL     1      41.000 -10.066   3.773  1.00  0.00    -0.246 OA
HETATM   12  C   UNL     1      40.845 -13.096   5.693  1.00  0.00     0.117 C 
BRANCH  10  13
HETATM   13  C   UNL     1      39.843 -10.849   6.143  1.00  0.00     0.173 C 
BRANCH  13  14
HETATM   14  C   UNL     1      40.393 -10.607   7.532  1.00  0.00    -0.040 A 
HETATM   15  C   UNL     1      41.711 -10.208   7.786  1.00  0.00     0.009 A 
HETATM   16  C   UNL     1      42.156 -10.025   9.099  1.00  0.00     0.001 A 
HETATM   17  C   UNL     1      41.293 -10.238  10.172  1.00  0.00     0.000 A 
HETATM   18  C   UNL     1      39.981 -10.639   9.937  1.00  0.00     0.001 A 
HETATM   19  C   UNL     1      39.535 -10.821   8.626  1.00  0.00     0.009 A 
ENDBRANCH  13  14
ENDBRANCH  10  13
BRANCH  12  20
HETATM   20  N   UNL     1      40.027 -13.693   6.644  1.00  0.00    -0.286 NA
HETATM   21  H   UNL     1      39.041 -13.471   6.456  1.00  0.00     0.125 HD
HETATM   22  H   UNL     1      40.136 -14.695   6.729  1.00  0.00     0.125 HD
ENDBRANCH  12  20
ENDBRANCH   1   4
BRANCH   1  23
HETATM   23  C   UNL     1      43.272 -15.085   6.687  1.00  0.00     0.137 C 
BRANCH  23  24
HETATM   24  C   UNL     1      44.734 -14.578   6.634  1.00  0.00     0.054 C 
BRANCH  24  25
HETATM   25  C   UNL     1      45.272 -13.493   7.535  1.00  0.00    -0.082 C 
HETATM   26  C   UNL     1      44.354 -13.172   8.703  1.00  0.00     0.034 C 
HETATM   27  C   UNL     1      44.981 -12.281   9.773  1.00  0.00     0.005 C 
HETATM   28  C   UNL     1      45.773 -11.147   9.139  1.00  0.00     0.004 C 
HETATM   29  C   UNL     1      46.879 -11.696   8.238  1.00  0.00     0.027 C 
HETATM   30  C   UNL     1      46.422 -12.822   7.351  1.00  0.00    -0.024 C 
ENDBRANCH  24  25
ENDBRANCH  23  24
ENDBRANCH   1  23
BRANCH   2  31
HETATM   31  C   UNL     1      41.866 -17.537   5.714  1.00  0.00     0.144 C 
BRANCH  31  32
HETATM   32  C   UNL     1      43.087 -18.314   5.328  1.00  0.00    -0.021 A 
HETATM   33  C   UNL     1      43.309 -18.963   4.069  1.00  0.00    -0.001 A 
HETATM   34  C   UNL     1      44.517 -19.653   4.162  1.00  0.00     0.042 A 
HETATM   35  C   UNL     1      42.580 -19.043   2.865  1.00  0.00     0.014 A 
HETATM   36  C   UNL     1      45.025 -20.431   3.115  1.00  0.00     0.030 A 
HETATM   37  N   UNL     1      45.029 -19.404   5.414  1.00  0.00    -0.365 N 
HETATM   38  C   UNL     1      44.279 -20.498   1.935  1.00  0.00     0.002 A 
HETATM   39  C   UNL     1      43.076 -19.811   1.806  1.00  0.00     0.001 A 
HETATM   40  H   UNL     1      45.904 -19.776   5.757  1.00  0.00     0.165 HD
HETATM   41  C   UNL     1      44.174 -18.607   6.128  1.00  0.00     0.097 A 
ENDBRANCH  31  32
ENDBRANCH   2  31
TORSDOF 9
ENDMDL
MODEL 2
REMARK VINA RESULT:      -9.2      4.508      7.888
REMARK  9 active torsions:
REMARK  status: ('A' for Active; 'I' for Inactive)
REMARK    1  A    between atoms: C_4  and  C_5 
REMARK    2  A    between atoms: C_5  and  N_6 
REMARK    3  A    between atoms: C_12  and  N_13 
REMARK       I    between atoms: N_13  and  C_14 
REMARK    4  A    between atoms: N_13  and  C_27 
REMARK    5  A    between atoms: C_14  and  C_15 
REMARK    6  A    between atoms: C_15  and  C_16 
REMARK    7  A    between atoms: C_27  and  C_28 
REMARK    8  A    between atoms: C_28  and  C_29 
REMARK    9  A    between atoms: C_35  and  N_36 
ROOT
HETATM    1  N   UNL     1      41.775 -14.630   1.905  1.00  0.00    -0.310 N 
HETATM    2  C   UNL     1      40.815 -13.985   2.712  1.00  0.00     0.228 C 
HETATM    3  O   UNL     1      39.681 -13.700   2.300  1.00  0.00    -0.273 OA
ENDROOT
BRANCH   1   4
HETATM    4  C   UNL     1      41.648 -14.541   0.479  1.00  0.00     0.144 C 
HETATM    5  C   UNL     1      41.060 -15.731  -0.239  1.00  0.00     0.279 C 
HETATM    6  N   UNL     1      40.542 -15.493  -1.467  1.00  0.00    -0.273 N 
HETATM    7  O   UNL     1      41.047 -16.865   0.236  1.00  0.00    -0.265 OA
HETATM    8  C   UNL     1      41.216 -14.680  -2.316  1.00  0.00     0.331 C 
HETATM    9  H   UNL     1      40.171 -16.310  -1.929  1.00  0.00     0.173 HD
HETATM   10  N   UNL     1      41.955 -13.666  -1.723  1.00  0.00    -0.284 N 
HETATM   11  O   UNL     1      41.172 -14.911  -3.522  1.00  0.00    -0.246 OA
HETATM   12  C   UNL     1      42.046 -13.516  -0.331  1.00  0.00     0.117 C 
BRANCH  10  13
HETATM   13  C   UNL     1      42.776 -12.860  -2.632  1.00  0.00     0.173 C 
BRANCH  13  14
HETATM   14  C   UNL     1      42.172 -11.573  -3.151  1.00  0.00    -0.040 A 
HETATM   15  C   UNL     1      41.112 -11.526  -4.064  1.00  0.00     0.009 A 
HETATM   16  C   UNL     1      40.619 -10.298  -4.518  1.00  0.00     0.001 A 
HETATM   17  C   UNL     1      41.179  -9.106  -4.067  1.00  0.00     0.000 A 
HETATM   18  C   UNL     1      42.236  -9.134  -3.162  1.00  0.00     0.001 A 
HETATM   19  C   UNL     1      42.728 -10.359  -2.708  1.00  0.00     0.009 A 
ENDBRANCH  13  14
ENDBRANCH  10  13
BRANCH  12  20
HETATM   20  N   UNL     1      42.506 -12.315   0.198  1.00  0.00    -0.286 NA
HETATM   21  H   UNL     1      41.763 -11.857   0.741  1.00  0.00     0.125 HD
HETATM   22  H   UNL     1      43.339 -12.394   0.765  1.00  0.00     0.125 HD
ENDBRANCH  12  20
ENDBRANCH   1   4
BRANCH   1  23
HETATM   23  C   UNL     1      43.121 -15.048   2.392  1.00  0.00     0.137 C 
BRANCH  23  24
HETATM   24  C   UNL     1      43.883 -16.243   1.769  1.00  0.00     0.054 C 
BRANCH  24  25
HETATM   25  C   UNL     1      43.814 -17.649   2.314  1.00  0.00    -0.082 C 
HETATM   26  C   UNL     1      43.950 -17.714   3.826  1.00  0.00     0.034 C 
HETATM   27  C   UNL     1      43.619 -19.077   4.432  1.00  0.00     0.005 C 
HETATM   28  C   UNL     1      44.218 -20.201   3.600  1.00  0.00     0.004 C 
HETATM   29  C   UNL     1      43.692 -20.153   2.165  1.00  0.00     0.027 C 
HETATM   30  C   UNL     1      43.682 -18.767   1.580  1.00  0.00    -0.024 C 
ENDBRANCH  24  25
ENDBRANCH  23  24
ENDBRANCH   1  23
BRANCH   2  31
HETATM   31  C   UNL     1      41.182 -13.583   4.134  1.00  0.00     0.144 C 
BRANCH  31  32
HETATM   32  C   UNL     1      41.071 -14.721   5.103  1.00  0.00    -0.021 A 
HETATM   33  C   UNL     1      42.139 -15.266   5.888  1.00  0.00    -0.001 A 
HETATM   34  C   UNL     1      41.633 -16.370   6.573  1.00  0.00     0.042 A 
HETATM   35  C   UNL     1      43.498 -14.932   6.062  1.00  0.00     0.014 A 
HETATM   36  C   UNL     1      42.423 -17.167   7.412  1.00  0.00     0.030 A 
HETATM   37  N   UNL     1      40.301 -16.472   6.246  1.00  0.00    -0.365 N 
HETATM   38  C   UNL     1      43.768 -16.816   7.561  1.00  0.00     0.002 A 
HETATM   39  C   UNL     1      44.300 -15.712   6.902  1.00  0.00     0.001 A 
HETATM   40  H   UNL     1      39.679 -17.184   6.603  1.00  0.00     0.165 HD
HETATM   41  C   UNL     1      39.953 -15.491   5.357  1.00  0.00     0.097 A 
ENDBRANCH  31  32
ENDBRANCH   2  31
TORSDOF 9
ENDMDL
MODEL 3
REMARK VINA RESULT:      -9.2      4.267      8.640
REMARK  9 active torsions:
REMARK  status: ('A' for Active; 'I' for Inactive)
REMARK    1  A    between atoms: C_4  and  C_5 
REMARK    2  A    between atoms: C_5  and  N_6 
REMARK    3  A    between atoms: C_12  and  N_13 
REMARK       I    between atoms: N_13  and  C_14 
REMARK    4  A    between atoms: N_13  and  C_27 
REMARK    5  A    between atoms: C_14  and  C_15 
REMARK    6  A    between atoms: C_15  and  C_16 
REMARK    7  A    between atoms: C_27  and  C_28 
REMARK    8  A    between atoms: C_28  and  C_29 
REMARK    9  A    between atoms: C_35  and  N_36 
ROOT
HETATM    1  N   UNL     1      40.904 -12.907   3.065  1.00  0.00    -0.310 N 
HETATM    2  C   UNL     1      39.656 -12.255   3.139  1.00  0.00     0.228 C 
HETATM    3  O   UNL     1      38.987 -12.212   4.182  1.00  0.00    -0.273 OA
ENDROOT
BRANCH   1   4
HETATM    4  C   UNL     1      41.206 -13.927   4.026  1.00  0.00     0.144 C 
HETATM    5  C   UNL     1      42.185 -13.580   5.121  1.00  0.00     0.279 C 
HETATM    6  N   UNL     1      42.133 -14.345   6.236  1.00  0.00    -0.273 N 
HETATM    7  O   UNL     1      43.000 -12.664   5.029  1.00  0.00    -0.265 OA
HETATM    8  C   UNL     1      41.987 -15.686   6.104  1.00  0.00     0.331 C 
HETATM    9  H   UNL     1      42.809 -14.099   6.943  1.00  0.00     0.173 HD
HETATM   10  N   UNL     1      41.261 -16.109   5.000  1.00  0.00    -0.284 N 
HETATM   11  O   UNL     1      42.530 -16.427   6.920  1.00  0.00    -0.246 OA
HETATM   12  C   UNL     1      40.749 -15.215   4.047  1.00  0.00     0.117 C 
BRANCH  10  13
HETATM   13  C   UNL     1      41.202 -17.559   4.792  1.00  0.00     0.173 C 
BRANCH  13  14
HETATM   14  C   UNL     1      42.277 -18.178   3.926  1.00  0.00    -0.040 A 
HETATM   15  C   UNL     1      42.292 -18.096   2.528  1.00  0.00     0.009 A 
HETATM   16  C   UNL     1      43.308 -18.712   1.792  1.00  0.00     0.001 A 
HETATM   17  C   UNL     1      44.319 -19.417   2.440  1.00  0.00     0.000 A 
HETATM   18  C   UNL     1      44.317 -19.512   3.829  1.00  0.00     0.001 A 
HETATM   19  C   UNL     1      43.304 -18.896   4.565  1.00  0.00     0.009 A 
ENDBRANCH  13  14
ENDBRANCH  10  13
BRANCH  12  20
HETATM   20  N   UNL     1      39.764 -15.645   3.166  1.00  0.00    -0.286 NA
HETATM   21  H   UNL     1      40.070 -15.507   2.194  1.00  0.00     0.125 HD
HETATM   22  H   UNL     1      39.471 -16.605   3.294  1.00  0.00     0.125 HD
ENDBRANCH  12  20
ENDBRANCH   1   4
BRANCH   1  23
HETATM   23  C   UNL     1      41.763 -12.916   1.846  1.00  0.00     0.137 C 
BRANCH  23  24
HETATM   24  C   UNL     1      41.974 -14.197   1.002  1.00  0.00     0.054 C 
BRANCH  24  25
HETATM   25  C   UNL     1      41.731 -14.262  -0.486  1.00  0.00    -0.082 C 
HETATM   26  C   UNL     1      41.178 -15.601  -0.946  1.00  0.00     0.034 C 
HETATM   27  C   UNL     1      40.671 -15.615  -2.387  1.00  0.00     0.005 C 
HETATM   28  C   UNL     1      41.629 -14.871  -3.306  1.00  0.00     0.004 C 
HETATM   29  C   UNL     1      41.800 -13.421  -2.852  1.00  0.00     0.027 C 
HETATM   30  C   UNL     1      41.991 -13.280  -1.366  1.00  0.00    -0.024 C 
ENDBRANCH  24  25
ENDBRANCH  23  24
ENDBRANCH   1  23
BRANCH   2  31
HETATM   31  C   UNL     1      39.076 -11.606   1.889  1.00  0.00     0.144 C 
BRANCH  31  32
HETATM   32  C   UNL     1      38.614 -12.611   0.878  1.00  0.00    -0.021 A 
HETATM   33  C   UNL     1      38.574 -12.419  -0.542  1.00  0.00    -0.001 A 
HETATM   34  C   UNL     1      37.986 -13.554  -1.100  1.00  0.00     0.042 A 
HETATM   35  C   UNL     1      38.964 -11.373  -1.402  1.00  0.00     0.014 A 
HETATM   36  C   UNL     1      37.757 -13.688  -2.475  1.00  0.00     0.030 A 
HETATM   37  N   UNL     1      37.714 -14.418  -0.065  1.00  0.00    -0.365 N 
HETATM   38  C   UNL     1      38.149 -12.632  -3.304  1.00  0.00     0.002 A 
HETATM   39  C   UNL     1      38.749 -11.492  -2.779  1.00  0.00     0.001 A 
HETATM   40  H   UNL     1      37.288 -15.328  -0.179  1.00  0.00     0.165 HD
HETATM   41  C   UNL     1      38.079 -13.859   1.130  1.00  0.00     0.097 A 
ENDBRANCH  31  32
ENDBRANCH   2  31
TORSDOF 9
ENDMDL
MODEL 4
REMARK VINA RESULT:      -9.1      4.968      8.020
REMARK  9 active torsions:
REMARK  status: ('A' for Active; 'I' for Inactive)
REMARK    1  A    between atoms: C_4  and  C_5 
REMARK    2  A    between atoms: C_5  and  N_6 
REMARK    3  A    between atoms: C_12  and  N_13 
REMARK       I    between atoms: N_13  and  C_14 
REMARK    4  A    between atoms: N_13  and  C_27 
REMARK    5  A    between atoms: C_14  and  C_15 
REMARK    6  A    between atoms: C_15  and  C_16 
REMARK    7  A    between atoms: C_27  and  C_28 
REMARK    8  A    between atoms: C_28  and  C_29 
REMARK    9  A    between atoms: C_35  and  N_36 
ROOT
HETATM    1  N   UNL     1      41.095 -14.636   1.934  1.00  0.00    -0.310 N 
HETATM    2  C   UNL     1      42.045 -15.422   2.618  1.00  0.00     0.228 C 
HETATM    3  O   UNL     1      43.266 -15.289   2.449  1.00  0.00    -0.273 OA
ENDROOT
BRANCH   1   4
HETATM    4  C   UNL     1      41.476 -14.014   0.699  1.00  0.00     0.144 C 
HETATM    5  C   UNL     1      41.812 -12.543   0.740  1.00  0.00     0.279 C 
HETATM    6  N   UNL     1      42.572 -12.075  -0.278  1.00  0.00    -0.273 N 
HETATM    7  O   UNL     1      41.424 -11.788   1.629  1.00  0.00    -0.265 OA
HETATM    8  C   UNL     1      42.307 -12.492  -1.540  1.00  0.00     0.331 C 
HETATM    9  H   UNL     1      42.767 -11.085  -0.232  1.00  0.00     0.173 HD
HETATM   10  N   UNL     1      41.800 -13.778  -1.657  1.00  0.00    -0.284 N 
HETATM   11  O   UNL     1      42.483 -11.713  -2.473  1.00  0.00    -0.246 OA
HETATM   12  C   UNL     1      41.526 -14.584  -0.541  1.00  0.00     0.117 C 
BRANCH  10  13
HETATM   13  C   UNL     1      41.404 -14.187  -3.008  1.00  0.00     0.173 C 
BRANCH  13  14
HETATM   14  C   UNL     1      39.922 -14.241  -3.307  1.00  0.00    -0.040 A 
HETATM   15  C   UNL     1      39.052 -13.160  -3.119  1.00  0.00     0.009 A 
HETATM   16  C   UNL     1      37.688 -13.290  -3.397  1.00  0.00     0.001 A 
HETATM   17  C   UNL     1      37.176 -14.499  -3.863  1.00  0.00     0.000 A 
HETATM   18  C   UNL     1      38.026 -15.585  -4.051  1.00  0.00     0.001 A 
HETATM   19  C   UNL     1      39.389 -15.456  -3.775  1.00  0.00     0.009 A 
ENDBRANCH  13  14
ENDBRANCH  10  13
BRANCH  12  20
HETATM   20  N   UNL     1      41.346 -15.951  -0.714  1.00  0.00    -0.286 NA
HETATM   21  H   UNL     1      42.143 -16.355  -1.222  1.00  0.00     0.125 HD
HETATM   22  H   UNL     1      41.193 -16.471   0.140  1.00  0.00     0.125 HD
ENDBRANCH  12  20
ENDBRANCH   1   4
BRANCH   1  23
HETATM   23  C   UNL     1      39.625 -14.724   2.167  1.00  0.00     0.137 C 
BRANCH  23  24
HETATM   24  C   UNL     1      38.598 -14.333   1.076  1.00  0.00     0.054 C 
BRANCH  24  25
HETATM   25  C   UNL     1      37.899 -12.996   1.031  1.00  0.00    -0.082 C 
HETATM   26  C   UNL     1      38.261 -12.090   2.196  1.00  0.00     0.034 C 
HETATM   27  C   UNL     1      37.789 -10.646   2.044  1.00  0.00     0.005 C 
HETATM   28  C   UNL     1      36.370 -10.593   1.496  1.00  0.00     0.004 C 
HETATM   29  C   UNL     1      36.287 -11.290   0.138  1.00  0.00     0.027 C 
HETATM   30  C   UNL     1      37.013 -12.607   0.098  1.00  0.00    -0.024 C 
ENDBRANCH  24  25
ENDBRANCH  23  24
ENDBRANCH   1  23
BRANCH   2  31
HETATM   31  C   UNL     1      41.568 -16.506   3.576  1.00  0.00     0.144 C 
BRANCH  31  32
HETATM   32  C   UNL     1      42.685 -17.376   4.065  1.00  0.00    -0.021 A 
HETATM   33  C   UNL     1      43.182 -18.552   3.414  1.00  0.00    -0.001 A 
HETATM   34  C   UNL     1      44.147 -19.116   4.249  1.00  0.00     0.042 A 
HETATM   35  C   UNL     1      42.885 -19.200   2.197  1.00  0.00     0.014 A 
HETATM   36  C   UNL     1      44.817 -20.304   3.935  1.00  0.00     0.030 A 
HETATM   37  N   UNL     1      44.258 -18.296   5.348  1.00  0.00    -0.365 N 
HETATM   38  C   UNL     1      44.499 -20.929   2.725  1.00  0.00     0.002 A 
HETATM   39  C   UNL     1      43.551 -20.384   1.864  1.00  0.00     0.001 A 
HETATM   40  H   UNL     1      44.889 -18.460   6.120  1.00  0.00     0.165 HD
HETATM   41  C   UNL     1      43.378 -17.251   5.253  1.00  0.00     0.097 A 
ENDBRANCH  31  32
ENDBRANCH   2  31
TORSDOF 9
ENDMDL
MODEL 5
REMARK VINA RESULT:      -9.1      5.562      9.772
REMARK  9 active torsions:
REMARK  status: ('A' for Active; 'I' for Inactive)
REMARK    1  A    between atoms: C_4  and  C_5 
REMARK    2  A    between atoms: C_5  and  N_6 
REMARK    3  A    between atoms: C_12  and  N_13 
REMARK       I    between atoms: N_13  and  C_14 
REMARK    4  A    between atoms: N_13  and  C_27 
REMARK    5  A    between atoms: C_14  and  C_15 
REMARK    6  A    between atoms: C_15  and  C_16 
REMARK    7  A    between atoms: C_27  and  C_28 
REMARK    8  A    between atoms: C_28  and  C_29 
REMARK    9  A    between atoms: C_35  and  N_36 
ROOT
HETATM    1  N   UNL     1      41.371 -14.633  -0.217  1.00  0.00    -0.310 N 
HETATM    2  C   UNL     1      41.182 -15.209  -1.490  1.00  0.00     0.228 C 
HETATM    3  O   UNL     1      40.614 -16.299  -1.650  1.00  0.00    -0.273 OA
ENDROOT
BRANCH   1   4
HETATM    4  C   UNL     1      41.354 -15.488   0.935  1.00  0.00     0.144 C 
HETATM    5  C   UNL     1      40.141 -15.416   1.832  1.00  0.00     0.279 C 
HETATM    6  N   UNL     1      39.922 -16.489   2.628  1.00  0.00    -0.273 N 
HETATM    7  O   UNL     1      39.384 -14.449   1.863  1.00  0.00    -0.265 OA
HETATM    8  C   UNL     1      40.976 -17.064   3.257  1.00  0.00     0.331 C 
HETATM    9  H   UNL     1      39.114 -16.406   3.227  1.00  0.00     0.173 HD
HETATM   10  N   UNL     1      42.189 -17.000   2.587  1.00  0.00    -0.284 N 
HETATM   11  O   UNL     1      40.808 -17.553   4.372  1.00  0.00    -0.246 OA
HETATM   12  C   UNL     1      42.336 -16.337   1.358  1.00  0.00     0.117 C 
BRANCH  10  13
HETATM   13  C   UNL     1      43.350 -17.517   3.317  1.00  0.00     0.173 C 
BRANCH  13  14
HETATM   14  C   UNL     1      43.707 -18.972   3.106  1.00  0.00    -0.040 A 
HETATM   15  C   UNL     1      43.309 -19.715   1.988  1.00  0.00     0.009 A 
HETATM   16  C   UNL     1      43.658 -21.064   1.872  1.00  0.00     0.001 A 
HETATM   17  C   UNL     1      44.405 -21.687   2.869  1.00  0.00     0.000 A 
HETATM   18  C   UNL     1      44.805 -20.964   3.989  1.00  0.00     0.001 A 
HETATM   19  C   UNL     1      44.458 -19.617   4.106  1.00  0.00     0.009 A 
ENDBRANCH  13  14
ENDBRANCH  10  13
BRANCH  12  20
HETATM   20  N   UNL     1      43.461 -16.585   0.580  1.00  0.00    -0.286 NA
HETATM   21  H   UNL     1      43.907 -15.700   0.308  1.00  0.00     0.125 HD
HETATM   22  H   UNL     1      44.147 -17.192   1.008  1.00  0.00     0.125 HD
ENDBRANCH  12  20
ENDBRANCH   1   4
BRANCH   1  23
HETATM   23  C   UNL     1      41.987 -13.293   0.004  1.00  0.00     0.137 C 
BRANCH  23  24
HETATM   24  C   UNL     1      41.149 -11.992  -0.026  1.00  0.00     0.054 C 
BRANCH  24  25
HETATM   25  C   UNL     1      41.641 -10.699  -0.629  1.00  0.00    -0.082 C 
HETATM   26  C   UNL     1      43.157 -10.589  -0.659  1.00  0.00     0.034 C 
HETATM   27  C   UNL     1      43.689  -9.428  -1.497  1.00  0.00     0.005 C 
HETATM   28  C   UNL     1      42.875  -8.166  -1.256  1.00  0.00     0.004 C 
HETATM   29  C   UNL     1      41.404  -8.395  -1.602  1.00  0.00     0.027 C 
HETATM   30  C   UNL     1      40.864  -9.698  -1.077  1.00  0.00    -0.024 C 
ENDBRANCH  24  25
ENDBRANCH  23  24
ENDBRANCH   1  23
BRANCH   2  31
HETATM   31  C   UNL     1      41.722 -14.494  -2.721  1.00  0.00     0.144 C 
BRANCH  31  32
HETATM   32  C   UNL     1      40.758 -13.489  -3.275  1.00  0.00    -0.021 A 
HETATM   33  C   UNL     1      41.104 -12.234  -3.875  1.00  0.00    -0.001 A 
HETATM   34  C   UNL     1      39.914 -11.565  -4.159  1.00  0.00     0.042 A 
HETATM   35  C   UNL     1      42.323 -11.597  -4.185  1.00  0.00     0.014 A 
HETATM   36  C   UNL     1      39.883 -10.283  -4.723  1.00  0.00     0.030 A 
HETATM   37  N   UNL     1      38.885 -12.394  -3.780  1.00  0.00    -0.365 N 
HETATM   38  C   UNL     1      41.107  -9.673  -5.014  1.00  0.00     0.002 A 
HETATM   39  C   UNL     1      42.311 -10.320  -4.755  1.00  0.00     0.001 A 
HETATM   40  H   UNL     1      37.904 -12.166  -3.874  1.00  0.00     0.165 HD
HETATM   41  C   UNL     1      39.379 -13.550  -3.239  1.00  0.00     0.097 A 
ENDBRANCH  31  32
ENDBRANCH   2  31
TORSDOF 9
ENDMDL
MODEL 6
REMARK VINA RESULT:      -9.0      4.040      7.630
REMARK  9 active torsions:
REMARK  status: ('A' for Active; 'I' for Inactive)
REMARK    1  A    between atoms: C_4  and  C_5 
REMARK    2  A    between atoms: C_5  and  N_6 
REMARK    3  A    between atoms: C_12  and  N_13 
REMARK       I    between atoms: N_13  and  C_14 
REMARK    4  A    between atoms: N_13  and  C_27 
REMARK    5  A    between atoms: C_14  and  C_15 
REMARK    6  A    between atoms: C_15  and  C_16 
REMARK    7  A    between atoms: C_27  and  C_28 
REMARK    8  A    between atoms: C_28  and  C_29 
REMARK    9  A    between atoms: C_35  and  N_36 
ROOT
HETATM    1  N   UNL     1      42.046 -16.065   1.947  1.00  0.00    -0.310 N 
HETATM    2  C   UNL     1      40.925 -16.705   2.514  1.00  0.00     0.228 C 
HETATM    3  O   UNL     1      39.763 -16.440   2.170  1.00  0.00    -0.273 OA
ENDROOT
BRANCH   1   4
HETATM    4  C   UNL     1      41.869 -14.784   1.328  1.00  0.00     0.144 C 
HETATM    5  C   UNL     1      42.177 -13.564   2.162  1.00  0.00     0.279 C 
HETATM    6  N   UNL     1      42.437 -12.423   1.480  1.00  0.00    -0.273 N 
HETATM    7  O   UNL     1      42.191 -13.574   3.391  1.00  0.00    -0.265 OA
HETATM    8  C   UNL     1      41.671 -12.114   0.406  1.00  0.00     0.331 C 
HETATM    9  H   UNL     1      42.624 -11.621   2.064  1.00  0.00     0.173 HD
HETATM   10  N   UNL     1      41.173 -13.191  -0.312  1.00  0.00    -0.284 N 
HETATM   11  O   UNL     1      41.432 -10.932   0.166  1.00  0.00    -0.246 OA
HETATM   12  C   UNL     1      41.400 -14.522   0.073  1.00  0.00     0.117 C 
BRANCH  10  13
HETATM   13  C   UNL     1      40.251 -12.860  -1.402  1.00  0.00     0.173 C 
BRANCH  13  14
HETATM   14  C   UNL     1      40.830 -12.150  -2.606  1.00  0.00    -0.040 A 
HETATM   15  C   UNL     1      42.091 -12.436  -3.144  1.00  0.00     0.009 A 
HETATM   16  C   UNL     1      42.571 -11.722  -4.246  1.00  0.00     0.001 A 
HETATM   17  C   UNL     1      41.801 -10.715  -4.822  1.00  0.00     0.000 A 
HETATM   18  C   UNL     1      40.547 -10.415  -4.298  1.00  0.00     0.001 A 
HETATM   19  C   UNL     1      40.066 -11.128  -3.198  1.00  0.00     0.009 A 
ENDBRANCH  13  14
ENDBRANCH  10  13
BRANCH  12  20
HETATM   20  N   UNL     1      41.175 -15.544  -0.841  1.00  0.00    -0.286 NA
HETATM   21  H   UNL     1      40.520 -16.233  -0.452  1.00  0.00     0.125 HD
HETATM   22  H   UNL     1      40.844 -15.239  -1.747  1.00  0.00     0.125 HD
ENDBRANCH  12  20
ENDBRANCH   1   4
BRANCH   1  23
HETATM   23  C   UNL     1      43.457 -16.410   2.288  1.00  0.00     0.137 C 
BRANCH  23  24
HETATM   24  C   UNL     1      44.210 -17.567   1.588  1.00  0.00     0.054 C 
BRANCH  24  25
HETATM   25  C   UNL     1      44.053 -19.017   1.976  1.00  0.00    -0.082 C 
HETATM   26  C   UNL     1      45.116 -19.496   2.951  1.00  0.00     0.034 C 
HETATM   27  C   UNL     1      44.837 -20.865   3.568  1.00  0.00     0.005 C 
HETATM   28  C   UNL     1      44.323 -21.839   2.518  1.00  0.00     0.004 C 
HETATM   29  C   UNL     1      43.041 -21.313   1.872  1.00  0.00     0.027 C 
HETATM   30  C   UNL     1      43.110 -19.855   1.511  1.00  0.00    -0.024 C 
ENDBRANCH  24  25
ENDBRANCH  23  24
ENDBRANCH   1  23
BRANCH   2  31
HETATM   31  C   UNL     1      41.129 -17.734   3.617  1.00  0.00     0.144 C 
BRANCH  31  32
HETATM   32  C   UNL     1      41.559 -17.115   4.912  1.00  0.00    -0.021 A 
HETATM   33  C   UNL     1      42.459 -17.697   5.864  1.00  0.00    -0.001 A 
HETATM   34  C   UNL     1      42.507 -16.844   6.967  1.00  0.00     0.042 A 
HETATM   35  C   UNL     1      43.220 -18.883   5.898  1.00  0.00     0.014 A 
HETATM   36  C   UNL     1      43.269 -17.127   8.108  1.00  0.00     0.030 A 
HETATM   37  N   UNL     1      41.699 -15.769   6.682  1.00  0.00    -0.365 N 
HETATM   38  C   UNL     1      44.010 -18.313   8.116  1.00  0.00     0.002 A 
HETATM   39  C   UNL     1      43.992 -19.178   7.026  1.00  0.00     0.001 A 
HETATM   40  H   UNL     1      41.548 -14.988   7.305  1.00  0.00     0.165 HD
HETATM   41  C   UNL     1      41.117 -15.924   5.453  1.00  0.00     0.097 A 
ENDBRANCH  31  32
ENDBRANCH   2  31
TORSDOF 9
ENDMDL
MODEL 7
REMARK VINA RESULT:      -9.0      4.031      7.000
REMARK  9 active torsions:
REMARK  status: ('A' for Active; 'I' for Inactive)
REMARK    1  A    between atoms: C_4  and  C_5 
REMARK    2  A    between atoms: C_5  and  N_6 
REMARK    3  A    between atoms: C_12  and  N_13 
REMARK       I    between atoms: N_13  and  C_14 
REMARK    4  A    between atoms: N_13  and  C_27 
REMARK    5  A    between atoms: C_14  and  C_15 
REMARK    6  A    between atoms: C_15  and  C_16 
REMARK    7  A    between atoms: C_27  and  C_28 
REMARK    8  A    between atoms: C_28  and  C_29 
REMARK    9  A    between atoms: C_35  and  N_36 
ROOT
HETATM    1  N   UNL     1      42.015 -16.098   1.967  1.00  0.00    -0.310 N 
HETATM    2  C   UNL     1      40.893 -16.714   2.559  1.00  0.00     0.228 C 
HETATM    3  O   UNL     1      39.730 -16.434   2.233  1.00  0.00    -0.273 OA
ENDROOT
BRANCH   1   4
HETATM    4  C   UNL     1      41.848 -14.821   1.338  1.00  0.00     0.144 C 
HETATM    5  C   UNL     1      42.246 -13.600   2.132  1.00  0.00     0.279 C 
HETATM    6  N   UNL     1      42.505 -12.480   1.417  1.00  0.00    -0.273 N 
HETATM    7  O   UNL     1      42.330 -13.593   3.358  1.00  0.00    -0.265 OA
HETATM    8  C   UNL     1      41.690 -12.159   0.383  1.00  0.00     0.331 C 
HETATM    9  H   UNL     1      42.753 -11.676   1.976  1.00  0.00     0.173 HD
HETATM   10  N   UNL     1      41.114 -13.229  -0.286  1.00  0.00    -0.284 N 
HETATM   11  O   UNL     1      41.479 -10.974   0.138  1.00  0.00    -0.246 OA
HETATM   12  C   UNL     1      41.316 -14.561   0.107  1.00  0.00     0.117 C 
BRANCH  10  13
HETATM   13  C   UNL     1      40.142 -12.881  -1.328  1.00  0.00     0.173 C 
BRANCH  13  14
HETATM   14  C   UNL     1      38.783 -12.397  -0.872  1.00  0.00    -0.040 A 
HETATM   15  C   UNL     1      38.103 -12.921   0.235  1.00  0.00     0.009 A 
HETATM   16  C   UNL     1      36.838 -12.438   0.584  1.00  0.00     0.001 A 
HETATM   17  C   UNL     1      36.238 -11.430  -0.166  1.00  0.00     0.000 A 
HETATM   18  C   UNL     1      36.898 -10.901  -1.271  1.00  0.00     0.001 A 
HETATM   19  C   UNL     1      38.161 -11.381  -1.620  1.00  0.00     0.009 A 
ENDBRANCH  13  14
ENDBRANCH  10  13
BRANCH  12  20
HETATM   20  N   UNL     1      41.003 -15.588  -0.775  1.00  0.00    -0.286 NA
HETATM   21  H   UNL     1      40.546 -16.361  -0.275  1.00  0.00     0.125 HD
HETATM   22  H   UNL     1      40.433 -15.312  -1.563  1.00  0.00     0.125 HD
ENDBRANCH  12  20
ENDBRANCH   1   4
BRANCH   1  23
HETATM   23  C   UNL     1      43.425 -16.461   2.288  1.00  0.00     0.137 C 
BRANCH  23  24
HETATM   24  C   UNL     1      44.156 -17.622   1.571  1.00  0.00     0.054 C 
BRANCH  24  25
HETATM   25  C   UNL     1      44.020 -19.069   1.976  1.00  0.00    -0.082 C 
HETATM   26  C   UNL     1      45.093 -19.523   2.952  1.00  0.00     0.034 C 
HETATM   27  C   UNL     1      44.834 -20.888   3.587  1.00  0.00     0.005 C 
HETATM   28  C   UNL     1      44.328 -21.881   2.552  1.00  0.00     0.004 C 
HETATM   29  C   UNL     1      43.036 -21.379   1.905  1.00  0.00     0.027 C 
HETATM   30  C   UNL     1      43.086 -19.924   1.526  1.00  0.00    -0.024 C 
ENDBRANCH  24  25
ENDBRANCH  23  24
ENDBRANCH   1  23
BRANCH   2  31
HETATM   31  C   UNL     1      41.100 -17.735   3.670  1.00  0.00     0.144 C 
BRANCH  31  32
HETATM   32  C   UNL     1      41.561 -17.109   4.951  1.00  0.00    -0.021 A 
HETATM   33  C   UNL     1      42.456 -17.701   5.902  1.00  0.00    -0.001 A 
HETATM   34  C   UNL     1      42.539 -16.834   6.992  1.00  0.00     0.042 A 
HETATM   35  C   UNL     1      43.187 -18.906   5.944  1.00  0.00     0.014 A 
HETATM   36  C   UNL     1      43.306 -17.121   8.128  1.00  0.00     0.030 A 
HETATM   37  N   UNL     1      41.756 -15.743   6.700  1.00  0.00    -0.365 N 
HETATM   38  C   UNL     1      44.015 -18.325   8.146  1.00  0.00     0.002 A 
HETATM   39  C   UNL     1      43.963 -19.205   7.068  1.00  0.00     0.001 A 
HETATM   40  H   UNL     1      41.632 -14.949   7.314  1.00  0.00     0.165 HD
HETATM   41  C   UNL     1      41.156 -15.900   5.479  1.00  0.00     0.097 A 
ENDBRANCH  31  32
ENDBRANCH   2  31
TORSDOF 9
ENDMDL
MODEL 8
REMARK VINA RESULT:      -9.0      4.312      9.646
REMARK  9 active torsions:
REMARK  status: ('A' for Active; 'I' for Inactive)
REMARK    1  A    between atoms: C_4  and  C_5 
REMARK    2  A    between atoms: C_5  and  N_6 
REMARK    3  A    between atoms: C_12  and  N_13 
REMARK       I    between atoms: N_13  and  C_14 
REMARK    4  A    between atoms: N_13  and  C_27 
REMARK    5  A    between atoms: C_14  and  C_15 
REMARK    6  A    between atoms: C_15  and  C_16 
REMARK    7  A    between atoms: C_27  and  C_28 
REMARK    8  A    between atoms: C_28  and  C_29 
REMARK    9  A    between atoms: C_35  and  N_36 
ROOT
HETATM    1  N   UNL     1      41.912 -14.945   1.730  1.00  0.00    -0.310 N 
HETATM    2  C   UNL     1      42.421 -13.663   2.021  1.00  0.00     0.228 C 
HETATM    3  O   UNL     1      43.317 -13.476   2.857  1.00  0.00    -0.273 OA
ENDROOT
BRANCH   1   4
HETATM    4  C   UNL     1      42.061 -15.984   2.707  1.00  0.00     0.144 C 
HETATM    5  C   UNL     1      41.042 -16.041   3.819  1.00  0.00     0.279 C 
HETATM    6  N   UNL     1      40.916 -17.229   4.455  1.00  0.00    -0.273 N 
HETATM    7  O   UNL     1      40.357 -15.076   4.154  1.00  0.00    -0.265 OA
HETATM    8  C   UNL     1      42.035 -17.926   4.768  1.00  0.00     0.331 C 
HETATM    9  H   UNL     1      40.238 -17.232   5.204  1.00  0.00     0.173 HD
HETATM   10  N   UNL     1      43.105 -17.774   3.898  1.00  0.00    -0.284 N 
HETATM   11  O   UNL     1      42.051 -18.595   5.799  1.00  0.00    -0.246 OA
HETATM   12  C   UNL     1      43.057 -16.915   2.789  1.00  0.00     0.117 C 
BRANCH  10  13
HETATM   13  C   UNL     1      44.351 -18.434   4.297  1.00  0.00     0.173 C 
BRANCH  13  14
HETATM   14  C   UNL     1      44.445 -19.928   4.072  1.00  0.00    -0.040 A 
HETATM   15  C   UNL     1      44.732 -20.849   5.087  1.00  0.00     0.009 A 
HETATM   16  C   UNL     1      44.825 -22.215   4.800  1.00  0.00     0.001 A 
HETATM   17  C   UNL     1      44.634 -22.676   3.500  1.00  0.00     0.000 A 
HETATM   18  C   UNL     1      44.352 -21.773   2.479  1.00  0.00     0.001 A 
HETATM   19  C   UNL     1      44.258 -20.410   2.764  1.00  0.00     0.009 A 
ENDBRANCH  13  14
ENDBRANCH  10  13
BRANCH  12  20
HETATM   20  N   UNL     1      44.004 -17.049   1.780  1.00  0.00    -0.286 NA
HETATM   21  H   UNL     1      44.430 -17.984   1.814  1.00  0.00     0.125 HD
HETATM   22  H   UNL     1      43.657 -16.871   0.847  1.00  0.00     0.125 HD
ENDBRANCH  12  20
ENDBRANCH   1   4
BRANCH   1  23
HETATM   23  C   UNL     1      40.885 -15.211   0.681  1.00  0.00     0.137 C 
BRANCH  23  24
HETATM   24  C   UNL     1      41.268 -15.440  -0.801  1.00  0.00     0.054 C 
BRANCH  24  25
HETATM   25  C   UNL     1      40.832 -14.532  -1.924  1.00  0.00    -0.082 C 
HETATM   26  C   UNL     1      41.867 -13.478  -2.281  1.00  0.00     0.034 C 
HETATM   27  C   UNL     1      41.578 -12.721  -3.576  1.00  0.00     0.005 C 
HETATM   28  C   UNL     1      40.105 -12.353  -3.672  1.00  0.00     0.004 C 
HETATM   29  C   UNL     1      39.229 -13.605  -3.621  1.00  0.00     0.027 C 
HETATM   30  C   UNL     1      39.646 -14.582  -2.556  1.00  0.00    -0.024 C 
ENDBRANCH  24  25
ENDBRANCH  23  24
ENDBRANCH   1  23
BRANCH   2  31
HETATM   31  C   UNL     1      41.833 -12.447   1.317  1.00  0.00     0.144 C 
BRANCH  31  32
HETATM   32  C   UNL     1      40.515 -12.029   1.893  1.00  0.00    -0.021 A 
HETATM   33  C   UNL     1      39.298 -11.839   1.160  1.00  0.00    -0.001 A 
HETATM   34  C   UNL     1      38.343 -11.353   2.053  1.00  0.00     0.042 A 
HETATM   35  C   UNL     1      38.927 -12.018  -0.189  1.00  0.00     0.014 A 
HETATM   36  C   UNL     1      37.040 -11.023   1.661  1.00  0.00     0.030 A 
HETATM   37  N   UNL     1      38.944 -11.284   3.288  1.00  0.00    -0.365 N 
HETATM   38  C   UNL     1      36.702 -11.203   0.316  1.00  0.00     0.002 A 
HETATM   39  C   UNL     1      37.628 -11.699  -0.597  1.00  0.00     0.001 A 
HETATM   40  H   UNL     1      38.483 -10.968   4.130  1.00  0.00     0.165 HD
HETATM   41  C   UNL     1      40.252 -11.680   3.203  1.00  0.00     0.097 A 
ENDBRANCH  31  32
ENDBRANCH   2  31
TORSDOF 9
ENDMDL
MODEL 9
REMARK VINA RESULT:      -8.9      3.570      6.016
REMARK  9 active torsions:
REMARK  status: ('A' for Active; 'I' for Inactive)
REMARK    1  A    between atoms: C_4  and  C_5 
REMARK    2  A    between atoms: C_5  and  N_6 
REMARK    3  A    between atoms: C_12  and  N_13 
REMARK       I    between atoms: N_13  and  C_14 
REMARK    4  A    between atoms: N_13  and  C_27 
REMARK    5  A    between atoms: C_14  and  C_15 
REMARK    6  A    between atoms: C_15  and  C_16 
REMARK    7  A    between atoms: C_27  and  C_28 
REMARK    8  A    between atoms: C_28  and  C_29 
REMARK    9  A    between atoms: C_35  and  N_36 
ROOT
HETATM    1  N   UNL     1      40.993 -15.159   2.413  1.00  0.00    -0.310 N 
HETATM    2  C   UNL     1      41.615 -16.102   1.570  1.00  0.00     0.228 C 
HETATM    3  O   UNL     1      42.243 -15.775   0.552  1.00  0.00    -0.273 OA
ENDROOT
BRANCH   1   4
HETATM    4  C   UNL     1      40.661 -13.870   1.877  1.00  0.00     0.144 C 
HETATM    5  C   UNL     1      39.231 -13.648   1.445  1.00  0.00     0.279 C 
HETATM    6  N   UNL     1      38.824 -12.360   1.366  1.00  0.00    -0.273 N 
HETATM    7  O   UNL     1      38.462 -14.565   1.167  1.00  0.00    -0.265 OA
HETATM    8  C   UNL     1      39.659 -11.440   0.823  1.00  0.00     0.331 C 
HETATM    9  H   UNL     1      37.869 -12.242   1.060  1.00  0.00     0.173 HD
HETATM   10  N   UNL     1      41.014 -11.675   1.001  1.00  0.00    -0.284 N 
HETATM   11  O   UNL     1      39.180 -10.507   0.184  1.00  0.00    -0.246 OA
HETATM   12  C   UNL     1      41.501 -12.817   1.657  1.00  0.00     0.117 C 
BRANCH  10  13
HETATM   13  C   UNL     1      41.918 -10.747   0.315  1.00  0.00     0.173 C 
BRANCH  13  14
HETATM   14  C   UNL     1      42.140 -10.965  -1.166  1.00  0.00    -0.040 A 
HETATM   15  C   UNL     1      42.322 -12.226  -1.746  1.00  0.00     0.009 A 
HETATM   16  C   UNL     1      42.544 -12.349  -3.121  1.00  0.00     0.001 A 
HETATM   17  C   UNL     1      42.588 -11.217  -3.931  1.00  0.00     0.000 A 
HETATM   18  C   UNL     1      42.414  -9.956  -3.370  1.00  0.00     0.001 A 
HETATM   19  C   UNL     1      42.191  -9.831  -1.997  1.00  0.00     0.009 A 
ENDBRANCH  13  14
ENDBRANCH  10  13
BRANCH  12  20
HETATM   20  N   UNL     1      42.818 -12.839   2.100  1.00  0.00    -0.286 NA
HETATM   21  H   UNL     1      42.957 -13.610   2.766  1.00  0.00     0.125 HD
HETATM   22  H   UNL     1      43.512 -12.898   1.366  1.00  0.00     0.125 HD
ENDBRANCH  12  20
ENDBRANCH   1   4
BRANCH   1  23
HETATM   23  C   UNL     1      40.290 -15.514   3.679  1.00  0.00     0.137 C 
BRANCH  23  24
HETATM   24  C   UNL     1      40.701 -14.907   5.043  1.00  0.00     0.054 C 
BRANCH  24  25
HETATM   25  C   UNL     1      41.764 -15.503   5.932  1.00  0.00    -0.082 C 
HETATM   26  C   UNL     1      43.062 -14.712   5.929  1.00  0.00     0.034 C 
HETATM   27  C   UNL     1      44.057 -15.126   7.011  1.00  0.00     0.005 C 
HETATM   28  C   UNL     1      44.131 -16.641   7.129  1.00  0.00     0.004 C 
HETATM   29  C   UNL     1      42.759 -17.227   7.464  1.00  0.00     0.027 C 
HETATM   30  C   UNL     1      41.643 -16.633   6.649  1.00  0.00    -0.024 C 
ENDBRANCH  24  25
ENDBRANCH  23  24
ENDBRANCH   1  23
BRANCH   2  31
HETATM   31  C   UNL     1      41.486 -17.586   1.886  1.00  0.00     0.144 C 
BRANCH  31  32
HETATM   32  C   UNL     1      42.681 -18.128   2.610  1.00  0.00    -0.021 A 
HETATM   33  C   UNL     1      43.219 -19.450   2.475  1.00  0.00    -0.001 A 
HETATM   34  C   UNL     1      44.260 -19.573   3.395  1.00  0.00     0.042 A 
HETATM   35  C   UNL     1      42.900 -20.561   1.668  1.00  0.00     0.014 A 
HETATM   36  C   UNL     1      44.988 -20.758   3.558  1.00  0.00     0.030 A 
HETATM   37  N   UNL     1      44.375 -18.364   4.038  1.00  0.00    -0.365 N 
HETATM   38  C   UNL     1      44.647 -21.846   2.749  1.00  0.00     0.002 A 
HETATM   39  C   UNL     1      43.622 -21.751   1.812  1.00  0.00     0.001 A 
HETATM   40  H   UNL     1      45.056 -18.163   4.758  1.00  0.00     0.165 HD
HETATM   41  C   UNL     1      43.427 -17.489   3.581  1.00  0.00     0.097 A 
ENDBRANCH  31  32
ENDBRANCH   2  31
TORSDOF 9
ENDMDL
MODEL 10
REMARK VINA RESULT:      -8.9      3.918      8.912
REMARK  9 active torsions:
REMARK  status: ('A' for Active; 'I' for Inactive)
REMARK    1  A    between atoms: C_4  and  C_5 
REMARK    2  A    between atoms: C_5  and  N_6 
REMARK    3  A    between atoms: C_12  and  N_13 
REMARK       I    between atoms: N_13  and  C_14 
REMARK    4  A    between atoms: N_13  and  C_27 
REMARK    5  A    between atoms: C_14  and  C_15 
REMARK    6  A    between atoms: C_15  and  C_16 
REMARK    7  A    between atoms: C_27  and  C_28 
REMARK    8  A    between atoms: C_28  and  C_29 
REMARK    9  A    between atoms: C_35  and  N_36 
ROOT
HETATM    1  N   UNL     1      41.203 -14.055   3.235  1.00  0.00    -0.310 N 
HETATM    2  C   UNL     1      40.235 -13.159   3.732  1.00  0.00     0.228 C 
HETATM    3  O   UNL     1      40.304 -12.666   4.868  1.00  0.00    -0.273 OA
ENDROOT
BRANCH   1   4
HETATM    4  C   UNL     1      42.012 -14.783   4.170  1.00  0.00     0.144 C 
HETATM    5  C   UNL     1      43.341 -14.178   4.554  1.00  0.00     0.279 C 
HETATM    6  N   UNL     1      43.880 -14.608   5.718  1.00  0.00    -0.273 N 
HETATM    7  O   UNL     1      43.926 -13.346   3.863  1.00  0.00    -0.265 OA
HETATM    8  C   UNL     1      43.828 -15.929   6.016  1.00  0.00     0.331 C 
HETATM    9  H   UNL     1      44.775 -14.198   5.941  1.00  0.00     0.173 HD
HETATM   10  N   UNL     1      42.728 -16.617   5.525  1.00  0.00    -0.284 N 
HETATM   11  O   UNL     1      44.756 -16.434   6.643  1.00  0.00    -0.246 OA
HETATM   12  C   UNL     1      41.750 -16.002   4.727  1.00  0.00     0.117 C 
BRANCH  10  13
HETATM   13  C   UNL     1      42.730 -18.066   5.746  1.00  0.00     0.173 C 
BRANCH  13  14
HETATM   14  C   UNL     1      43.423 -18.922   4.708  1.00  0.00    -0.040 A 
HETATM   15  C   UNL     1      43.149 -18.855   3.337  1.00  0.00     0.009 A 
HETATM   16  C   UNL     1      43.815 -19.694   2.438  1.00  0.00     0.001 A 
HETATM   17  C   UNL     1      44.759 -20.609   2.897  1.00  0.00     0.000 A 
HETATM   18  C   UNL     1      45.041 -20.691   4.257  1.00  0.00     0.001 A 
HETATM   19  C   UNL     1      44.378 -19.853   5.156  1.00  0.00     0.009 A 
ENDBRANCH  13  14
ENDBRANCH  10  13
BRANCH  12  20
HETATM   20  N   UNL     1      40.522 -16.628   4.548  1.00  0.00    -0.286 NA
HETATM   21  H   UNL     1      40.409 -17.391   5.228  1.00  0.00     0.125 HD
HETATM   22  H   UNL     1      39.721 -16.013   4.595  1.00  0.00     0.125 HD
ENDBRANCH  12  20
ENDBRANCH   1   4
BRANCH   1  23
HETATM   23  C   UNL     1      41.185 -14.612   1.852  1.00  0.00     0.137 C 
BRANCH  23  24
HETATM   24  C   UNL     1      41.946 -13.934   0.686  1.00  0.00     0.054 C 
BRANCH  24  25
HETATM   25  C   UNL     1      41.645 -14.197  -0.769  1.00  0.00    -0.082 C 
HETATM   26  C   UNL     1      42.097 -13.074  -1.688  1.00  0.00     0.034 C 
HETATM   27  C   UNL     1      42.054 -13.419  -3.175  1.00  0.00     0.005 C 
HETATM   28  C   UNL     1      40.777 -14.170  -3.521  1.00  0.00     0.004 C 
HETATM   29  C   UNL     1      40.669 -15.460  -2.708  1.00  0.00     0.027 C 
HETATM   30  C   UNL     1      41.013 -15.279  -1.255  1.00  0.00    -0.024 C 
ENDBRANCH  24  25
ENDBRANCH  23  24
ENDBRANCH   1  23
BRANCH   2  31
HETATM   31  C   UNL     1      39.032 -12.804   2.869  1.00  0.00     0.144 C 
BRANCH  31  32
HETATM   32  C   UNL     1      39.355 -11.786   1.818  1.00  0.00    -0.021 A 
HETATM   33  C   UNL     1      38.981 -11.854   0.437  1.00  0.00    -0.001 A 
HETATM   34  C   UNL     1      39.566 -10.765  -0.209  1.00  0.00     0.042 A 
HETATM   35  C   UNL     1      38.214 -12.756  -0.329  1.00  0.00     0.014 A 
HETATM   36  C   UNL     1      39.434 -10.542  -1.585  1.00  0.00     0.030 A 
HETATM   37  N   UNL     1      40.239 -10.043   0.748  1.00  0.00    -0.365 N 
HETATM   38  C   UNL     1      38.673 -11.455  -2.321  1.00  0.00     0.002 A 
HETATM   39  C   UNL     1      38.065 -12.545  -1.704  1.00  0.00     0.001 A 
HETATM   40  H   UNL     1      40.755  -9.194   0.564  1.00  0.00     0.165 HD
HETATM   41  C   UNL     1      40.127 -10.651   1.970  1.00  0.00     0.097 A 
ENDBRANCH  31  32
ENDBRANCH   2  31
TORSDOF 9
ENDMDL
