MODEL 1
REMARK VINA RESULT:      -7.9      0.000      0.000
REMARK  3 active torsions:
REMARK  status: ('A' for Active; 'I' for Inactive)
REMARK    1  A    between atoms: C_6  and  C_7 
REMARK       I    between atoms: C_7  and  N_8 
REMARK    2  A    between atoms: N_8  and  C_9 
REMARK    3  A    between atoms: C_12  and  C_13 
REMARK       I    between atoms: C_13  and  N_14 
ROOT
HETATM    1  C   UNL     1      44.867 -13.689   7.336  1.00  0.00     0.280 C 
HETATM    2  N   UNL     1      43.947 -14.722   7.288  1.00  0.00    -0.321 N 
HETATM    3  O   UNL     1      45.850 -13.578   6.612  1.00  0.00    -0.265 OA
HETATM    4  H   UNL     1      43.172 -14.628   7.937  1.00  0.00     0.169 HD
ENDROOT
BRANCH   2   5
HETATM    5  C   UNL     1      43.981 -15.884   6.495  1.00  0.00     0.035 A 
HETATM    6  C   UNL     1      43.310 -16.019   5.278  1.00  0.00     0.030 A 
HETATM    7  C   UNL     1      43.426 -17.194   4.523  1.00  0.00     0.019 A 
HETATM    8  C   UNL     1      44.222 -18.248   4.979  1.00  0.00     0.032 A 
HETATM    9  C   UNL     1      44.873 -18.129   6.211  1.00  0.00     0.019 A 
HETATM   10  C   UNL     1      44.757 -16.953   6.959  1.00  0.00     0.030 A 
BRANCH   8  11
HETATM   11  C   UNL     1      44.394 -19.508   4.208  1.00  0.00     0.249 C 
HETATM   12  N   UNL     1      43.888 -19.548   2.938  1.00  0.00    -0.366 N 
HETATM   13  H   UNL     1      43.596 -18.722   2.438  1.00  0.00     0.159 HD
HETATM   14  H   UNL     1      44.108 -20.373   2.394  1.00  0.00     0.159 HD
HETATM   15  O   UNL     1      44.997 -20.467   4.671  1.00  0.00    -0.268 OA
ENDBRANCH   8  11
ENDBRANCH   2   5
BRANCH   1  16
HETATM   16  C   UNL     1      44.562 -12.715   8.368  1.00  0.00     0.144 A 
HETATM   17  O   UNL     1      43.454 -11.916   8.235  1.00  0.00    -0.304 OA
HETATM   18  C   UNL     1      43.382 -11.141   9.353  1.00  0.00     0.086 A 
HETATM   19  C   UNL     1      44.442 -11.422  10.206  1.00  0.00     0.001 A 
HETATM   20  C   UNL     1      42.389 -10.203   9.624  1.00  0.00     0.038 A 
HETATM   21  C   UNL     1      44.530 -10.723  11.423  1.00  0.00     0.014 A 
HETATM   22  C   UNL     1      45.201 -12.429   9.559  1.00  0.00     0.057 A 
HETATM   23  C   UNL     1      43.542  -9.775  11.727  1.00  0.00     0.001 A 
HETATM   24  C   UNL     1      42.492  -9.521  10.841  1.00  0.00     0.003 A 
ENDBRANCH   1  16
TORSDOF 3
ENDMDL
MODEL 2
REMARK VINA RESULT:      -7.8      4.755      9.257
REMARK  3 active torsions:
REMARK  status: ('A' for Active; 'I' for Inactive)
REMARK    1  A    between atoms: C_6  and  C_7 
REMARK       I    between atoms: C_7  and  N_8 
REMARK    2  A    between atoms: N_8  and  C_9 
REMARK    3  A    between atoms: C_12  and  C_13 
REMARK       I    between atoms: C_13  and  N_14 
ROOT
HETATM    1  C   UNL     1      43.116 -16.822   3.228  1.00  0.00     0.280 C 
HETATM    2  N   UNL     1      42.010 -16.596   4.029  1.00  0.00    -0.321 N 
HETATM    3  O   UNL     1      43.694 -15.972   2.559  1.00  0.00    -0.265 OA
HETATM    4  H   UNL     1      41.688 -17.410   4.544  1.00  0.00     0.169 HD
ENDROOT
BRANCH   2   5
HETATM    5  C   UNL     1      41.268 -15.410   4.177  1.00  0.00     0.035 A 
HETATM    6  C   UNL     1      40.489 -14.844   3.165  1.00  0.00     0.030 A 
HETATM    7  C   UNL     1      39.743 -13.682   3.402  1.00  0.00     0.019 A 
HETATM    8  C   UNL     1      39.766 -13.073   4.660  1.00  0.00     0.032 A 
HETATM    9  C   UNL     1      40.567 -13.620   5.668  1.00  0.00     0.019 A 
HETATM   10  C   UNL     1      41.307 -14.783   5.428  1.00  0.00     0.030 A 
BRANCH   8  11
HETATM   11  C   UNL     1      38.979 -11.850   4.969  1.00  0.00     0.249 C 
HETATM   12  N   UNL     1      38.246 -11.297   3.957  1.00  0.00    -0.366 N 
HETATM   13  H   UNL     1      38.053 -11.779   3.092  1.00  0.00     0.159 HD
HETATM   14  H   UNL     1      37.636 -10.531   4.213  1.00  0.00     0.159 HD
HETATM   15  O   UNL     1      38.953 -11.370   6.095  1.00  0.00    -0.268 OA
ENDBRANCH   8  11
ENDBRANCH   2   5
BRANCH   1  16
HETATM   16  C   UNL     1      43.541 -18.209   3.239  1.00  0.00     0.144 A 
HETATM   17  O   UNL     1      43.949 -18.780   4.419  1.00  0.00    -0.304 OA
HETATM   18  C   UNL     1      44.242 -20.084   4.152  1.00  0.00     0.086 A 
HETATM   19  C   UNL     1      44.040 -20.361   2.806  1.00  0.00     0.001 A 
HETATM   20  C   UNL     1      44.675 -21.022   5.086  1.00  0.00     0.038 A 
HETATM   21  C   UNL     1      44.283 -21.666   2.343  1.00  0.00     0.014 A 
HETATM   22  C   UNL     1      43.598 -19.146   2.224  1.00  0.00     0.057 A 
HETATM   23  C   UNL     1      44.715 -22.635   3.261  1.00  0.00     0.001 A 
HETATM   24  C   UNL     1      44.907 -22.316   4.608  1.00  0.00     0.003 A 
ENDBRANCH   1  16
TORSDOF 3
ENDMDL
MODEL 3
REMARK VINA RESULT:      -7.6      7.039      9.806
REMARK  3 active torsions:
REMARK  status: ('A' for Active; 'I' for Inactive)
REMARK    1  A    between atoms: C_6  and  C_7 
REMARK       I    between atoms: C_7  and  N_8 
REMARK    2  A    between atoms: N_8  and  C_9 
REMARK    3  A    between atoms: C_12  and  C_13 
REMARK       I    between atoms: C_13  and  N_14 
ROOT
HETATM    1  C   UNL     1      42.766 -17.129   2.439  1.00  0.00     0.280 C 
HETATM    2  N   UNL     1      41.511 -17.178   1.857  1.00  0.00    -0.321 N 
HETATM    3  O   UNL     1      43.385 -16.105   2.707  1.00  0.00    -0.265 OA
HETATM    4  H   UNL     1      41.134 -18.114   1.746  1.00  0.00     0.169 HD
ENDROOT
BRANCH   2   5
HETATM    5  C   UNL     1      40.732 -16.112   1.372  1.00  0.00     0.035 A 
HETATM    6  C   UNL     1      41.013 -15.411   0.196  1.00  0.00     0.030 A 
HETATM    7  C   UNL     1      40.164 -14.387  -0.245  1.00  0.00     0.019 A 
HETATM    8  C   UNL     1      39.021 -14.054   0.486  1.00  0.00     0.032 A 
HETATM    9  C   UNL     1      38.752 -14.734   1.678  1.00  0.00     0.019 A 
HETATM   10  C   UNL     1      39.599 -15.758   2.114  1.00  0.00     0.030 A 
BRANCH   8  11
HETATM   11  C   UNL     1      38.079 -12.989   0.052  1.00  0.00     0.249 C 
HETATM   12  N   UNL     1      36.902 -12.867   0.737  1.00  0.00    -0.366 N 
HETATM   13  H   UNL     1      36.736 -13.314   1.627  1.00  0.00     0.159 HD
HETATM   14  H   UNL     1      36.324 -12.071   0.497  1.00  0.00     0.159 HD
HETATM   15  O   UNL     1      38.353 -12.221  -0.860  1.00  0.00    -0.268 OA
ENDBRANCH   8  11
ENDBRANCH   2   5
BRANCH   1  16
HETATM   16  C   UNL     1      43.314 -18.446   2.703  1.00  0.00     0.144 A 
HETATM   17  O   UNL     1      43.789 -18.740   3.957  1.00  0.00    -0.304 OA
HETATM   18  C   UNL     1      44.193 -20.041   3.937  1.00  0.00     0.086 A 
HETATM   19  C   UNL     1      43.995 -20.592   2.677  1.00  0.00     0.001 A 
HETATM   20  C   UNL     1      44.722 -20.739   5.020  1.00  0.00     0.038 A 
HETATM   21  C   UNL     1      44.346 -21.937   2.467  1.00  0.00     0.014 A 
HETATM   22  C   UNL     1      43.438 -19.555   1.887  1.00  0.00     0.057 A 
HETATM   23  C   UNL     1      44.877 -22.668   3.540  1.00  0.00     0.001 A 
HETATM   24  C   UNL     1      45.061 -22.077   4.793  1.00  0.00     0.003 A 
ENDBRANCH   1  16
TORSDOF 3
ENDMDL
MODEL 4
REMARK VINA RESULT:      -7.6      4.749      9.244
REMARK  3 active torsions:
REMARK  status: ('A' for Active; 'I' for Inactive)
REMARK    1  A    between atoms: C_6  and  C_7 
REMARK       I    between atoms: C_7  and  N_8 
REMARK    2  A    between atoms: N_8  and  C_9 
REMARK    3  A    between atoms: C_12  and  C_13 
REMARK       I    between atoms: C_13  and  N_14 
ROOT
HETATM    1  C   UNL     1      42.827 -16.589   4.649  1.00  0.00     0.280 C 
HETATM    2  N   UNL     1      41.498 -16.338   4.354  1.00  0.00    -0.321 N 
HETATM    3  O   UNL     1      43.600 -15.797   5.177  1.00  0.00    -0.265 OA
HETATM    4  H   UNL     1      40.998 -17.126   3.955  1.00  0.00     0.169 HD
ENDROOT
BRANCH   2   5
HETATM    5  C   UNL     1      40.785 -15.134   4.499  1.00  0.00     0.035 A 
HETATM    6  C   UNL     1      40.388 -14.604   5.728  1.00  0.00     0.030 A 
HETATM    7  C   UNL     1      39.716 -13.376   5.794  1.00  0.00     0.019 A 
HETATM    8  C   UNL     1      39.438 -12.661   4.626  1.00  0.00     0.032 A 
HETATM    9  C   UNL     1      39.808 -13.202   3.391  1.00  0.00     0.019 A 
HETATM   10  C   UNL     1      40.482 -14.426   3.329  1.00  0.00     0.030 A 
BRANCH   8  11
HETATM   11  C   UNL     1      38.745 -11.345   4.643  1.00  0.00     0.249 C 
HETATM   12  N   UNL     1      37.990 -11.014   3.552  1.00  0.00    -0.366 N 
HETATM   13  H   UNL     1      37.719 -11.684   2.848  1.00  0.00     0.159 HD
HETATM   14  H   UNL     1      37.443 -10.166   3.628  1.00  0.00     0.159 HD
HETATM   15  O   UNL     1      38.813 -10.595   5.607  1.00  0.00    -0.268 OA
ENDBRANCH   8  11
ENDBRANCH   2   5
BRANCH   1  16
HETATM   16  C   UNL     1      43.247 -17.920   4.252  1.00  0.00     0.144 A 
HETATM   17  O   UNL     1      42.890 -18.399   3.015  1.00  0.00    -0.304 OA
HETATM   18  C   UNL     1      43.451 -19.634   2.887  1.00  0.00     0.086 A 
HETATM   19  C   UNL     1      44.160 -19.966   4.035  1.00  0.00     0.001 A 
HETATM   20  C   UNL     1      43.348 -20.455   1.768  1.00  0.00     0.038 A 
HETATM   21  C   UNL     1      44.819 -21.207   4.084  1.00  0.00     0.014 A 
HETATM   22  C   UNL     1      44.014 -18.861   4.912  1.00  0.00     0.057 A 
HETATM   23  C   UNL     1      44.737 -22.055   2.970  1.00  0.00     0.001 A 
HETATM   24  C   UNL     1      44.014 -21.685   1.834  1.00  0.00     0.003 A 
ENDBRANCH   1  16
TORSDOF 3
ENDMDL
MODEL 5
REMARK VINA RESULT:      -7.5      6.903      9.965
REMARK  3 active torsions:
REMARK  status: ('A' for Active; 'I' for Inactive)
REMARK    1  A    between atoms: C_6  and  C_7 
REMARK       I    between atoms: C_7  and  N_8 
REMARK    2  A    between atoms: N_8  and  C_9 
REMARK    3  A    between atoms: C_12  and  C_13 
REMARK       I    between atoms: C_13  and  N_14 
ROOT
HETATM    1  C   UNL     1      41.397 -16.949   1.291  1.00  0.00     0.280 C 
HETATM    2  N   UNL     1      41.988 -16.358   0.188  1.00  0.00    -0.321 N 
HETATM    3  O   UNL     1      40.236 -16.782   1.651  1.00  0.00    -0.265 OA
HETATM    4  H   UNL     1      42.947 -16.644   0.019  1.00  0.00     0.169 HD
ENDROOT
BRANCH   2   5
HETATM    5  C   UNL     1      41.444 -15.395  -0.682  1.00  0.00     0.035 A 
HETATM    6  C   UNL     1      41.348 -14.035  -0.380  1.00  0.00     0.030 A 
HETATM    7  C   UNL     1      40.832 -13.129  -1.317  1.00  0.00     0.019 A 
HETATM    8  C   UNL     1      40.408 -13.577  -2.571  1.00  0.00     0.032 A 
HETATM    9  C   UNL     1      40.476 -14.942  -2.866  1.00  0.00     0.019 A 
HETATM   10  C   UNL     1      40.995 -15.843  -1.930  1.00  0.00     0.030 A 
BRANCH   8  11
HETATM   11  C   UNL     1      39.871 -12.656  -3.607  1.00  0.00     0.249 C 
HETATM   12  N   UNL     1      38.546 -12.765  -3.925  1.00  0.00    -0.366 N 
HETATM   13  H   UNL     1      37.887 -13.282  -3.363  1.00  0.00     0.159 HD
HETATM   14  H   UNL     1      38.176 -12.061  -4.552  1.00  0.00     0.159 HD
HETATM   15  O   UNL     1      40.572 -11.802  -4.135  1.00  0.00    -0.268 OA
ENDBRANCH   8  11
ENDBRANCH   2   5
BRANCH   1  16
HETATM   16  C   UNL     1      42.309 -17.808   2.023  1.00  0.00     0.144 A 
HETATM   17  O   UNL     1      42.332 -17.754   3.395  1.00  0.00    -0.304 OA
HETATM   18  C   UNL     1      43.231 -18.686   3.817  1.00  0.00     0.086 A 
HETATM   19  C   UNL     1      43.802 -19.337   2.731  1.00  0.00     0.001 A 
HETATM   20  C   UNL     1      43.539 -18.967   5.146  1.00  0.00     0.038 A 
HETATM   21  C   UNL     1      44.752 -20.344   2.972  1.00  0.00     0.014 A 
HETATM   22  C   UNL     1      43.210 -18.757   1.580  1.00  0.00     0.057 A 
HETATM   23  C   UNL     1      45.080 -20.654   4.300  1.00  0.00     0.001 A 
HETATM   24  C   UNL     1      44.484 -19.976   5.366  1.00  0.00     0.003 A 
ENDBRANCH   1  16
TORSDOF 3
ENDMDL
MODEL 6
REMARK VINA RESULT:      -7.5      7.064      8.916
REMARK  3 active torsions:
REMARK  status: ('A' for Active; 'I' for Inactive)
REMARK    1  A    between atoms: C_6  and  C_7 
REMARK       I    between atoms: C_7  and  N_8 
REMARK    2  A    between atoms: N_8  and  C_9 
REMARK    3  A    between atoms: C_12  and  C_13 
REMARK       I    between atoms: C_13  and  N_14 
ROOT
HETATM    1  C   UNL     1      41.884 -16.696   1.665  1.00  0.00     0.280 C 
HETATM    2  N   UNL     1      42.986 -17.503   1.447  1.00  0.00    -0.321 N 
HETATM    3  O   UNL     1      41.176 -16.713   2.667  1.00  0.00    -0.265 OA
HETATM    4  H   UNL     1      43.478 -17.322   0.578  1.00  0.00     0.169 HD
ENDROOT
BRANCH   2   5
HETATM    5  C   UNL     1      43.471 -18.552   2.250  1.00  0.00     0.035 A 
HETATM    6  C   UNL     1      43.910 -18.390   3.566  1.00  0.00     0.030 A 
HETATM    7  C   UNL     1      44.340 -19.492   4.318  1.00  0.00     0.019 A 
HETATM    8  C   UNL     1      44.332 -20.773   3.758  1.00  0.00     0.032 A 
HETATM    9  C   UNL     1      43.920 -20.936   2.432  1.00  0.00     0.019 A 
HETATM   10  C   UNL     1      43.488 -19.834   1.686  1.00  0.00     0.030 A 
BRANCH   8  11
HETATM   11  C   UNL     1      44.760 -21.978   4.518  1.00  0.00     0.249 C 
HETATM   12  N   UNL     1      44.885 -23.151   3.827  1.00  0.00    -0.366 N 
HETATM   13  H   UNL     1      44.902 -23.195   2.819  1.00  0.00     0.159 HD
HETATM   14  H   UNL     1      45.279 -23.931   4.338  1.00  0.00     0.159 HD
HETATM   15  O   UNL     1      45.028 -21.923   5.711  1.00  0.00    -0.268 OA
ENDBRANCH   8  11
ENDBRANCH   2   5
BRANCH   1  16
HETATM   16  C   UNL     1      41.618 -15.799   0.555  1.00  0.00     0.144 A 
HETATM   17  O   UNL     1      41.336 -16.324  -0.682  1.00  0.00    -0.304 OA
HETATM   18  C   UNL     1      41.083 -15.274  -1.513  1.00  0.00     0.086 A 
HETATM   19  C   UNL     1      41.210 -14.072  -0.829  1.00  0.00     0.001 A 
HETATM   20  C   UNL     1      40.735 -15.374  -2.858  1.00  0.00     0.038 A 
HETATM   21  C   UNL     1      40.976 -12.873  -1.525  1.00  0.00     0.014 A 
HETATM   22  C   UNL     1      41.565 -14.420   0.499  1.00  0.00     0.057 A 
HETATM   23  C   UNL     1      40.618 -12.941  -2.879  1.00  0.00     0.001 A 
HETATM   24  C   UNL     1      40.501 -14.170  -3.532  1.00  0.00     0.003 A 
ENDBRANCH   1  16
TORSDOF 3
ENDMDL
MODEL 7
REMARK VINA RESULT:      -7.4      6.523      8.938
REMARK  3 active torsions:
REMARK  status: ('A' for Active; 'I' for Inactive)
REMARK    1  A    between atoms: C_6  and  C_7 
REMARK       I    between atoms: C_7  and  N_8 
REMARK    2  A    between atoms: N_8  and  C_9 
REMARK    3  A    between atoms: C_12  and  C_13 
REMARK       I    between atoms: C_13  and  N_14 
ROOT
HETATM    1  C   UNL     1      41.573 -16.121   0.915  1.00  0.00     0.280 C 
HETATM    2  N   UNL     1      42.868 -16.430   1.291  1.00  0.00    -0.321 N 
HETATM    3  O   UNL     1      40.555 -16.554   1.447  1.00  0.00    -0.265 OA
HETATM    4  H   UNL     1      43.588 -15.946   0.764  1.00  0.00     0.169 HD
ENDROOT
BRANCH   2   5
HETATM    5  C   UNL     1      43.297 -17.348   2.267  1.00  0.00     0.035 A 
HETATM    6  C   UNL     1      43.344 -17.069   3.635  1.00  0.00     0.030 A 
HETATM    7  C   UNL     1      43.744 -18.051   4.552  1.00  0.00     0.019 A 
HETATM    8  C   UNL     1      44.098 -19.328   4.108  1.00  0.00     0.032 A 
HETATM    9  C   UNL     1      44.080 -19.602   2.737  1.00  0.00     0.019 A 
HETATM   10  C   UNL     1      43.677 -18.621   1.825  1.00  0.00     0.030 A 
BRANCH   8  11
HETATM   11  C   UNL     1      44.511 -20.410   5.040  1.00  0.00     0.249 C 
HETATM   12  N   UNL     1      44.035 -20.359   6.320  1.00  0.00    -0.366 N 
HETATM   13  H   UNL     1      43.275 -19.756   6.600  1.00  0.00     0.159 HD
HETATM   14  H   UNL     1      44.240 -21.158   6.907  1.00  0.00     0.159 HD
HETATM   15  O   UNL     1      45.221 -21.338   4.674  1.00  0.00    -0.268 OA
ENDBRANCH   8  11
ENDBRANCH   2   5
BRANCH   1  16
HETATM   16  C   UNL     1      41.519 -15.215  -0.217  1.00  0.00     0.144 A 
HETATM   17  O   UNL     1      42.074 -13.964  -0.106  1.00  0.00    -0.304 OA
HETATM   18  C   UNL     1      41.927 -13.352  -1.315  1.00  0.00     0.086 A 
HETATM   19  C   UNL     1      41.271 -14.191  -2.206  1.00  0.00     0.001 A 
HETATM   20  C   UNL     1      42.375 -12.072  -1.632  1.00  0.00     0.038 A 
HETATM   21  C   UNL     1      41.036 -13.732  -3.514  1.00  0.00     0.014 A 
HETATM   22  C   UNL     1      41.003 -15.384  -1.488  1.00  0.00     0.057 A 
HETATM   23  C   UNL     1      41.479 -12.449  -3.866  1.00  0.00     0.001 A 
HETATM   24  C   UNL     1      42.136 -11.635  -2.939  1.00  0.00     0.003 A 
ENDBRANCH   1  16
TORSDOF 3
ENDMDL
MODEL 8
REMARK VINA RESULT:      -7.3      1.694      2.115
REMARK  3 active torsions:
REMARK  status: ('A' for Active; 'I' for Inactive)
REMARK    1  A    between atoms: C_6  and  C_7 
REMARK       I    between atoms: C_7  and  N_8 
REMARK    2  A    between atoms: N_8  and  C_9 
REMARK    3  A    between atoms: C_12  and  C_13 
REMARK       I    between atoms: C_13  and  N_14 
ROOT
HETATM    1  C   UNL     1      44.656 -12.991   7.713  1.00  0.00     0.280 C 
HETATM    2  N   UNL     1      43.547 -13.452   7.025  1.00  0.00    -0.321 N 
HETATM    3  O   UNL     1      45.820 -13.286   7.464  1.00  0.00    -0.265 OA
HETATM    4  H   UNL     1      42.663 -13.069   7.344  1.00  0.00     0.169 HD
ENDROOT
BRANCH   2   5
HETATM    5  C   UNL     1      43.497 -14.400   5.987  1.00  0.00     0.035 A 
HETATM    6  C   UNL     1      43.474 -15.782   6.191  1.00  0.00     0.030 A 
HETATM    7  C   UNL     1      43.380 -16.664   5.106  1.00  0.00     0.019 A 
HETATM    8  C   UNL     1      43.305 -16.171   3.801  1.00  0.00     0.032 A 
HETATM    9  C   UNL     1      43.357 -14.789   3.590  1.00  0.00     0.019 A 
HETATM   10  C   UNL     1      43.447 -13.912   4.675  1.00  0.00     0.030 A 
BRANCH   8  11
HETATM   11  C   UNL     1      43.187 -17.062   2.617  1.00  0.00     0.249 C 
HETATM   12  N   UNL     1      44.229 -17.082   1.732  1.00  0.00    -0.366 N 
HETATM   13  H   UNL     1      45.135 -16.691   1.942  1.00  0.00     0.159 HD
HETATM   14  H   UNL     1      44.175 -17.772   0.993  1.00  0.00     0.159 HD
HETATM   15  O   UNL     1      42.212 -17.784   2.451  1.00  0.00    -0.268 OA
ENDBRANCH   8  11
ENDBRANCH   2   5
BRANCH   1  16
HETATM   16  C   UNL     1      44.307 -12.103   8.806  1.00  0.00     0.144 A 
HETATM   17  O   UNL     1      43.286 -11.200   8.643  1.00  0.00    -0.304 OA
HETATM   18  C   UNL     1      43.143 -10.539   9.825  1.00  0.00     0.086 A 
HETATM   19  C   UNL     1      44.071 -10.996  10.752  1.00  0.00     0.001 A 
HETATM   20  C   UNL     1      42.199  -9.549  10.088  1.00  0.00     0.038 A 
HETATM   21  C   UNL     1      44.070 -10.434  12.040  1.00  0.00     0.014 A 
HETATM   22  C   UNL     1      44.823 -11.996  10.084  1.00  0.00     0.057 A 
HETATM   23  C   UNL     1      43.128  -9.438  12.338  1.00  0.00     0.001 A 
HETATM   24  C   UNL     1      42.210  -9.005  11.377  1.00  0.00     0.003 A 
ENDBRANCH   1  16
TORSDOF 3
ENDMDL
MODEL 9
REMARK VINA RESULT:      -7.1      6.933      8.952
REMARK  3 active torsions:
REMARK  status: ('A' for Active; 'I' for Inactive)
REMARK    1  A    between atoms: C_6  and  C_7 
REMARK       I    between atoms: C_7  and  N_8 
REMARK    2  A    between atoms: N_8  and  C_9 
REMARK    3  A    between atoms: C_12  and  C_13 
REMARK       I    between atoms: C_13  and  N_14 
ROOT
HETATM    1  C   UNL     1      41.553 -16.802   0.812  1.00  0.00     0.280 C 
HETATM    2  N   UNL     1      42.755 -16.885   1.493  1.00  0.00    -0.321 N 
HETATM    3  O   UNL     1      40.622 -17.593   0.913  1.00  0.00    -0.265 OA
HETATM    4  H   UNL     1      43.395 -16.118   1.315  1.00  0.00     0.169 HD
ENDROOT
BRANCH   2   5
HETATM    5  C   UNL     1      43.203 -17.907   2.350  1.00  0.00     0.035 A 
HETATM    6  C   UNL     1      43.922 -19.025   1.923  1.00  0.00     0.030 A 
HETATM    7  C   UNL     1      44.371 -19.981   2.845  1.00  0.00     0.019 A 
HETATM    8  C   UNL     1      44.106 -19.825   4.208  1.00  0.00     0.032 A 
HETATM    9  C   UNL     1      43.361 -18.722   4.636  1.00  0.00     0.019 A 
HETATM   10  C   UNL     1      42.918 -17.768   3.714  1.00  0.00     0.030 A 
BRANCH   8  11
HETATM   11  C   UNL     1      44.575 -20.800   5.228  1.00  0.00     0.249 C 
HETATM   12  N   UNL     1      44.088 -20.670   6.499  1.00  0.00    -0.366 N 
HETATM   13  H   UNL     1      43.292 -20.093   6.725  1.00  0.00     0.159 HD
HETATM   14  H   UNL     1      44.336 -21.405   7.150  1.00  0.00     0.159 HD
HETATM   15  O   UNL     1      45.341 -21.711   4.942  1.00  0.00    -0.268 OA
ENDBRANCH   8  11
ENDBRANCH   2   5
BRANCH   1  16
HETATM   16  C   UNL     1      41.493 -15.658  -0.080  1.00  0.00     0.144 A 
HETATM   17  O   UNL     1      41.165 -15.849  -1.399  1.00  0.00    -0.304 OA
HETATM   18  C   UNL     1      41.135 -14.619  -1.986  1.00  0.00     0.086 A 
HETATM   19  C   UNL     1      41.452 -13.633  -1.061  1.00  0.00     0.001 A 
HETATM   20  C   UNL     1      40.822 -14.368  -3.319  1.00  0.00     0.038 A 
HETATM   21  C   UNL     1      41.462 -12.292  -1.483  1.00  0.00     0.014 A 
HETATM   22  C   UNL     1      41.691 -14.312   0.161  1.00  0.00     0.057 A 
HETATM   23  C   UNL     1      41.147 -12.006  -2.819  1.00  0.00     0.001 A 
HETATM   24  C   UNL     1      40.834 -13.027  -3.720  1.00  0.00     0.003 A 
ENDBRANCH   1  16
TORSDOF 3
ENDMDL
MODEL 10
REMARK VINA RESULT:      -7.0      6.555      9.850
REMARK  3 active torsions:
REMARK  status: ('A' for Active; 'I' for Inactive)
REMARK    1  A    between atoms: C_6  and  C_7 
REMARK       I    between atoms: C_7  and  N_8 
REMARK    2  A    between atoms: N_8  and  C_9 
REMARK    3  A    between atoms: C_12  and  C_13 
REMARK       I    between atoms: C_13  and  N_14 
ROOT
HETATM    1  C   UNL     1      41.868 -16.093   2.543  1.00  0.00     0.280 C 
HETATM    2  N   UNL     1      40.762 -16.289   1.735  1.00  0.00    -0.321 N 
HETATM    3  O   UNL     1      42.262 -15.009   2.960  1.00  0.00    -0.265 OA
HETATM    4  H   UNL     1      40.561 -17.260   1.522  1.00  0.00     0.169 HD
ENDROOT
BRANCH   2   5
HETATM    5  C   UNL     1      39.927 -15.319   1.151  1.00  0.00     0.035 A 
HETATM    6  C   UNL     1      38.689 -14.936   1.673  1.00  0.00     0.030 A 
HETATM    7  C   UNL     1      37.933 -13.931   1.056  1.00  0.00     0.019 A 
HETATM    8  C   UNL     1      38.410 -13.293  -0.091  1.00  0.00     0.032 A 
HETATM    9  C   UNL     1      39.636 -13.692  -0.634  1.00  0.00     0.019 A 
HETATM   10  C   UNL     1      40.390 -14.694  -0.014  1.00  0.00     0.030 A 
BRANCH   8  11
HETATM   11  C   UNL     1      37.656 -12.208  -0.773  1.00  0.00     0.249 C 
HETATM   12  N   UNL     1      37.097 -11.236   0.010  1.00  0.00    -0.366 N 
HETATM   13  H   UNL     1      37.339 -11.108   0.982  1.00  0.00     0.159 HD
HETATM   14  H   UNL     1      36.681 -10.453  -0.477  1.00  0.00     0.159 HD
HETATM   15  O   UNL     1      37.564 -12.157  -1.992  1.00  0.00    -0.268 OA
ENDBRANCH   8  11
ENDBRANCH   2   5
BRANCH   1  16
HETATM   16  C   UNL     1      42.558 -17.331   2.858  1.00  0.00     0.144 A 
HETATM   17  O   UNL     1      42.526 -18.368   1.959  1.00  0.00    -0.304 OA
HETATM   18  C   UNL     1      43.284 -19.373   2.480  1.00  0.00     0.086 A 
HETATM   19  C   UNL     1      43.798 -19.002   3.716  1.00  0.00     0.001 A 
HETATM   20  C   UNL     1      43.528 -20.600   1.869  1.00  0.00     0.038 A 
HETATM   21  C   UNL     1      44.617 -19.913   4.405  1.00  0.00     0.014 A 
HETATM   22  C   UNL     1      43.317 -17.690   3.956  1.00  0.00     0.057 A 
HETATM   23  C   UNL     1      44.886 -21.156   3.814  1.00  0.00     0.001 A 
HETATM   24  C   UNL     1      44.349 -21.492   2.569  1.00  0.00     0.003 A 
ENDBRANCH   1  16
TORSDOF 3
ENDMDL
