MODEL 1
REMARK VINA RESULT:      -8.7      0.000      0.000
REMARK  3 active torsions:
REMARK  status: ('A' for Active; 'I' for Inactive)
REMARK    1  A    between atoms: C_4  and  C_5 
REMARK    2  A    between atoms: C_11  and  C_12 
REMARK    3  A    between atoms: C_21  and  N_22 
ROOT
HETATM    1  C   UNL     1      43.252 -17.797   1.817  1.00  0.00     0.098 A 
HETATM    2  N   UNL     1      42.792 -17.386   0.620  1.00  0.00    -0.172 NA
HETATM    3  N   UNL     1      42.502 -16.083   0.796  1.00  0.00    -0.256 N 
HETATM    4  H   UNL     1      42.139 -15.552   0.013  1.00  0.00     0.191 HD
HETATM    5  C   UNL     1      42.747 -15.655   2.059  1.00  0.00     0.175 A 
HETATM    6  C   UNL     1      43.206 -16.736   2.764  1.00  0.00     0.036 A 
HETATM    7  C   UNL     1      43.497 -16.623   4.237  1.00  0.00     0.076 C 
HETATM    8  C   UNL     1      43.433 -15.126   4.623  1.00  0.00     0.063 C 
HETATM    9  C   UNL     1      43.974 -14.752   5.994  1.00  0.00     0.020 C 
HETATM   10  N   UNL     1      44.424 -14.442   7.130  1.00  0.00    -0.096 N 
HETATM   11  C   UNL     1      42.978 -14.144   3.799  1.00  0.00     0.139 C 
HETATM   12  O   UNL     1      42.556 -14.415   2.487  1.00  0.00    -0.279 OA
ENDROOT
BRANCH   7  13
HETATM   13  C   UNL     1      42.566 -17.613   5.034  1.00  0.00     0.003 C 
HETATM   14  C   UNL     1      41.737 -16.964   6.158  1.00  0.00     0.032 C 
HETATM   15  C   UNL     1      42.346 -17.072   7.519  1.00  0.00    -0.030 C 
HETATM   16  C   UNL     1      43.306 -17.950   7.832  1.00  0.00    -0.031 C 
HETATM   17  C   UNL     1      43.888 -18.932   6.866  1.00  0.00     0.027 C 
HETATM   18  C   UNL     1      43.243 -18.926   5.481  1.00  0.00     0.009 C 
ENDBRANCH   7  13
BRANCH  11  19
HETATM   19  N   UNL     1      42.898 -12.808   4.115  1.00  0.00    -0.282 NA
HETATM   20  H   UNL     1      42.175 -12.548   4.780  1.00  0.00     0.126 HD
HETATM   21  H   UNL     1      43.807 -12.410   4.336  1.00  0.00     0.126 HD
ENDBRANCH  11  19
BRANCH   1  22
HETATM   22  C   UNL     1      43.664 -19.181   2.031  1.00  0.00    -0.005 A 
HETATM   23  C   UNL     1      44.869 -19.477   2.683  1.00  0.00     0.014 A 
HETATM   24  C   UNL     1      45.229 -20.804   2.931  1.00  0.00     0.001 A 
HETATM   25  C   UNL     1      44.390 -21.841   2.529  1.00  0.00     0.000 A 
HETATM   26  C   UNL     1      43.194 -21.557   1.870  1.00  0.00     0.001 A 
HETATM   27  C   UNL     1      42.835 -20.232   1.617  1.00  0.00     0.014 A 
ENDBRANCH   1  22
TORSDOF 3
ENDMDL
MODEL 2
REMARK VINA RESULT:      -8.4      2.083      4.496
REMARK  3 active torsions:
REMARK  status: ('A' for Active; 'I' for Inactive)
REMARK    1  A    between atoms: C_4  and  C_5 
REMARK    2  A    between atoms: C_11  and  C_12 
REMARK    3  A    between atoms: C_21  and  N_22 
ROOT
HETATM    1  C   UNL     1      44.073 -17.412   6.095  1.00  0.00     0.098 A 
HETATM    2  N   UNL     1      44.861 -16.768   6.976  1.00  0.00    -0.172 NA
HETATM    3  N   UNL     1      44.509 -15.473   6.863  1.00  0.00    -0.256 N 
HETATM    4  H   UNL     1      44.974 -14.787   7.446  1.00  0.00     0.191 HD
HETATM    5  C   UNL     1      43.540 -15.269   5.937  1.00  0.00     0.175 A 
HETATM    6  C   UNL     1      43.246 -16.491   5.393  1.00  0.00     0.036 A 
HETATM    7  C   UNL     1      42.258 -16.609   4.262  1.00  0.00     0.076 C 
HETATM    8  C   UNL     1      41.553 -15.241   4.100  1.00  0.00     0.063 C 
HETATM    9  C   UNL     1      40.319 -15.211   3.213  1.00  0.00     0.020 C 
HETATM   10  N   UNL     1      39.295 -15.187   2.478  1.00  0.00    -0.096 N 
HETATM   11  C   UNL     1      41.940 -14.103   4.737  1.00  0.00     0.139 C 
HETATM   12  O   UNL     1      43.012 -14.089   5.644  1.00  0.00    -0.279 OA
ENDROOT
BRANCH   7  13
HETATM   13  C   UNL     1      42.980 -17.203   2.994  1.00  0.00     0.003 C 
HETATM   14  C   UNL     1      43.478 -16.156   1.980  1.00  0.00     0.032 C 
HETATM   15  C   UNL     1      42.544 -15.905   0.839  1.00  0.00    -0.030 C 
HETATM   16  C   UNL     1      41.559 -16.741   0.492  1.00  0.00    -0.031 C 
HETATM   17  C   UNL     1      41.267 -18.028   1.196  1.00  0.00     0.027 C 
HETATM   18  C   UNL     1      42.244 -18.379   2.318  1.00  0.00     0.009 C 
ENDBRANCH   7  13
BRANCH  11  19
HETATM   19  N   UNL     1      41.342 -12.871   4.606  1.00  0.00    -0.282 NA
HETATM   20  H   UNL     1      40.329 -12.871   4.527  1.00  0.00     0.126 HD
HETATM   21  H   UNL     1      41.691 -12.200   5.286  1.00  0.00     0.126 HD
ENDBRANCH  11  19
BRANCH   1  22
HETATM   22  C   UNL     1      44.169 -18.858   5.914  1.00  0.00    -0.005 A 
HETATM   23  C   UNL     1      44.819 -19.399   4.798  1.00  0.00     0.014 A 
HETATM   24  C   UNL     1      44.952 -20.783   4.662  1.00  0.00     0.001 A 
HETATM   25  C   UNL     1      44.437 -21.633   5.638  1.00  0.00     0.000 A 
HETATM   26  C   UNL     1      43.779 -21.104   6.748  1.00  0.00     0.001 A 
HETATM   27  C   UNL     1      43.640 -19.721   6.883  1.00  0.00     0.014 A 
ENDBRANCH   1  22
TORSDOF 3
ENDMDL
MODEL 3
REMARK VINA RESULT:      -8.4      2.439      4.602
REMARK  3 active torsions:
REMARK  status: ('A' for Active; 'I' for Inactive)
REMARK    1  A    between atoms: C_4  and  C_5 
REMARK    2  A    between atoms: C_11  and  C_12 
REMARK    3  A    between atoms: C_21  and  N_22 
ROOT
HETATM    1  C   UNL     1      42.722 -17.917   5.147  1.00  0.00     0.098 A 
HETATM    2  N   UNL     1      42.951 -18.028   6.468  1.00  0.00    -0.172 NA
HETATM    3  N   UNL     1      42.237 -17.028   7.022  1.00  0.00    -0.256 N 
HETATM    4  H   UNL     1      42.252 -16.916   8.029  1.00  0.00     0.191 HD
HETATM    5  C   UNL     1      41.577 -16.282   6.104  1.00  0.00     0.175 A 
HETATM    6  C   UNL     1      41.882 -16.801   4.874  1.00  0.00     0.036 A 
HETATM    7  C   UNL     1      41.372 -16.146   3.617  1.00  0.00     0.076 C 
HETATM    8  C   UNL     1      40.333 -15.075   4.025  1.00  0.00     0.063 C 
HETATM    9  C   UNL     1      39.482 -14.491   2.909  1.00  0.00     0.020 C 
HETATM   10  N   UNL     1      38.774 -14.008   1.983  1.00  0.00    -0.096 N 
HETATM   11  C   UNL     1      40.111 -14.676   5.306  1.00  0.00     0.139 C 
HETATM   12  O   UNL     1      40.798 -15.248   6.390  1.00  0.00    -0.279 OA
ENDROOT
BRANCH   7  13
HETATM   13  C   UNL     1      42.592 -15.671   2.740  1.00  0.00     0.003 C 
HETATM   14  C   UNL     1      43.131 -14.269   3.083  1.00  0.00     0.032 C 
HETATM   15  C   UNL     1      42.595 -13.171   2.220  1.00  0.00    -0.030 C 
HETATM   16  C   UNL     1      42.010 -13.380   1.036  1.00  0.00    -0.031 C 
HETATM   17  C   UNL     1      41.819 -14.731   0.424  1.00  0.00     0.027 C 
HETATM   18  C   UNL     1      42.425 -15.886   1.221  1.00  0.00     0.009 C 
ENDBRANCH   7  13
BRANCH  11  19
HETATM   19  N   UNL     1      39.204 -13.720   5.700  1.00  0.00    -0.282 NA
HETATM   20  H   UNL     1      38.558 -13.992   6.437  1.00  0.00     0.126 HD
HETATM   21  H   UNL     1      39.642 -12.818   5.866  1.00  0.00     0.126 HD
ENDBRANCH  11  19
BRANCH   1  22
HETATM   22  C   UNL     1      43.343 -18.833   4.195  1.00  0.00    -0.005 A 
HETATM   23  C   UNL     1      44.470 -19.583   4.554  1.00  0.00     0.014 A 
HETATM   24  C   UNL     1      45.025 -20.497   3.654  1.00  0.00     0.001 A 
HETATM   25  C   UNL     1      44.458 -20.666   2.392  1.00  0.00     0.000 A 
HETATM   26  C   UNL     1      43.342 -19.916   2.022  1.00  0.00     0.001 A 
HETATM   27  C   UNL     1      42.789 -18.999   2.918  1.00  0.00     0.014 A 
ENDBRANCH   1  22
TORSDOF 3
ENDMDL
MODEL 4
REMARK VINA RESULT:      -8.2      2.866      5.117
REMARK  3 active torsions:
REMARK  status: ('A' for Active; 'I' for Inactive)
REMARK    1  A    between atoms: C_4  and  C_5 
REMARK    2  A    between atoms: C_11  and  C_12 
REMARK    3  A    between atoms: C_21  and  N_22 
ROOT
HETATM    1  C   UNL     1      43.232 -17.999   2.416  1.00  0.00     0.098 A 
HETATM    2  N   UNL     1      43.693 -18.339   1.198  1.00  0.00    -0.172 NA
HETATM    3  N   UNL     1      44.345 -19.500   1.393  1.00  0.00    -0.256 N 
HETATM    4  H   UNL     1      44.779 -19.958   0.599  1.00  0.00     0.191 HD
HETATM    5  C   UNL     1      44.328 -19.904   2.687  1.00  0.00     0.175 A 
HETATM    6  C   UNL     1      43.644 -18.950   3.392  1.00  0.00     0.036 A 
HETATM    7  C   UNL     1      43.512 -19.050   4.889  1.00  0.00     0.076 C 
HETATM    8  C   UNL     1      44.018 -20.448   5.320  1.00  0.00     0.063 C 
HETATM    9  C   UNL     1      43.711 -20.874   6.746  1.00  0.00     0.020 C 
HETATM   10  N   UNL     1      43.455 -21.228   7.929  1.00  0.00    -0.096 N 
HETATM   11  C   UNL     1      44.662 -21.315   4.492  1.00  0.00     0.139 C 
HETATM   12  O   UNL     1      44.888 -21.017   3.138  1.00  0.00    -0.279 OA
ENDROOT
BRANCH   7  13
HETATM   13  C   UNL     1      44.191 -17.799   5.561  1.00  0.00     0.003 C 
HETATM   14  C   UNL     1      45.225 -18.129   6.654  1.00  0.00     0.032 C 
HETATM   15  C   UNL     1      44.688 -18.089   8.049  1.00  0.00    -0.030 C 
HETATM   16  C   UNL     1      43.549 -17.472   8.385  1.00  0.00    -0.031 C 
HETATM   17  C   UNL     1      42.674 -16.746   7.415  1.00  0.00     0.027 C 
HETATM   18  C   UNL     1      43.217 -16.680   5.988  1.00  0.00     0.009 C 
ENDBRANCH   7  13
BRANCH  11  19
HETATM   19  N   UNL     1      45.133 -22.557   4.846  1.00  0.00    -0.282 NA
HETATM   20  H   UNL     1      45.784 -22.583   5.627  1.00  0.00     0.126 HD
HETATM   21  H   UNL     1      44.388 -23.244   4.923  1.00  0.00     0.126 HD
ENDBRANCH  11  19
BRANCH   1  22
HETATM   22  C   UNL     1      42.470 -16.771   2.619  1.00  0.00    -0.005 A 
HETATM   23  C   UNL     1      41.104 -16.818   2.928  1.00  0.00     0.014 A 
HETATM   24  C   UNL     1      40.395 -15.638   3.173  1.00  0.00     0.001 A 
HETATM   25  C   UNL     1      41.046 -14.408   3.109  1.00  0.00     0.000 A 
HETATM   26  C   UNL     1      42.403 -14.350   2.792  1.00  0.00     0.001 A 
HETATM   27  C   UNL     1      43.111 -15.527   2.542  1.00  0.00     0.014 A 
ENDBRANCH   1  22
TORSDOF 3
ENDMDL
MODEL 5
REMARK VINA RESULT:      -7.8      2.680      5.511
REMARK  3 active torsions:
REMARK  status: ('A' for Active; 'I' for Inactive)
REMARK    1  A    between atoms: C_4  and  C_5 
REMARK    2  A    between atoms: C_11  and  C_12 
REMARK    3  A    between atoms: C_21  and  N_22 
ROOT
HETATM    1  C   UNL     1      40.565 -14.648   3.937  1.00  0.00     0.098 A 
HETATM    2  N   UNL     1      39.519 -14.225   4.671  1.00  0.00    -0.172 NA
HETATM    3  N   UNL     1      39.638 -14.881   5.841  1.00  0.00    -0.256 N 
HETATM    4  H   UNL     1      38.951 -14.714   6.568  1.00  0.00     0.191 HD
HETATM    5  C   UNL     1      40.708 -15.712   5.873  1.00  0.00     0.175 A 
HETATM    6  C   UNL     1      41.322 -15.618   4.653  1.00  0.00     0.036 A 
HETATM    7  C   UNL     1      42.509 -16.483   4.322  1.00  0.00     0.076 C 
HETATM    8  C   UNL     1      42.965 -17.186   5.624  1.00  0.00     0.063 C 
HETATM    9  C   UNL     1      44.316 -17.881   5.586  1.00  0.00     0.020 C 
HETATM   10  N   UNL     1      45.437 -18.457   5.556  1.00  0.00    -0.096 N 
HETATM   11  C   UNL     1      42.259 -17.169   6.787  1.00  0.00     0.139 C 
HETATM   12  O   UNL     1      41.052 -16.462   6.911  1.00  0.00    -0.279 OA
ENDROOT
BRANCH   7  13
HETATM   13  C   UNL     1      42.163 -17.402   3.091  1.00  0.00     0.003 C 
HETATM   14  C   UNL     1      42.395 -18.908   3.318  1.00  0.00     0.032 C 
HETATM   15  C   UNL     1      43.710 -19.416   2.820  1.00  0.00    -0.030 C 
HETATM   16  C   UNL     1      44.469 -18.759   1.934  1.00  0.00    -0.031 C 
HETATM   17  C   UNL     1      44.099 -17.441   1.331  1.00  0.00     0.027 C 
HETATM   18  C   UNL     1      42.723 -16.915   1.738  1.00  0.00     0.009 C 
ENDBRANCH   7  13
BRANCH  11  19
HETATM   19  N   UNL     1      42.630 -17.791   7.956  1.00  0.00    -0.282 NA
HETATM   20  H   UNL     1      41.939 -18.409   8.373  1.00  0.00     0.126 HD
HETATM   21  H   UNL     1      43.555 -18.208   7.894  1.00  0.00     0.126 HD
ENDBRANCH  11  19
BRANCH   1  22
HETATM   22  C   UNL     1      40.776 -14.163   2.576  1.00  0.00    -0.005 A 
HETATM   23  C   UNL     1      41.843 -13.304   2.280  1.00  0.00     0.014 A 
HETATM   24  C   UNL     1      42.069 -12.888   0.966  1.00  0.00     0.001 A 
HETATM   25  C   UNL     1      41.232 -13.326  -0.059  1.00  0.00     0.000 A 
HETATM   26  C   UNL     1      40.161 -14.172   0.228  1.00  0.00     0.001 A 
HETATM   27  C   UNL     1      39.931 -14.585   1.542  1.00  0.00     0.014 A 
ENDBRANCH   1  22
TORSDOF 3
ENDMDL
MODEL 6
REMARK VINA RESULT:      -7.6      3.003      6.589
REMARK  3 active torsions:
REMARK  status: ('A' for Active; 'I' for Inactive)
REMARK    1  A    between atoms: C_4  and  C_5 
REMARK    2  A    between atoms: C_11  and  C_12 
REMARK    3  A    between atoms: C_21  and  N_22 
ROOT
HETATM    1  C   UNL     1      43.688 -17.588   7.003  1.00  0.00     0.098 A 
HETATM    2  N   UNL     1      43.404 -18.022   8.245  1.00  0.00    -0.172 NA
HETATM    3  N   UNL     1      43.539 -19.360   8.177  1.00  0.00    -0.256 N 
HETATM    4  H   UNL     1      43.377 -19.912   9.013  1.00  0.00     0.191 HD
HETATM    5  C   UNL     1      43.884 -19.793   6.940  1.00  0.00     0.175 A 
HETATM    6  C   UNL     1      43.964 -18.685   6.139  1.00  0.00     0.036 A 
HETATM    7  C   UNL     1      44.248 -18.823   4.666  1.00  0.00     0.076 C 
HETATM    8  C   UNL     1      44.656 -20.290   4.394  1.00  0.00     0.063 C 
HETATM    9  C   UNL     1      45.262 -20.588   3.032  1.00  0.00     0.020 C 
HETATM   10  N   UNL     1      45.767 -20.835   1.903  1.00  0.00    -0.096 N 
HETATM   11  C   UNL     1      44.550 -21.293   5.307  1.00  0.00     0.139 C 
HETATM   12  O   UNL     1      44.088 -21.061   6.613  1.00  0.00    -0.279 OA
ENDROOT
BRANCH   7  13
HETATM   13  C   UNL     1      43.037 -18.245   3.841  1.00  0.00     0.003 C 
HETATM   14  C   UNL     1      42.517 -19.166   2.720  1.00  0.00     0.032 C 
HETATM   15  C   UNL     1      43.070 -18.865   1.364  1.00  0.00    -0.030 C 
HETATM   16  C   UNL     1      43.655 -17.704   1.045  1.00  0.00    -0.031 C 
HETATM   17  C   UNL     1      43.828 -16.565   1.998  1.00  0.00     0.027 C 
HETATM   18  C   UNL     1      43.204 -16.783   3.376  1.00  0.00     0.009 C 
ENDBRANCH   7  13
BRANCH  11  19
HETATM   19  N   UNL     1      44.893 -22.608   5.093  1.00  0.00    -0.282 NA
HETATM   20  H   UNL     1      44.241 -23.304   5.447  1.00  0.00     0.126 HD
HETATM   21  H   UNL     1      45.180 -22.780   4.133  1.00  0.00     0.126 HD
ENDBRANCH  11  19
BRANCH   1  22
HETATM   22  C   UNL     1      43.637 -16.168   6.670  1.00  0.00    -0.005 A 
HETATM   23  C   UNL     1      44.795 -15.380   6.711  1.00  0.00     0.014 A 
HETATM   24  C   UNL     1      44.746 -14.034   6.339  1.00  0.00     0.001 A 
HETATM   25  C   UNL     1      43.542 -13.468   5.925  1.00  0.00     0.000 A 
HETATM   26  C   UNL     1      42.381 -14.241   5.891  1.00  0.00     0.001 A 
HETATM   27  C   UNL     1      42.428 -15.585   6.268  1.00  0.00     0.014 A 
ENDBRANCH   1  22
TORSDOF 3
ENDMDL
MODEL 7
REMARK VINA RESULT:      -7.5      2.565      4.644
REMARK  3 active torsions:
REMARK  status: ('A' for Active; 'I' for Inactive)
REMARK    1  A    between atoms: C_4  and  C_5 
REMARK    2  A    between atoms: C_11  and  C_12 
REMARK    3  A    between atoms: C_21  and  N_22 
ROOT
HETATM    1  C   UNL     1      43.004 -18.046   3.608  1.00  0.00     0.098 A 
HETATM    2  N   UNL     1      42.963 -19.226   2.961  1.00  0.00    -0.172 NA
HETATM    3  N   UNL     1      42.564 -18.915   1.712  1.00  0.00    -0.256 N 
HETATM    4  H   UNL     1      42.465 -19.659   1.031  1.00  0.00     0.191 HD
HETATM    5  C   UNL     1      42.338 -17.589   1.546  1.00  0.00     0.175 A 
HETATM    6  C   UNL     1      42.582 -16.989   2.753  1.00  0.00     0.036 A 
HETATM    7  C   UNL     1      42.343 -15.514   2.938  1.00  0.00     0.076 C 
HETATM    8  C   UNL     1      42.074 -14.895   1.545  1.00  0.00     0.063 C 
HETATM    9  C   UNL     1      42.092 -13.378   1.458  1.00  0.00     0.020 C 
HETATM   10  N   UNL     1      42.107 -12.119   1.386  1.00  0.00    -0.096 N 
HETATM   11  C   UNL     1      41.880 -15.623   0.412  1.00  0.00     0.139 C 
HETATM   12  O   UNL     1      41.949 -17.026   0.411  1.00  0.00    -0.279 OA
ENDROOT
BRANCH   7  13
HETATM   13  C   UNL     1      41.247 -15.294   4.048  1.00  0.00     0.003 C 
HETATM   14  C   UNL     1      39.847 -14.934   3.516  1.00  0.00     0.032 C 
HETATM   15  C   UNL     1      39.549 -13.469   3.495  1.00  0.00    -0.030 C 
HETATM   16  C   UNL     1      40.239 -12.565   4.200  1.00  0.00    -0.031 C 
HETATM   17  C   UNL     1      41.388 -12.901   5.096  1.00  0.00     0.027 C 
HETATM   18  C   UNL     1      41.683 -14.395   5.224  1.00  0.00     0.009 C 
ENDBRANCH   7  13
BRANCH  11  19
HETATM   19  N   UNL     1      41.628 -15.105  -0.837  1.00  0.00    -0.282 NA
HETATM   20  H   UNL     1      41.905 -14.138  -0.985  1.00  0.00     0.126 HD
HETATM   21  H   UNL     1      41.934 -15.728  -1.581  1.00  0.00     0.126 HD
ENDBRANCH  11  19
BRANCH   1  22
HETATM   22  C   UNL     1      43.389 -17.970   5.014  1.00  0.00    -0.005 A 
HETATM   23  C   UNL     1      42.426 -17.757   6.009  1.00  0.00     0.014 A 
HETATM   24  C   UNL     1      42.797 -17.740   7.356  1.00  0.00     0.001 A 
HETATM   25  C   UNL     1      44.129 -17.935   7.716  1.00  0.00     0.000 A 
HETATM   26  C   UNL     1      45.096 -18.138   6.732  1.00  0.00     0.001 A 
HETATM   27  C   UNL     1      44.728 -18.150   5.385  1.00  0.00     0.014 A 
ENDBRANCH   1  22
TORSDOF 3
ENDMDL
MODEL 8
REMARK VINA RESULT:      -7.4      3.157      5.749
REMARK  3 active torsions:
REMARK  status: ('A' for Active; 'I' for Inactive)
REMARK    1  A    between atoms: C_4  and  C_5 
REMARK    2  A    between atoms: C_11  and  C_12 
REMARK    3  A    between atoms: C_21  and  N_22 
ROOT
HETATM    1  C   UNL     1      42.344 -15.647   4.290  1.00  0.00     0.098 A 
HETATM    2  N   UNL     1      42.775 -15.480   5.554  1.00  0.00    -0.172 NA
HETATM    3  N   UNL     1      42.059 -14.440   6.023  1.00  0.00    -0.256 N 
HETATM    4  H   UNL     1      42.212 -14.131   6.977  1.00  0.00     0.191 HD
HETATM    5  C   UNL     1      41.202 -13.933   5.104  1.00  0.00     0.175 A 
HETATM    6  C   UNL     1      41.371 -14.663   3.958  1.00  0.00     0.036 A 
HETATM    7  C   UNL     1      40.621 -14.303   2.702  1.00  0.00     0.076 C 
HETATM    8  C   UNL     1      39.556 -13.242   3.069  1.00  0.00     0.063 C 
HETATM    9  C   UNL     1      38.498 -12.947   2.019  1.00  0.00     0.020 C 
HETATM   10  N   UNL     1      37.619 -12.703   1.148  1.00  0.00    -0.096 N 
HETATM   11  C   UNL     1      39.489 -12.614   4.275  1.00  0.00     0.139 C 
HETATM   12  O   UNL     1      40.379 -12.916   5.318  1.00  0.00    -0.279 OA
ENDROOT
BRANCH   7  13
HETATM   13  C   UNL     1      41.647 -13.931   1.566  1.00  0.00     0.003 C 
HETATM   14  C   UNL     1      42.013 -12.437   1.485  1.00  0.00     0.032 C 
HETATM   15  C   UNL     1      41.226 -11.659   0.479  1.00  0.00    -0.030 C 
HETATM   16  C   UNL     1      40.542 -12.225  -0.522  1.00  0.00    -0.031 C 
HETATM   17  C   UNL     1      40.479 -13.699  -0.764  1.00  0.00     0.027 C 
HETATM   18  C   UNL     1      41.336 -14.540   0.183  1.00  0.00     0.009 C 
ENDBRANCH   7  13
BRANCH  11  19
HETATM   19  N   UNL     1      38.563 -11.661   4.628  1.00  0.00    -0.282 NA
HETATM   20  H   UNL     1      37.704 -11.648   4.085  1.00  0.00     0.126 HD
HETATM   21  H   UNL     1      38.402 -11.634   5.632  1.00  0.00     0.126 HD
ENDBRANCH  11  19
BRANCH   1  22
HETATM   22  C   UNL     1      42.902 -16.690   3.435  1.00  0.00    -0.005 A 
HETATM   23  C   UNL     1      42.597 -18.039   3.658  1.00  0.00     0.014 A 
HETATM   24  C   UNL     1      43.093 -19.025   2.801  1.00  0.00     0.001 A 
HETATM   25  C   UNL     1      43.896 -18.670   1.719  1.00  0.00     0.000 A 
HETATM   26  C   UNL     1      44.214 -17.330   1.495  1.00  0.00     0.001 A 
HETATM   27  C   UNL     1      43.724 -16.344   2.354  1.00  0.00     0.014 A 
ENDBRANCH   1  22
TORSDOF 3
ENDMDL
MODEL 9
REMARK VINA RESULT:      -7.3      2.667      5.141
REMARK  3 active torsions:
REMARK  status: ('A' for Active; 'I' for Inactive)
REMARK    1  A    between atoms: C_4  and  C_5 
REMARK    2  A    between atoms: C_11  and  C_12 
REMARK    3  A    between atoms: C_21  and  N_22 
ROOT
HETATM    1  C   UNL     1      43.032 -15.305   6.004  1.00  0.00     0.098 A 
HETATM    2  N   UNL     1      43.487 -14.365   6.854  1.00  0.00    -0.172 NA
HETATM    3  N   UNL     1      42.827 -13.244   6.505  1.00  0.00    -0.256 N 
HETATM    4  H   UNL     1      43.005 -12.390   7.021  1.00  0.00     0.191 HD
HETATM    5  C   UNL     1      41.983 -13.432   5.461  1.00  0.00     0.175 A 
HETATM    6  C   UNL     1      42.102 -14.743   5.085  1.00  0.00     0.036 A 
HETATM    7  C   UNL     1      41.355 -15.268   3.887  1.00  0.00     0.076 C 
HETATM    8  C   UNL     1      40.345 -14.184   3.441  1.00  0.00     0.063 C 
HETATM    9  C   UNL     1      39.289 -14.608   2.434  1.00  0.00     0.020 C 
HETATM   10  N   UNL     1      38.412 -14.960   1.600  1.00  0.00    -0.096 N 
HETATM   11  C   UNL     1      40.323 -12.915   3.932  1.00  0.00     0.139 C 
HETATM   12  O   UNL     1      41.211 -12.492   4.934  1.00  0.00    -0.279 OA
ENDROOT
BRANCH   7  13
HETATM   13  C   UNL     1      42.382 -15.783   2.810  1.00  0.00     0.003 C 
HETATM   14  C   UNL     1      42.654 -14.806   1.651  1.00  0.00     0.032 C 
HETATM   15  C   UNL     1      41.844 -15.062   0.421  1.00  0.00    -0.030 C 
HETATM   16  C   UNL     1      41.222 -16.221   0.173  1.00  0.00    -0.031 C 
HETATM   17  C   UNL     1      41.260 -17.403   1.089  1.00  0.00     0.027 C 
HETATM   18  C   UNL     1      42.145 -17.228   2.322  1.00  0.00     0.009 C 
ENDBRANCH   7  13
BRANCH  11  19
HETATM   19  N   UNL     1      39.448 -11.925   3.549  1.00  0.00    -0.282 NA
HETATM   20  H   UNL     1      38.471 -12.196   3.475  1.00  0.00     0.126 HD
HETATM   21  H   UNL     1      39.586 -11.065   4.073  1.00  0.00     0.126 HD
ENDBRANCH  11  19
BRANCH   1  22
HETATM   22  C   UNL     1      43.530 -16.676   6.061  1.00  0.00    -0.005 A 
HETATM   23  C   UNL     1      44.874 -16.939   6.355  1.00  0.00     0.014 A 
HETATM   24  C   UNL     1      45.328 -18.256   6.460  1.00  0.00     0.001 A 
HETATM   25  C   UNL     1      44.444 -19.316   6.272  1.00  0.00     0.000 A 
HETATM   26  C   UNL     1      43.107 -19.065   5.968  1.00  0.00     0.001 A 
HETATM   27  C   UNL     1      42.652 -17.749   5.858  1.00  0.00     0.014 A 
ENDBRANCH   1  22
TORSDOF 3
ENDMDL
MODEL 10
REMARK VINA RESULT:      -7.1      3.960      6.775
REMARK  3 active torsions:
REMARK  status: ('A' for Active; 'I' for Inactive)
REMARK    1  A    between atoms: C_4  and  C_5 
REMARK    2  A    between atoms: C_11  and  C_12 
REMARK    3  A    between atoms: C_21  and  N_22 
ROOT
HETATM    1  C   UNL     1      41.197 -15.369   2.743  1.00  0.00     0.098 A 
HETATM    2  N   UNL     1      41.160 -14.847   3.983  1.00  0.00    -0.172 NA
HETATM    3  N   UNL     1      40.241 -13.865   3.910  1.00  0.00    -0.256 N 
HETATM    4  H   UNL     1      40.035 -13.324   4.743  1.00  0.00     0.191 HD
HETATM    5  C   UNL     1      39.705 -13.736   2.672  1.00  0.00     0.175 A 
HETATM    6  C   UNL     1      40.313 -14.668   1.876  1.00  0.00     0.036 A 
HETATM    7  C   UNL     1      40.005 -14.739   0.403  1.00  0.00     0.076 C 
HETATM    8  C   UNL     1      38.791 -13.820   0.126  1.00  0.00     0.063 C 
HETATM    9  C   UNL     1      38.129 -13.957  -1.236  1.00  0.00     0.020 C 
HETATM   10  N   UNL     1      37.579 -14.072  -2.364  1.00  0.00    -0.096 N 
HETATM   11  C   UNL     1      38.267 -12.953   1.034  1.00  0.00     0.139 C 
HETATM   12  O   UNL     1      38.774 -12.852   2.340  1.00  0.00    -0.279 OA
ENDROOT
BRANCH   7  13
HETATM   13  C   UNL     1      41.318 -14.467  -0.423  1.00  0.00     0.003 C 
HETATM   14  C   UNL     1      41.498 -13.013  -0.898  1.00  0.00     0.032 C 
HETATM   15  C   UNL     1      41.040 -12.757  -2.299  1.00  0.00    -0.030 C 
HETATM   16  C   UNL     1      40.844 -13.726  -3.201  1.00  0.00    -0.031 C 
HETATM   17  C   UNL     1      41.059 -15.180  -2.927  1.00  0.00     0.027 C 
HETATM   18  C   UNL     1      41.611 -15.494  -1.537  1.00  0.00     0.009 C 
ENDBRANCH   7  13
BRANCH  11  19
HETATM   19  N   UNL     1      37.197 -12.116   0.816  1.00  0.00    -0.282 NA
HETATM   20  H   UNL     1      36.702 -12.242  -0.063  1.00  0.00     0.126 HD
HETATM   21  H   UNL     1      36.578 -12.065   1.621  1.00  0.00     0.126 HD
ENDBRANCH  11  19
BRANCH   1  22
HETATM   22  C   UNL     1      42.099 -16.470   2.416  1.00  0.00    -0.005 A 
HETATM   23  C   UNL     1      41.668 -17.800   2.502  1.00  0.00     0.014 A 
HETATM   24  C   UNL     1      42.521 -18.843   2.135  1.00  0.00     0.001 A 
HETATM   25  C   UNL     1      43.809 -18.565   1.682  1.00  0.00     0.000 A 
HETATM   26  C   UNL     1      44.252 -17.244   1.604  1.00  0.00     0.001 A 
HETATM   27  C   UNL     1      43.402 -16.201   1.975  1.00  0.00     0.014 A 
ENDBRANCH   1  22
TORSDOF 3
ENDMDL
