MODEL 1
REMARK VINA RESULT:      -7.9      0.000      0.000
REMARK  5 active torsions:
REMARK  status: ('A' for Active; 'I' for Inactive)
REMARK    1  A    between atoms: C_2  and  C_3 
REMARK    2  A    between atoms: C_3  and  N_4 
REMARK    3  A    between atoms: C_3  and  C_19 
REMARK       I    between atoms: N_4  and  C_5 
REMARK       I    between atoms: C_5  and  N_6 
REMARK    4  A    between atoms: N_6  and  C_7 
REMARK    5  A    between atoms: C_12  and  C_13 
ROOT
HETATM    1  N   UNL     1      41.248 -15.448   2.250  1.00  0.00    -0.334 N 
HETATM    2  C   UNL     1      41.961 -15.745   1.145  1.00  0.00     0.321 C 
HETATM    3  N   UNL     1      42.878 -16.741   1.175  1.00  0.00    -0.306 N 
HETATM    4  O   UNL     1      41.833 -15.124   0.090  1.00  0.00    -0.247 OA
HETATM    5  H   UNL     1      41.213 -16.141   2.978  1.00  0.00     0.165 HD
HETATM    6  H   UNL     1      43.337 -16.764   0.271  1.00  0.00     0.171 HD
ENDROOT
BRANCH   1   7
HETATM    7  C   UNL     1      40.155 -14.491   2.214  1.00  0.00     0.122 C 
BRANCH   7   8
HETATM    8  C   UNL     1      38.838 -15.148   1.748  1.00  0.00     0.026 C 
HETATM    9  C   UNL     1      37.909 -14.221   0.971  1.00  0.00     0.007 C 
ENDBRANCH   7   8
BRANCH   7  10
HETATM   10  C   UNL     1      40.023 -13.804   3.542  1.00  0.00     0.001 A 
HETATM   11  C   UNL     1      39.855 -12.467   3.857  1.00  0.00     0.122 A 
HETATM   12  N   UNL     1      39.796 -12.392   5.218  1.00  0.00    -0.285 N 
HETATM   13  C   UNL     1      39.621 -11.204   6.017  1.00  0.00     0.179 C 
HETATM   14  N   UNL     1      39.924 -13.583   5.825  1.00  0.00    -0.185 NA
HETATM   15  C   UNL     1      40.050 -14.439   4.810  1.00  0.00     0.149 A 
ENDBRANCH   7  10
ENDBRANCH   1   7
BRANCH   3  16
HETATM   16  C   UNL     1      43.325 -17.699   2.110  1.00  0.00     0.075 A 
HETATM   17  C   UNL     1      43.737 -17.475   3.426  1.00  0.00     0.143 A 
HETATM   18  F   UNL     1      43.732 -16.256   3.977  1.00  0.00    -0.204 F 
HETATM   19  C   UNL     1      44.151 -18.525   4.249  1.00  0.00     0.045 A 
HETATM   20  C   UNL     1      44.150 -19.835   3.774  1.00  0.00     0.019 A 
HETATM   21  C   UNL     1      43.739 -20.101   2.465  1.00  0.00     0.050 A 
HETATM   22  C   UNL     1      43.327 -19.028   1.649  1.00  0.00     0.049 A 
BRANCH  21  23
HETATM   23  C   UNL     1      43.694 -21.514   1.933  1.00  0.00     0.417 C 
HETATM   24  F   UNL     1      44.531 -21.723   0.880  1.00  0.00    -0.166 F 
HETATM   25  F   UNL     1      44.041 -22.430   2.878  1.00  0.00    -0.166 F 
HETATM   26  F   UNL     1      42.453 -21.873   1.502  1.00  0.00    -0.166 F 
ENDBRANCH  21  23
ENDBRANCH   3  16
TORSDOF 5
ENDMDL
MODEL 2
REMARK VINA RESULT:      -7.7      2.695      4.024
REMARK  5 active torsions:
REMARK  status: ('A' for Active; 'I' for Inactive)
REMARK    1  A    between atoms: C_2  and  C_3 
REMARK    2  A    between atoms: C_3  and  N_4 
REMARK    3  A    between atoms: C_3  and  C_19 
REMARK       I    between atoms: N_4  and  C_5 
REMARK       I    between atoms: C_5  and  N_6 
REMARK    4  A    between atoms: N_6  and  C_7 
REMARK    5  A    between atoms: C_12  and  C_13 
ROOT
HETATM    1  N   UNL     1      42.839 -17.485   2.774  1.00  0.00    -0.334 N 
HETATM    2  C   UNL     1      43.583 -18.132   1.855  1.00  0.00     0.321 C 
HETATM    3  N   UNL     1      44.227 -19.277   2.185  1.00  0.00    -0.306 N 
HETATM    4  O   UNL     1      43.727 -17.711   0.707  1.00  0.00    -0.247 OA
HETATM    5  H   UNL     1      42.558 -18.002   3.589  1.00  0.00     0.165 HD
HETATM    6  H   UNL     1      44.767 -19.569   1.378  1.00  0.00     0.171 HD
ENDROOT
BRANCH   1   7
HETATM    7  C   UNL     1      42.017 -16.341   2.418  1.00  0.00     0.122 C 
BRANCH   7   8
HETATM    8  C   UNL     1      40.514 -16.695   2.428  1.00  0.00     0.026 C 
HETATM    9  C   UNL     1      39.612 -15.644   1.791  1.00  0.00     0.007 C 
ENDBRANCH   7   8
BRANCH   7  10
HETATM   10  C   UNL     1      42.344 -15.172   3.299  1.00  0.00     0.001 A 
HETATM   11  C   UNL     1      41.689 -14.661   4.406  1.00  0.00     0.122 A 
HETATM   12  N   UNL     1      42.415 -13.585   4.827  1.00  0.00    -0.285 N 
HETATM   13  C   UNL     1      42.131 -12.731   5.955  1.00  0.00     0.179 C 
HETATM   14  N   UNL     1      43.497 -13.342   4.071  1.00  0.00    -0.185 NA
HETATM   15  C   UNL     1      43.460 -14.308   3.152  1.00  0.00     0.149 A 
ENDBRANCH   7  10
ENDBRANCH   1   7
BRANCH   3  16
HETATM   16  C   UNL     1      44.323 -20.111   3.318  1.00  0.00     0.075 A 
HETATM   17  C   UNL     1      44.619 -21.476   3.347  1.00  0.00     0.143 A 
HETATM   18  F   UNL     1      44.879 -22.173   2.235  1.00  0.00    -0.204 F 
HETATM   19  C   UNL     1      44.690 -22.182   4.551  1.00  0.00     0.045 A 
HETATM   20  C   UNL     1      44.475 -21.530   5.763  1.00  0.00     0.019 A 
HETATM   21  C   UNL     1      44.182 -20.163   5.777  1.00  0.00     0.050 A 
HETATM   22  C   UNL     1      44.113 -19.469   4.553  1.00  0.00     0.049 A 
BRANCH  21  23
HETATM   23  C   UNL     1      43.979 -19.422   7.078  1.00  0.00     0.417 C 
HETATM   24  F   UNL     1      42.924 -18.562   7.051  1.00  0.00    -0.166 F 
HETATM   25  F   UNL     1      43.750 -20.267   8.120  1.00  0.00    -0.166 F 
HETATM   26  F   UNL     1      45.062 -18.677   7.430  1.00  0.00    -0.166 F 
ENDBRANCH  21  23
ENDBRANCH   3  16
TORSDOF 5
ENDMDL
MODEL 3
REMARK VINA RESULT:      -7.6      3.532      4.857
REMARK  5 active torsions:
REMARK  status: ('A' for Active; 'I' for Inactive)
REMARK    1  A    between atoms: C_2  and  C_3 
REMARK    2  A    between atoms: C_3  and  N_4 
REMARK    3  A    between atoms: C_3  and  C_19 
REMARK       I    between atoms: N_4  and  C_5 
REMARK       I    between atoms: C_5  and  N_6 
REMARK    4  A    between atoms: N_6  and  C_7 
REMARK    5  A    between atoms: C_12  and  C_13 
ROOT
HETATM    1  N   UNL     1      43.606 -16.059   6.057  1.00  0.00    -0.334 N 
HETATM    2  C   UNL     1      43.539 -17.117   6.890  1.00  0.00     0.321 C 
HETATM    3  N   UNL     1      43.678 -18.374   6.406  1.00  0.00    -0.306 N 
HETATM    4  O   UNL     1      43.331 -16.994   8.098  1.00  0.00    -0.247 OA
HETATM    5  H   UNL     1      44.026 -16.207   5.156  1.00  0.00     0.165 HD
HETATM    6  H   UNL     1      43.541 -19.018   7.178  1.00  0.00     0.171 HD
ENDROOT
BRANCH   1   7
HETATM    7  C   UNL     1      43.612 -14.695   6.560  1.00  0.00     0.122 C 
BRANCH   7   8
HETATM    8  C   UNL     1      45.031 -14.246   6.969  1.00  0.00     0.026 C 
HETATM    9  C   UNL     1      45.068 -13.149   8.027  1.00  0.00     0.007 C 
ENDBRANCH   7   8
BRANCH   7  10
HETATM   10  C   UNL     1      42.976 -13.772   5.563  1.00  0.00     0.001 A 
HETATM   11  C   UNL     1      42.071 -12.739   5.733  1.00  0.00     0.122 A 
HETATM   12  N   UNL     1      41.820 -12.231   4.492  1.00  0.00    -0.285 N 
HETATM   13  C   UNL     1      40.943 -11.134   4.162  1.00  0.00     0.179 C 
HETATM   14  N   UNL     1      42.487 -12.861   3.512  1.00  0.00    -0.185 NA
HETATM   15  C   UNL     1      43.195 -13.787   4.161  1.00  0.00     0.149 A 
ENDBRANCH   7  10
ENDBRANCH   1   7
BRANCH   3  16
HETATM   16  C   UNL     1      43.948 -18.969   5.156  1.00  0.00     0.075 A 
HETATM   17  C   UNL     1      44.452 -20.250   4.914  1.00  0.00     0.143 A 
HETATM   18  F   UNL     1      44.728 -21.106   5.905  1.00  0.00    -0.204 F 
HETATM   19  C   UNL     1      44.665 -20.716   3.614  1.00  0.00     0.045 A 
HETATM   20  C   UNL     1      44.367 -19.910   2.519  1.00  0.00     0.019 A 
HETATM   21  C   UNL     1      43.856 -18.623   2.718  1.00  0.00     0.050 A 
HETATM   22  C   UNL     1      43.649 -18.170   4.037  1.00  0.00     0.049 A 
BRANCH  21  23
HETATM   23  C   UNL     1      43.490 -17.739   1.549  1.00  0.00     0.417 C 
HETATM   24  F   UNL     1      43.874 -18.247   0.346  1.00  0.00    -0.166 F 
HETATM   25  F   UNL     1      42.148 -17.534   1.461  1.00  0.00    -0.166 F 
HETATM   26  F   UNL     1      44.054 -16.503   1.631  1.00  0.00    -0.166 F 
ENDBRANCH  21  23
ENDBRANCH   3  16
TORSDOF 5
ENDMDL
MODEL 4
REMARK VINA RESULT:      -7.5      1.875      2.495
REMARK  5 active torsions:
REMARK  status: ('A' for Active; 'I' for Inactive)
REMARK    1  A    between atoms: C_2  and  C_3 
REMARK    2  A    between atoms: C_3  and  N_4 
REMARK    3  A    between atoms: C_3  and  C_19 
REMARK       I    between atoms: N_4  and  C_5 
REMARK       I    between atoms: C_5  and  N_6 
REMARK    4  A    between atoms: N_6  and  C_7 
REMARK    5  A    between atoms: C_12  and  C_13 
ROOT
HETATM    1  N   UNL     1      41.373 -15.304   2.622  1.00  0.00    -0.334 N 
HETATM    2  C   UNL     1      42.660 -14.911   2.543  1.00  0.00     0.321 C 
HETATM    3  N   UNL     1      43.655 -15.829   2.587  1.00  0.00    -0.306 N 
HETATM    4  O   UNL     1      42.985 -13.727   2.452  1.00  0.00    -0.247 OA
HETATM    5  H   UNL     1      41.173 -16.272   2.437  1.00  0.00     0.165 HD
HETATM    6  H   UNL     1      44.537 -15.328   2.569  1.00  0.00     0.171 HD
ENDROOT
BRANCH   1   7
HETATM    7  C   UNL     1      40.279 -14.367   2.428  1.00  0.00     0.122 C 
BRANCH   7   8
HETATM    8  C   UNL     1      39.020 -15.068   1.876  1.00  0.00     0.026 C 
HETATM    9  C   UNL     1      38.057 -14.148   1.135  1.00  0.00     0.007 C 
ENDBRANCH   7   8
BRANCH   7  10
HETATM   10  C   UNL     1      40.013 -13.611   3.697  1.00  0.00     0.001 A 
HETATM   11  C   UNL     1      39.904 -12.252   3.935  1.00  0.00     0.122 A 
HETATM   12  N   UNL     1      39.659 -12.108   5.269  1.00  0.00    -0.285 N 
HETATM   13  C   UNL     1      39.462 -10.874   5.990  1.00  0.00     0.179 C 
HETATM   14  N   UNL     1      39.609 -13.274   5.932  1.00  0.00    -0.185 NA
HETATM   15  C   UNL     1      39.813 -14.185   4.979  1.00  0.00     0.149 A 
ENDBRANCH   7  10
ENDBRANCH   1   7
BRANCH   3  16
HETATM   16  C   UNL     1      43.754 -17.235   2.652  1.00  0.00     0.075 A 
HETATM   17  C   UNL     1      43.694 -18.142   1.591  1.00  0.00     0.143 A 
HETATM   18  F   UNL     1      43.548 -17.745   0.321  1.00  0.00    -0.204 F 
HETATM   19  C   UNL     1      43.815 -19.518   1.800  1.00  0.00     0.045 A 
HETATM   20  C   UNL     1      44.010 -20.021   3.084  1.00  0.00     0.019 A 
HETATM   21  C   UNL     1      44.081 -19.146   4.173  1.00  0.00     0.050 A 
HETATM   22  C   UNL     1      43.956 -17.761   3.942  1.00  0.00     0.049 A 
BRANCH  21  23
HETATM   23  C   UNL     1      44.328 -19.659   5.572  1.00  0.00     0.417 C 
HETATM   24  F   UNL     1      44.861 -20.911   5.602  1.00  0.00    -0.166 F 
HETATM   25  F   UNL     1      45.189 -18.866   6.265  1.00  0.00    -0.166 F 
HETATM   26  F   UNL     1      43.190 -19.718   6.316  1.00  0.00    -0.166 F 
ENDBRANCH  21  23
ENDBRANCH   3  16
TORSDOF 5
ENDMDL
MODEL 5
REMARK VINA RESULT:      -7.4      3.116      4.958
REMARK  5 active torsions:
REMARK  status: ('A' for Active; 'I' for Inactive)
REMARK    1  A    between atoms: C_2  and  C_3 
REMARK    2  A    between atoms: C_3  and  N_4 
REMARK    3  A    between atoms: C_3  and  C_19 
REMARK       I    between atoms: N_4  and  C_5 
REMARK       I    between atoms: C_5  and  N_6 
REMARK    4  A    between atoms: N_6  and  C_7 
REMARK    5  A    between atoms: C_12  and  C_13 
ROOT
HETATM    1  N   UNL     1      40.624 -14.723   0.853  1.00  0.00    -0.334 N 
HETATM    2  C   UNL     1      39.589 -15.134   1.614  1.00  0.00     0.321 C 
HETATM    3  N   UNL     1      39.800 -15.979   2.651  1.00  0.00    -0.306 N 
HETATM    4  O   UNL     1      38.429 -14.785   1.393  1.00  0.00    -0.247 OA
HETATM    5  H   UNL     1      41.548 -14.831   1.234  1.00  0.00     0.165 HD
HETATM    6  H   UNL     1      38.897 -16.205   3.053  1.00  0.00     0.171 HD
ENDROOT
BRANCH   1   7
HETATM    7  C   UNL     1      40.458 -13.704  -0.169  1.00  0.00     0.122 C 
BRANCH   7   8
HETATM    8  C   UNL     1      41.594 -12.659  -0.120  1.00  0.00     0.026 C 
HETATM    9  C   UNL     1      41.894 -12.116   1.272  1.00  0.00     0.007 C 
ENDBRANCH   7   8
BRANCH   7  10
HETATM   10  C   UNL     1      40.313 -14.342  -1.519  1.00  0.00     0.001 A 
HETATM   11  C   UNL     1      39.199 -14.840  -2.171  1.00  0.00     0.122 A 
HETATM   12  N   UNL     1      39.630 -15.311  -3.376  1.00  0.00    -0.285 N 
HETATM   13  C   UNL     1      38.828 -15.919  -4.410  1.00  0.00     0.179 C 
HETATM   14  N   UNL     1      40.952 -15.170  -3.564  1.00  0.00    -0.185 NA
HETATM   15  C   UNL     1      41.364 -14.574  -2.444  1.00  0.00     0.149 A 
ENDBRANCH   7  10
ENDBRANCH   1   7
BRANCH   3  16
HETATM   16  C   UNL     1      40.912 -16.589   3.268  1.00  0.00     0.075 A 
HETATM   17  C   UNL     1      41.352 -16.422   4.584  1.00  0.00     0.143 A 
HETATM   18  F   UNL     1      40.713 -15.634   5.455  1.00  0.00    -0.204 F 
HETATM   19  C   UNL     1      42.473 -17.101   5.069  1.00  0.00     0.045 A 
HETATM   20  C   UNL     1      43.178 -17.975   4.246  1.00  0.00     0.019 A 
HETATM   21  C   UNL     1      42.767 -18.174   2.925  1.00  0.00     0.050 A 
HETATM   22  C   UNL     1      41.635 -17.480   2.453  1.00  0.00     0.049 A 
BRANCH  21  23
HETATM   23  C   UNL     1      43.490 -19.143   2.020  1.00  0.00     0.417 C 
HETATM   24  F   UNL     1      44.674 -19.580   2.531  1.00  0.00    -0.166 F 
HETATM   25  F   UNL     1      42.753 -20.259   1.768  1.00  0.00    -0.166 F 
HETATM   26  F   UNL     1      43.783 -18.605   0.803  1.00  0.00    -0.166 F 
ENDBRANCH  21  23
ENDBRANCH   3  16
TORSDOF 5
ENDMDL
MODEL 6
REMARK VINA RESULT:      -7.3      2.716      5.056
REMARK  5 active torsions:
REMARK  status: ('A' for Active; 'I' for Inactive)
REMARK    1  A    between atoms: C_2  and  C_3 
REMARK    2  A    between atoms: C_3  and  N_4 
REMARK    3  A    between atoms: C_3  and  C_19 
REMARK       I    between atoms: N_4  and  C_5 
REMARK       I    between atoms: C_5  and  N_6 
REMARK    4  A    between atoms: N_6  and  C_7 
REMARK    5  A    between atoms: C_12  and  C_13 
ROOT
HETATM    1  N   UNL     1      41.807 -15.382   2.216  1.00  0.00    -0.334 N 
HETATM    2  C   UNL     1      40.850 -16.295   2.481  1.00  0.00     0.321 C 
HETATM    3  N   UNL     1      41.185 -17.501   2.999  1.00  0.00    -0.306 N 
HETATM    4  O   UNL     1      39.659 -16.088   2.249  1.00  0.00    -0.247 OA
HETATM    5  H   UNL     1      42.701 -15.509   2.659  1.00  0.00     0.165 HD
HETATM    6  H   UNL     1      40.336 -18.051   3.070  1.00  0.00     0.171 HD
ENDROOT
BRANCH   1   7
HETATM    7  C   UNL     1      41.473 -14.030   1.803  1.00  0.00     0.122 C 
BRANCH   7   8
HETATM    8  C   UNL     1      42.340 -12.982   2.534  1.00  0.00     0.026 C 
HETATM    9  C   UNL     1      43.239 -13.553   3.625  1.00  0.00     0.007 C 
ENDBRANCH   7   8
BRANCH   7  10
HETATM   10  C   UNL     1      41.553 -13.909   0.310  1.00  0.00     0.001 A 
HETATM   11  C   UNL     1      41.242 -14.814  -0.690  1.00  0.00     0.122 A 
HETATM   12  N   UNL     1      41.503 -14.191  -1.875  1.00  0.00    -0.285 N 
HETATM   13  C   UNL     1      41.327 -14.734  -3.201  1.00  0.00     0.179 C 
HETATM   14  N   UNL     1      41.975 -12.943  -1.731  1.00  0.00    -0.185 NA
HETATM   15  C   UNL     1      41.996 -12.768  -0.409  1.00  0.00     0.149 A 
ENDBRANCH   7  10
ENDBRANCH   1   7
BRANCH   3  16
HETATM   16  C   UNL     1      42.365 -18.139   3.436  1.00  0.00     0.075 A 
HETATM   17  C   UNL     1      43.063 -19.166   2.796  1.00  0.00     0.143 A 
HETATM   18  F   UNL     1      42.673 -19.668   1.618  1.00  0.00    -0.204 F 
HETATM   19  C   UNL     1      44.231 -19.705   3.342  1.00  0.00     0.045 A 
HETATM   20  C   UNL     1      44.736 -19.217   4.545  1.00  0.00     0.019 A 
HETATM   21  C   UNL     1      44.069 -18.186   5.214  1.00  0.00     0.050 A 
HETATM   22  C   UNL     1      42.892 -17.657   4.648  1.00  0.00     0.049 A 
BRANCH  21  23
HETATM   23  C   UNL     1      44.612 -17.613   6.502  1.00  0.00     0.417 C 
HETATM   24  F   UNL     1      45.884 -18.010   6.777  1.00  0.00    -0.166 F 
HETATM   25  F   UNL     1      44.636 -16.252   6.488  1.00  0.00    -0.166 F 
HETATM   26  F   UNL     1      43.867 -17.964   7.587  1.00  0.00    -0.166 F 
ENDBRANCH  21  23
ENDBRANCH   3  16
TORSDOF 5
ENDMDL
MODEL 7
REMARK VINA RESULT:      -7.3      2.972      4.175
REMARK  5 active torsions:
REMARK  status: ('A' for Active; 'I' for Inactive)
REMARK    1  A    between atoms: C_2  and  C_3 
REMARK    2  A    between atoms: C_3  and  N_4 
REMARK    3  A    between atoms: C_3  and  C_19 
REMARK       I    between atoms: N_4  and  C_5 
REMARK       I    between atoms: C_5  and  N_6 
REMARK    4  A    between atoms: N_6  and  C_7 
REMARK    5  A    between atoms: C_12  and  C_13 
ROOT
HETATM    1  N   UNL     1      42.564 -15.331   5.558  1.00  0.00    -0.334 N 
HETATM    2  C   UNL     1      41.529 -16.129   5.891  1.00  0.00     0.321 C 
HETATM    3  N   UNL     1      41.656 -17.475   5.814  1.00  0.00    -0.306 N 
HETATM    4  O   UNL     1      40.439 -15.681   6.248  1.00  0.00    -0.247 OA
HETATM    5  H   UNL     1      43.478 -15.748   5.528  1.00  0.00     0.165 HD
HETATM    6  H   UNL     1      40.758 -17.883   6.051  1.00  0.00     0.171 HD
ENDROOT
BRANCH   1   7
HETATM    7  C   UNL     1      42.514 -13.894   5.770  1.00  0.00     0.122 C 
BRANCH   7   8
HETATM    8  C   UNL     1      43.812 -13.369   6.421  1.00  0.00     0.026 C 
HETATM    9  C   UNL     1      44.738 -14.458   6.951  1.00  0.00     0.007 C 
ENDBRANCH   7   8
BRANCH   7  10
HETATM   10  C   UNL     1      42.184 -13.192   4.486  1.00  0.00     0.001 A 
HETATM   11  C   UNL     1      42.557 -13.466   3.181  1.00  0.00     0.122 A 
HETATM   12  N   UNL     1      41.979 -12.508   2.401  1.00  0.00    -0.285 N 
HETATM   13  C   UNL     1      42.074 -12.380   0.967  1.00  0.00     0.179 C 
HETATM   14  N   UNL     1      41.259 -11.614   3.097  1.00  0.00    -0.185 NA
HETATM   15  C   UNL     1      41.374 -12.033   4.357  1.00  0.00     0.149 A 
ENDBRANCH   7  10
ENDBRANCH   1   7
BRANCH   3  16
HETATM   16  C   UNL     1      42.679 -18.394   5.500  1.00  0.00     0.075 A 
HETATM   17  C   UNL     1      43.572 -19.008   6.382  1.00  0.00     0.143 A 
HETATM   18  F   UNL     1      43.533 -18.791   7.702  1.00  0.00    -0.204 F 
HETATM   19  C   UNL     1      44.538 -19.911   5.931  1.00  0.00     0.045 A 
HETATM   20  C   UNL     1      44.627 -20.230   4.578  1.00  0.00     0.019 A 
HETATM   21  C   UNL     1      43.748 -19.641   3.664  1.00  0.00     0.050 A 
HETATM   22  C   UNL     1      42.781 -18.731   4.137  1.00  0.00     0.049 A 
BRANCH  21  23
HETATM   23  C   UNL     1      43.797 -19.995   2.196  1.00  0.00     0.417 C 
HETATM   24  F   UNL     1      42.625 -20.502   1.723  1.00  0.00    -0.166 F 
HETATM   25  F   UNL     1      44.083 -18.916   1.417  1.00  0.00    -0.166 F 
HETATM   26  F   UNL     1      44.749 -20.926   1.913  1.00  0.00    -0.166 F 
ENDBRANCH  21  23
ENDBRANCH   3  16
TORSDOF 5
ENDMDL
MODEL 8
REMARK VINA RESULT:      -7.3      2.582      4.061
REMARK  5 active torsions:
REMARK  status: ('A' for Active; 'I' for Inactive)
REMARK    1  A    between atoms: C_2  and  C_3 
REMARK    2  A    between atoms: C_3  and  N_4 
REMARK    3  A    between atoms: C_3  and  C_19 
REMARK       I    between atoms: N_4  and  C_5 
REMARK       I    between atoms: C_5  and  N_6 
REMARK    4  A    between atoms: N_6  and  C_7 
REMARK    5  A    between atoms: C_12  and  C_13 
ROOT
HETATM    1  N   UNL     1      41.714 -15.294   3.930  1.00  0.00    -0.334 N 
HETATM    2  C   UNL     1      41.022 -15.726   5.004  1.00  0.00     0.321 C 
HETATM    3  N   UNL     1      41.402 -16.856   5.648  1.00  0.00    -0.306 N 
HETATM    4  O   UNL     1      40.024 -15.141   5.425  1.00  0.00    -0.247 OA
HETATM    5  H   UNL     1      42.642 -15.658   3.801  1.00  0.00     0.165 HD
HETATM    6  H   UNL     1      40.726 -17.033   6.383  1.00  0.00     0.171 HD
ENDROOT
BRANCH   1   7
HETATM    7  C   UNL     1      41.428 -14.012   3.308  1.00  0.00     0.122 C 
BRANCH   7   8
HETATM    8  C   UNL     1      42.335 -12.894   3.867  1.00  0.00     0.026 C 
HETATM    9  C   UNL     1      41.626 -11.905   4.785  1.00  0.00     0.007 C 
ENDBRANCH   7   8
BRANCH   7  10
HETATM   10  C   UNL     1      41.507 -14.131   1.815  1.00  0.00     0.001 A 
HETATM   11  C   UNL     1      41.846 -13.201   0.848  1.00  0.00     0.122 A 
HETATM   12  N   UNL     1      41.752 -13.836  -0.355  1.00  0.00    -0.285 N 
HETATM   13  C   UNL     1      42.017 -13.275  -1.658  1.00  0.00     0.179 C 
HETATM   14  N   UNL     1      41.363 -15.117  -0.255  1.00  0.00    -0.185 NA
HETATM   15  C   UNL     1      41.225 -15.299   1.059  1.00  0.00     0.149 A 
ENDBRANCH   7  10
ENDBRANCH   1   7
BRANCH   3  16
HETATM   16  C   UNL     1      42.451 -17.794   5.545  1.00  0.00     0.075 A 
HETATM   17  C   UNL     1      43.208 -18.339   6.585  1.00  0.00     0.143 A 
HETATM   18  F   UNL     1      42.990 -18.026   7.867  1.00  0.00    -0.204 F 
HETATM   19  C   UNL     1      44.220 -19.271   6.338  1.00  0.00     0.045 A 
HETATM   20  C   UNL     1      44.491 -19.689   5.037  1.00  0.00     0.019 A 
HETATM   21  C   UNL     1      43.751 -19.171   3.970  1.00  0.00     0.050 A 
HETATM   22  C   UNL     1      42.736 -18.230   4.238  1.00  0.00     0.049 A 
BRANCH  21  23
HETATM   23  C   UNL     1      43.998 -19.631   2.553  1.00  0.00     0.417 C 
HETATM   24  F   UNL     1      44.333 -18.620   1.706  1.00  0.00    -0.166 F 
HETATM   25  F   UNL     1      45.009 -20.538   2.476  1.00  0.00    -0.166 F 
HETATM   26  F   UNL     1      42.910 -20.236   2.001  1.00  0.00    -0.166 F 
ENDBRANCH  21  23
ENDBRANCH   3  16
TORSDOF 5
ENDMDL
MODEL 9
REMARK VINA RESULT:      -7.2      2.914      4.616
REMARK  5 active torsions:
REMARK  status: ('A' for Active; 'I' for Inactive)
REMARK    1  A    between atoms: C_2  and  C_3 
REMARK    2  A    between atoms: C_3  and  N_4 
REMARK    3  A    between atoms: C_3  and  C_19 
REMARK       I    between atoms: N_4  and  C_5 
REMARK       I    between atoms: C_5  and  N_6 
REMARK    4  A    between atoms: N_6  and  C_7 
REMARK    5  A    between atoms: C_12  and  C_13 
ROOT
HETATM    1  N   UNL     1      41.016 -15.016   1.811  1.00  0.00    -0.334 N 
HETATM    2  C   UNL     1      40.550 -15.400   3.017  1.00  0.00     0.321 C 
HETATM    3  N   UNL     1      40.976 -16.559   3.572  1.00  0.00    -0.306 N 
HETATM    4  O   UNL     1      39.718 -14.743   3.643  1.00  0.00    -0.247 OA
HETATM    5  H   UNL     1      41.861 -15.449   1.483  1.00  0.00     0.165 HD
HETATM    6  H   UNL     1      40.470 -16.689   4.441  1.00  0.00     0.171 HD
ENDROOT
BRANCH   1   7
HETATM    7  C   UNL     1      40.696 -13.712   1.254  1.00  0.00     0.122 C 
BRANCH   7   8
HETATM    8  C   UNL     1      41.950 -12.816   1.149  1.00  0.00     0.026 C 
HETATM    9  C   UNL     1      41.669 -11.385   0.706  1.00  0.00     0.007 C 
ENDBRANCH   7   8
BRANCH   7  10
HETATM   10  C   UNL     1      39.983 -13.868  -0.056  1.00  0.00     0.001 A 
HETATM   11  C   UNL     1      40.437 -14.304  -1.289  1.00  0.00     0.122 A 
HETATM   12  N   UNL     1      39.372 -14.248  -2.139  1.00  0.00    -0.285 N 
HETATM   13  C   UNL     1      39.353 -14.611  -3.535  1.00  0.00     0.179 C 
HETATM   14  N   UNL     1      38.249 -13.795  -1.560  1.00  0.00    -0.185 NA
HETATM   15  C   UNL     1      38.615 -13.575  -0.297  1.00  0.00     0.149 A 
ENDBRANCH   7  10
ENDBRANCH   1   7
BRANCH   3  16
HETATM   16  C   UNL     1      41.902 -17.574   3.249  1.00  0.00     0.075 A 
HETATM   17  C   UNL     1      42.075 -18.205   2.015  1.00  0.00     0.143 A 
HETATM   18  F   UNL     1      41.351 -17.879   0.939  1.00  0.00    -0.204 F 
HETATM   19  C   UNL     1      43.043 -19.197   1.834  1.00  0.00     0.045 A 
HETATM   20  C   UNL     1      43.873 -19.573   2.887  1.00  0.00     0.019 A 
HETATM   21  C   UNL     1      43.734 -18.961   4.137  1.00  0.00     0.050 A 
HETATM   22  C   UNL     1      42.751 -17.964   4.301  1.00  0.00     0.049 A 
BRANCH  21  23
HETATM   23  C   UNL     1      44.643 -19.323   5.288  1.00  0.00     0.417 C 
HETATM   24  F   UNL     1      43.974 -19.791   6.378  1.00  0.00    -0.166 F 
HETATM   25  F   UNL     1      45.538 -20.290   4.951  1.00  0.00    -0.166 F 
HETATM   26  F   UNL     1      45.380 -18.266   5.726  1.00  0.00    -0.166 F 
ENDBRANCH  21  23
ENDBRANCH   3  16
TORSDOF 5
ENDMDL
MODEL 10
REMARK VINA RESULT:      -7.1      2.549      3.903
REMARK  5 active torsions:
REMARK  status: ('A' for Active; 'I' for Inactive)
REMARK    1  A    between atoms: C_2  and  C_3 
REMARK    2  A    between atoms: C_3  and  N_4 
REMARK    3  A    between atoms: C_3  and  C_19 
REMARK       I    between atoms: N_4  and  C_5 
REMARK       I    between atoms: C_5  and  N_6 
REMARK    4  A    between atoms: N_6  and  C_7 
REMARK    5  A    between atoms: C_12  and  C_13 
ROOT
HETATM    1  N   UNL     1      41.135 -14.488   2.493  1.00  0.00    -0.334 N 
HETATM    2  C   UNL     1      40.269 -15.521   2.499  1.00  0.00     0.321 C 
HETATM    3  N   UNL     1      40.634 -16.712   3.031  1.00  0.00    -0.306 N 
HETATM    4  O   UNL     1      39.141 -15.440   2.012  1.00  0.00    -0.247 OA
HETATM    5  H   UNL     1      41.919 -14.538   3.120  1.00  0.00     0.165 HD
HETATM    6  H   UNL     1      39.869 -17.361   2.887  1.00  0.00     0.171 HD
ENDROOT
BRANCH   1   7
HETATM    7  C   UNL     1      40.729 -13.159   2.068  1.00  0.00     0.122 C 
BRANCH   7   8
HETATM    8  C   UNL     1      40.906 -12.122   3.198  1.00  0.00     0.026 C 
HETATM    9  C   UNL     1      41.956 -12.494   4.240  1.00  0.00     0.007 C 
ENDBRANCH   7   8
BRANCH   7  10
HETATM   10  C   UNL     1      41.450 -12.774   0.810  1.00  0.00     0.001 A 
HETATM   11  C   UNL     1      41.595 -13.444  -0.392  1.00  0.00     0.122 A 
HETATM   12  N   UNL     1      42.350 -12.642  -1.197  1.00  0.00    -0.285 N 
HETATM   13  C   UNL     1      42.761 -12.912  -2.554  1.00  0.00     0.179 C 
HETATM   14  N   UNL     1      42.723 -11.495  -0.610  1.00  0.00    -0.185 NA
HETATM   15  C   UNL     1      42.170 -11.569   0.601  1.00  0.00     0.149 A 
ENDBRANCH   7  10
ENDBRANCH   1   7
BRANCH   3  16
HETATM   16  C   UNL     1      41.762 -17.236   3.698  1.00  0.00     0.075 A 
HETATM   17  C   UNL     1      42.319 -16.797   4.901  1.00  0.00     0.143 A 
HETATM   18  F   UNL     1      41.798 -15.783   5.600  1.00  0.00    -0.204 F 
HETATM   19  C   UNL     1      43.441 -17.419   5.455  1.00  0.00     0.045 A 
HETATM   20  C   UNL     1      44.028 -18.510   4.818  1.00  0.00     0.019 A 
HETATM   21  C   UNL     1      43.497 -18.984   3.614  1.00  0.00     0.050 A 
HETATM   22  C   UNL     1      42.366 -18.342   3.070  1.00  0.00     0.049 A 
BRANCH  21  23
HETATM   23  C   UNL     1      44.090 -20.186   2.919  1.00  0.00     0.417 C 
HETATM   24  F   UNL     1      45.282 -19.928   2.315  1.00  0.00    -0.166 F 
HETATM   25  F   UNL     1      44.317 -21.216   3.779  1.00  0.00    -0.166 F 
HETATM   26  F   UNL     1      43.277 -20.683   1.946  1.00  0.00    -0.166 F 
ENDBRANCH  21  23
ENDBRANCH   3  16
TORSDOF 5
ENDMDL
