MODEL 1
REMARK VINA RESULT:      -8.5      0.000      0.000
REMARK  5 active torsions:
REMARK  status: ('A' for Active; 'I' for Inactive)
REMARK    1  A    between atoms: O_2  and  C_3 
REMARK    2  A    between atoms: C_5  and  C_6 
REMARK       I    between atoms: C_6  and  N_7 
REMARK    3  A    between atoms: N_7  and  C_8 
REMARK    4  A    between atoms: C_8  and  C_9 
REMARK       I    between atoms: C_9  and  N_10 
REMARK    5  A    between atoms: N_10  and  N_11 
ROOT
HETATM    1  C   UNL     1      42.031 -12.987   5.297  1.00  0.00     0.255 C 
HETATM    2  N   UNL     1      41.693 -14.232   5.802  1.00  0.00    -0.245 N 
HETATM    3  O   UNL     1      42.630 -12.802   4.236  1.00  0.00    -0.270 OA
HETATM    4  H   UNL     1      41.077 -14.308   6.618  1.00  0.00     0.192 HD
ENDROOT
BRANCH   1   5
HETATM    5  C   UNL     1      41.477 -11.808   6.093  1.00  0.00     0.227 C 
BRANCH   5   6
HETATM    6  N   UNL     1      41.840 -11.790   7.502  1.00  0.00    -0.348 N 
HETATM    7  C   UNL     1      42.236 -10.632   8.131  1.00  0.00     0.252 C 
HETATM    8  O   UNL     1      42.151  -9.538   7.586  1.00  0.00    -0.268 OA
HETATM    9  H   UNL     1      41.723 -12.646   8.025  1.00  0.00     0.163 HD
BRANCH   7  10
HETATM   10  C   UNL     1      42.772 -10.759   9.517  1.00  0.00     0.034 A 
HETATM   11  C   UNL     1      41.861 -10.771  10.582  1.00  0.00     0.053 A 
HETATM   12  C   UNL     1      42.311 -10.807  11.905  1.00  0.00     0.069 A 
HETATM   13  C   UNL     1      43.680 -10.864  12.166  1.00  0.00     0.037 A 
HETATM   14  C   UNL     1      44.595 -10.855  11.110  1.00  0.00     0.004 A 
HETATM   15  C   UNL     1      44.146 -10.791   9.789  1.00  0.00     0.017 A 
BRANCH  12  16
HETATM   16  O   UNL     1      41.324 -10.792  12.853  1.00  0.00    -0.356 OA
HETATM   17  C   UNL     1      40.259 -11.717  12.669  1.00  0.00     0.210 C 
ENDBRANCH  12  16
ENDBRANCH   7  10
ENDBRANCH   5   6
ENDBRANCH   1   5
BRANCH   2  18
HETATM   18  N   UNL     1      42.051 -15.349   5.105  1.00  0.00    -0.166 NA
HETATM   19  C   UNL     1      42.991 -16.088   5.593  1.00  0.00     0.157 A 
HETATM   20  C   UNL     1      43.827 -15.887   6.858  1.00  0.00     0.277 A 
HETATM   21  C   UNL     1      43.464 -17.332   4.995  1.00  0.00     0.028 A 
HETATM   22  O   UNL     1      43.750 -14.934   7.603  1.00  0.00    -0.266 OA
HETATM   23  N   UNL     1      44.665 -16.981   6.924  1.00  0.00    -0.321 N 
HETATM   24  C   UNL     1      44.460 -17.825   5.836  1.00  0.00     0.048 A 
HETATM   25  H   UNL     1      45.338 -17.117   7.665  1.00  0.00     0.169 HD
HETATM   26  C   UNL     1      45.115 -19.004   5.549  1.00  0.00     0.032 A 
HETATM   27  C   UNL     1      44.738 -19.682   4.381  1.00  0.00     0.021 A 
HETATM   28  C   UNL     1      43.728 -19.168   3.540  1.00  0.00     0.012 A 
HETATM   29 BR   UNL     1      43.257 -20.118   1.973  1.00  0.00    -0.051 Br
HETATM   30  C   UNL     1      43.070 -17.976   3.840  1.00  0.00     0.035 A 
ENDBRANCH   2  18
TORSDOF 5
ENDMDL
MODEL 2
REMARK VINA RESULT:      -8.5      6.044      9.376
REMARK  5 active torsions:
REMARK  status: ('A' for Active; 'I' for Inactive)
REMARK    1  A    between atoms: O_2  and  C_3 
REMARK    2  A    between atoms: C_5  and  C_6 
REMARK       I    between atoms: C_6  and  N_7 
REMARK    3  A    between atoms: N_7  and  C_8 
REMARK    4  A    between atoms: C_8  and  C_9 
REMARK       I    between atoms: C_9  and  N_10 
REMARK    5  A    between atoms: N_10  and  N_11 
ROOT
HETATM    1  C   UNL     1      40.890 -14.625   3.204  1.00  0.00     0.255 C 
HETATM    2  N   UNL     1      42.005 -14.721   2.387  1.00  0.00    -0.245 N 
HETATM    3  O   UNL     1      39.956 -13.842   3.023  1.00  0.00    -0.270 OA
HETATM    4  H   UNL     1      42.676 -15.485   2.518  1.00  0.00     0.192 HD
ENDROOT
BRANCH   1   5
HETATM    5  C   UNL     1      40.817 -15.681   4.304  1.00  0.00     0.227 C 
BRANCH   5   6
HETATM    6  N   UNL     1      41.376 -16.978   3.951  1.00  0.00    -0.348 N 
HETATM    7  C   UNL     1      42.701 -17.278   4.169  1.00  0.00     0.252 C 
HETATM    8  O   UNL     1      43.435 -16.535   4.810  1.00  0.00    -0.268 OA
HETATM    9  H   UNL     1      40.739 -17.682   3.606  1.00  0.00     0.163 HD
BRANCH   7  10
HETATM   10  C   UNL     1      43.214 -18.556   3.595  1.00  0.00     0.034 A 
HETATM   11  C   UNL     1      44.072 -19.337   4.379  1.00  0.00     0.053 A 
HETATM   12  C   UNL     1      44.646 -20.503   3.864  1.00  0.00     0.069 A 
HETATM   13  C   UNL     1      44.334 -20.908   2.565  1.00  0.00     0.037 A 
HETATM   14  C   UNL     1      43.477 -20.136   1.777  1.00  0.00     0.004 A 
HETATM   15  C   UNL     1      42.927 -18.957   2.284  1.00  0.00     0.017 A 
BRANCH  12  16
HETATM   16  O   UNL     1      45.483 -21.165   4.721  1.00  0.00    -0.356 OA
HETATM   17  C   UNL     1      44.974 -22.359   5.302  1.00  0.00     0.210 C 
ENDBRANCH  12  16
ENDBRANCH   7  10
ENDBRANCH   5   6
ENDBRANCH   1   5
BRANCH   2  18
HETATM   18  N   UNL     1      42.111 -13.890   1.311  1.00  0.00    -0.166 NA
HETATM   19  C   UNL     1      41.777 -14.356   0.154  1.00  0.00     0.157 A 
HETATM   20  C   UNL     1      41.298 -15.759  -0.226  1.00  0.00     0.277 A 
HETATM   21  C   UNL     1      41.794 -13.590  -1.087  1.00  0.00     0.028 A 
HETATM   22  O   UNL     1      41.195 -16.693   0.538  1.00  0.00    -0.266 OA
HETATM   23  N   UNL     1      41.054 -15.710  -1.583  1.00  0.00    -0.321 N 
HETATM   24  C   UNL     1      41.346 -14.447  -2.091  1.00  0.00     0.048 A 
HETATM   25  H   UNL     1      40.723 -16.503  -2.114  1.00  0.00     0.169 HD
HETATM   26  C   UNL     1      41.242 -14.019  -3.398  1.00  0.00     0.032 A 
HETATM   27  C   UNL     1      41.605 -12.693  -3.672  1.00  0.00     0.021 A 
HETATM   28  C   UNL     1      42.056 -11.838  -2.643  1.00  0.00     0.012 A 
HETATM   29 BR   UNL     1      42.537 -10.057  -3.065  1.00  0.00    -0.051 Br
HETATM   30  C   UNL     1      42.156 -12.280  -1.325  1.00  0.00     0.035 A 
ENDBRANCH   2  18
TORSDOF 5
ENDMDL
MODEL 3
REMARK VINA RESULT:      -8.5      6.895     10.332
REMARK  5 active torsions:
REMARK  status: ('A' for Active; 'I' for Inactive)
REMARK    1  A    between atoms: O_2  and  C_3 
REMARK    2  A    between atoms: C_5  and  C_6 
REMARK       I    between atoms: C_6  and  N_7 
REMARK    3  A    between atoms: N_7  and  C_8 
REMARK    4  A    between atoms: C_8  and  C_9 
REMARK       I    between atoms: C_9  and  N_10 
REMARK    5  A    between atoms: N_10  and  N_11 
ROOT
HETATM    1  C   UNL     1      41.443 -15.599   1.034  1.00  0.00     0.255 C 
HETATM    2  N   UNL     1      41.751 -15.206  -0.258  1.00  0.00    -0.245 N 
HETATM    3  O   UNL     1      41.487 -14.859   2.019  1.00  0.00    -0.270 OA
HETATM    4  H   UNL     1      41.562 -15.834  -1.047  1.00  0.00     0.192 HD
ENDROOT
BRANCH   1   5
HETATM    5  C   UNL     1      40.893 -17.018   1.152  1.00  0.00     0.227 C 
BRANCH   5   6
HETATM    6  N   UNL     1      41.653 -17.904   2.021  1.00  0.00    -0.348 N 
HETATM    7  C   UNL     1      42.930 -18.308   1.704  1.00  0.00     0.252 C 
HETATM    8  O   UNL     1      43.547 -17.821   0.763  1.00  0.00    -0.268 OA
HETATM    9  H   UNL     1      41.239 -18.158   2.907  1.00  0.00     0.163 HD
BRANCH   7  10
HETATM   10  C   UNL     1      43.542 -19.365   2.559  1.00  0.00     0.034 A 
HETATM   11  C   UNL     1      43.828 -19.055   3.895  1.00  0.00     0.053 A 
HETATM   12  C   UNL     1      44.476 -19.979   4.720  1.00  0.00     0.069 A 
HETATM   13  C   UNL     1      44.810 -21.236   4.215  1.00  0.00     0.037 A 
HETATM   14  C   UNL     1      44.527 -21.555   2.884  1.00  0.00     0.004 A 
HETATM   15  C   UNL     1      43.905 -20.620   2.054  1.00  0.00     0.017 A 
BRANCH  12  16
HETATM   16  O   UNL     1      44.718 -19.547   5.995  1.00  0.00    -0.356 OA
HETATM   17  C   UNL     1      45.124 -18.191   6.136  1.00  0.00     0.210 C 
ENDBRANCH  12  16
ENDBRANCH   7  10
ENDBRANCH   5   6
ENDBRANCH   1   5
BRANCH   2  18
HETATM   18  N   UNL     1      42.150 -13.921  -0.482  1.00  0.00    -0.166 NA
HETATM   19  C   UNL     1      42.037 -13.455  -1.682  1.00  0.00     0.157 A 
HETATM   20  C   UNL     1      41.543 -14.151  -2.951  1.00  0.00     0.277 A 
HETATM   21  C   UNL     1      42.380 -12.095  -2.080  1.00  0.00     0.028 A 
HETATM   22  O   UNL     1      41.205 -15.313  -3.025  1.00  0.00    -0.266 OA
HETATM   23  N   UNL     1      41.600 -13.194  -3.943  1.00  0.00    -0.321 N 
HETATM   24  C   UNL     1      42.093 -11.993  -3.440  1.00  0.00     0.048 A 
HETATM   25  H   UNL     1      41.330 -13.373  -4.899  1.00  0.00     0.169 HD
HETATM   26  C   UNL     1      42.305 -10.816  -4.126  1.00  0.00     0.032 A 
HETATM   27  C   UNL     1      42.821  -9.732  -3.401  1.00  0.00     0.021 A 
HETATM   28  C   UNL     1      43.107  -9.852  -2.024  1.00  0.00     0.012 A 
HETATM   29 BR   UNL     1      43.805  -8.362  -1.091  1.00  0.00    -0.051 Br
HETATM   30  C   UNL     1      42.886 -11.046  -1.339  1.00  0.00     0.035 A 
ENDBRANCH   2  18
TORSDOF 5
ENDMDL
MODEL 4
REMARK VINA RESULT:      -8.5      5.654      9.466
REMARK  5 active torsions:
REMARK  status: ('A' for Active; 'I' for Inactive)
REMARK    1  A    between atoms: O_2  and  C_3 
REMARK    2  A    between atoms: C_5  and  C_6 
REMARK       I    between atoms: C_6  and  N_7 
REMARK    3  A    between atoms: N_7  and  C_8 
REMARK    4  A    between atoms: C_8  and  C_9 
REMARK       I    between atoms: C_9  and  N_10 
REMARK    5  A    between atoms: N_10  and  N_11 
ROOT
HETATM    1  C   UNL     1      42.910 -14.276   3.380  1.00  0.00     0.255 C 
HETATM    2  N   UNL     1      41.955 -14.339   2.378  1.00  0.00    -0.245 N 
HETATM    3  O   UNL     1      43.874 -13.508   3.381  1.00  0.00    -0.270 OA
HETATM    4  H   UNL     1      41.109 -14.903   2.506  1.00  0.00     0.192 HD
ENDROOT
BRANCH   1   5
HETATM    5  C   UNL     1      42.612 -15.151   4.595  1.00  0.00     0.227 C 
BRANCH   5   6
HETATM    6  N   UNL     1      43.336 -16.413   4.639  1.00  0.00    -0.348 N 
HETATM    7  C   UNL     1      42.800 -17.572   4.125  1.00  0.00     0.252 C 
HETATM    8  O   UNL     1      41.766 -17.570   3.467  1.00  0.00    -0.268 OA
HETATM    9  H   UNL     1      44.280 -16.397   4.996  1.00  0.00     0.163 HD
BRANCH   7  10
HETATM   10  C   UNL     1      43.536 -18.841   4.394  1.00  0.00     0.034 A 
HETATM   11  C   UNL     1      43.971 -19.600   3.300  1.00  0.00     0.053 A 
HETATM   12  C   UNL     1      44.595 -20.837   3.493  1.00  0.00     0.069 A 
HETATM   13  C   UNL     1      44.814 -21.302   4.790  1.00  0.00     0.037 A 
HETATM   14  C   UNL     1      44.385 -20.551   5.886  1.00  0.00     0.004 A 
HETATM   15  C   UNL     1      43.738 -19.329   5.691  1.00  0.00     0.017 A 
BRANCH  12  16
HETATM   16  O   UNL     1      44.952 -21.490   2.345  1.00  0.00    -0.356 OA
HETATM   17  C   UNL     1      43.890 -21.864   1.475  1.00  0.00     0.210 C 
ENDBRANCH  12  16
ENDBRANCH   7  10
ENDBRANCH   5   6
ENDBRANCH   1   5
BRANCH   2  18
HETATM   18  N   UNL     1      42.076 -13.516   1.297  1.00  0.00    -0.166 NA
HETATM   19  C   UNL     1      41.813 -14.008   0.132  1.00  0.00     0.157 A 
HETATM   20  C   UNL     1      41.409 -15.433  -0.251  1.00  0.00     0.277 A 
HETATM   21  C   UNL     1      41.855 -13.255  -1.116  1.00  0.00     0.028 A 
HETATM   22  O   UNL     1      41.309 -16.363   0.520  1.00  0.00    -0.266 OA
HETATM   23  N   UNL     1      41.224 -15.409  -1.618  1.00  0.00    -0.321 N 
HETATM   24  C   UNL     1      41.488 -14.140  -2.129  1.00  0.00     0.048 A 
HETATM   25  H   UNL     1      40.950 -16.221  -2.153  1.00  0.00     0.169 HD
HETATM   26  C   UNL     1      41.426 -13.732  -3.444  1.00  0.00     0.032 A 
HETATM   27  C   UNL     1      41.746 -12.395  -3.718  1.00  0.00     0.021 A 
HETATM   28  C   UNL     1      42.116 -11.511  -2.682  1.00  0.00     0.012 A 
HETATM   29 BR   UNL     1      42.543  -9.717  -3.104  1.00  0.00    -0.051 Br
HETATM   30  C   UNL     1      42.174 -11.934  -1.355  1.00  0.00     0.035 A 
ENDBRANCH   2  18
TORSDOF 5
ENDMDL
MODEL 5
REMARK VINA RESULT:      -8.4      5.112      8.665
REMARK  5 active torsions:
REMARK  status: ('A' for Active; 'I' for Inactive)
REMARK    1  A    between atoms: O_2  and  C_3 
REMARK    2  A    between atoms: C_5  and  C_6 
REMARK       I    between atoms: C_6  and  N_7 
REMARK    3  A    between atoms: N_7  and  C_8 
REMARK    4  A    between atoms: C_8  and  C_9 
REMARK       I    between atoms: C_9  and  N_10 
REMARK    5  A    between atoms: N_10  and  N_11 
ROOT
HETATM    1  C   UNL     1      43.072 -14.393   3.846  1.00  0.00     0.255 C 
HETATM    2  N   UNL     1      42.057 -14.674   2.946  1.00  0.00    -0.245 N 
HETATM    3  O   UNL     1      44.023 -13.644   3.617  1.00  0.00    -0.270 OA
HETATM    4  H   UNL     1      41.228 -15.195   3.249  1.00  0.00     0.192 HD
ENDROOT
BRANCH   1   5
HETATM    5  C   UNL     1      42.862 -14.979   5.240  1.00  0.00     0.227 C 
BRANCH   5   6
HETATM    6  N   UNL     1      42.989 -16.427   5.326  1.00  0.00    -0.348 N 
HETATM    7  C   UNL     1      43.955 -17.023   6.103  1.00  0.00     0.252 C 
HETATM    8  O   UNL     1      44.649 -16.378   6.881  1.00  0.00    -0.268 OA
HETATM    9  H   UNL     1      42.295 -16.985   4.849  1.00  0.00     0.163 HD
BRANCH   7  10
HETATM   10  C   UNL     1      44.123 -18.499   5.968  1.00  0.00     0.034 A 
HETATM   11  C   UNL     1      44.579 -19.006   4.745  1.00  0.00     0.053 A 
HETATM   12  C   UNL     1      44.679 -20.384   4.535  1.00  0.00     0.069 A 
HETATM   13  C   UNL     1      44.350 -21.263   5.568  1.00  0.00     0.037 A 
HETATM   14  C   UNL     1      43.896 -20.766   6.792  1.00  0.00     0.004 A 
HETATM   15  C   UNL     1      43.771 -19.390   6.991  1.00  0.00     0.017 A 
BRANCH  12  16
HETATM   16  O   UNL     1      45.115 -20.751   3.291  1.00  0.00    -0.356 OA
HETATM   17  C   UNL     1      44.371 -21.773   2.637  1.00  0.00     0.210 C 
ENDBRANCH  12  16
ENDBRANCH   7  10
ENDBRANCH   5   6
ENDBRANCH   1   5
BRANCH   2  18
HETATM   18  N   UNL     1      42.098 -14.108   1.705  1.00  0.00    -0.166 NA
HETATM   19  C   UNL     1      41.698 -14.821   0.704  1.00  0.00     0.157 A 
HETATM   20  C   UNL     1      41.202 -16.267   0.679  1.00  0.00     0.277 A 
HETATM   21  C   UNL     1      41.642 -14.355  -0.676  1.00  0.00     0.028 A 
HETATM   22  O   UNL     1      41.146 -17.004   1.640  1.00  0.00    -0.266 OA
HETATM   23  N   UNL     1      40.879 -16.524  -0.637  1.00  0.00    -0.321 N 
HETATM   24  C   UNL     1      41.139 -15.411  -1.434  1.00  0.00     0.048 A 
HETATM   25  H   UNL     1      40.520 -17.413  -0.955  1.00  0.00     0.169 HD
HETATM   26  C   UNL     1      40.958 -15.289  -2.795  1.00  0.00     0.032 A 
HETATM   27  C   UNL     1      41.301 -14.063  -3.382  1.00  0.00     0.021 A 
HETATM   28  C   UNL     1      41.809 -13.003  -2.601  1.00  0.00     0.012 A 
HETATM   29 BR   UNL     1      42.260 -11.369  -3.441  1.00  0.00    -0.051 Br
HETATM   30  C   UNL     1      41.986 -13.136  -1.225  1.00  0.00     0.035 A 
ENDBRANCH   2  18
TORSDOF 5
ENDMDL
MODEL 6
REMARK VINA RESULT:      -8.4      5.884      9.381
REMARK  5 active torsions:
REMARK  status: ('A' for Active; 'I' for Inactive)
REMARK    1  A    between atoms: O_2  and  C_3 
REMARK    2  A    between atoms: C_5  and  C_6 
REMARK       I    between atoms: C_6  and  N_7 
REMARK    3  A    between atoms: N_7  and  C_8 
REMARK    4  A    between atoms: C_8  and  C_9 
REMARK       I    between atoms: C_9  and  N_10 
REMARK    5  A    between atoms: N_10  and  N_11 
ROOT
HETATM    1  C   UNL     1      40.245 -14.856   3.603  1.00  0.00     0.255 C 
HETATM    2  N   UNL     1      39.814 -15.547   2.482  1.00  0.00    -0.245 N 
HETATM    3  O   UNL     1      40.184 -13.633   3.736  1.00  0.00    -0.270 OA
HETATM    4  H   UNL     1      39.768 -16.572   2.493  1.00  0.00     0.192 HD
ENDROOT
BRANCH   1   5
HETATM    5  C   UNL     1      40.689 -15.744   4.763  1.00  0.00     0.227 C 
BRANCH   5   6
HETATM    6  N   UNL     1      41.297 -17.007   4.375  1.00  0.00    -0.348 N 
HETATM    7  C   UNL     1      42.658 -17.136   4.214  1.00  0.00     0.252 C 
HETATM    8  O   UNL     1      43.434 -16.246   4.542  1.00  0.00    -0.268 OA
HETATM    9  H   UNL     1      40.691 -17.812   4.297  1.00  0.00     0.163 HD
BRANCH   7  10
HETATM   10  C   UNL     1      43.157 -18.413   3.629  1.00  0.00     0.034 A 
HETATM   11  C   UNL     1      44.040 -19.191   4.388  1.00  0.00     0.053 A 
HETATM   12  C   UNL     1      44.602 -20.356   3.858  1.00  0.00     0.069 A 
HETATM   13  C   UNL     1      44.253 -20.764   2.570  1.00  0.00     0.037 A 
HETATM   14  C   UNL     1      43.372 -19.996   1.806  1.00  0.00     0.004 A 
HETATM   15  C   UNL     1      42.833 -18.818   2.327  1.00  0.00     0.017 A 
BRANCH  12  16
HETATM   16  O   UNL     1      45.466 -21.013   4.691  1.00  0.00    -0.356 OA
HETATM   17  C   UNL     1      45.035 -22.280   5.176  1.00  0.00     0.210 C 
ENDBRANCH  12  16
ENDBRANCH   7  10
ENDBRANCH   5   6
ENDBRANCH   1   5
BRANCH   2  18
HETATM   18  N   UNL     1      39.299 -14.848   1.430  1.00  0.00    -0.166 NA
HETATM   19  C   UNL     1      40.039 -14.703   0.381  1.00  0.00     0.157 A 
HETATM   20  C   UNL     1      41.472 -15.176   0.132  1.00  0.00     0.277 A 
HETATM   21  C   UNL     1      39.626 -14.019  -0.838  1.00  0.00     0.028 A 
HETATM   22  O   UNL     1      42.169 -15.752   0.940  1.00  0.00    -0.266 OA
HETATM   23  N   UNL     1      41.771 -14.784  -1.156  1.00  0.00    -0.321 N 
HETATM   24  C   UNL     1      40.698 -14.103  -1.725  1.00  0.00     0.048 A 
HETATM   25  H   UNL     1      42.662 -14.965  -1.596  1.00  0.00     0.169 HD
HETATM   26  C   UNL     1      40.624 -13.550  -2.986  1.00  0.00     0.032 A 
HETATM   27  C   UNL     1      39.431 -12.901  -3.335  1.00  0.00     0.021 A 
HETATM   28  C   UNL     1      38.355 -12.825  -2.425  1.00  0.00     0.012 A 
HETATM   29 BR   UNL     1      36.767 -11.936  -2.943  1.00  0.00    -0.051 Br
HETATM   30  C   UNL     1      38.439 -13.390  -1.154  1.00  0.00     0.035 A 
ENDBRANCH   2  18
TORSDOF 5
ENDMDL
MODEL 7
REMARK VINA RESULT:      -8.2      6.784     10.079
REMARK  5 active torsions:
REMARK  status: ('A' for Active; 'I' for Inactive)
REMARK    1  A    between atoms: O_2  and  C_3 
REMARK    2  A    between atoms: C_5  and  C_6 
REMARK       I    between atoms: C_6  and  N_7 
REMARK    3  A    between atoms: N_7  and  C_8 
REMARK    4  A    between atoms: C_8  and  C_9 
REMARK       I    between atoms: C_9  and  N_10 
REMARK    5  A    between atoms: N_10  and  N_11 
ROOT
HETATM    1  C   UNL     1      41.085 -15.135   1.719  1.00  0.00     0.255 C 
HETATM    2  N   UNL     1      41.263 -14.940   0.359  1.00  0.00    -0.245 N 
HETATM    3  O   UNL     1      41.270 -14.273   2.580  1.00  0.00    -0.270 OA
HETATM    4  H   UNL     1      40.959 -15.656  -0.309  1.00  0.00     0.192 HD
ENDROOT
BRANCH   1   5
HETATM    5  C   UNL     1      40.489 -16.491   2.093  1.00  0.00     0.227 C 
BRANCH   5   6
HETATM    6  N   UNL     1      41.453 -17.484   2.542  1.00  0.00    -0.348 N 
HETATM    7  C   UNL     1      41.855 -17.558   3.856  1.00  0.00     0.252 C 
HETATM    8  O   UNL     1      41.310 -16.903   4.737  1.00  0.00    -0.268 OA
HETATM    9  H   UNL     1      41.765 -18.170   1.869  1.00  0.00     0.163 HD
BRANCH   7  10
HETATM   10  C   UNL     1      42.986 -18.479   4.171  1.00  0.00     0.034 A 
HETATM   11  C   UNL     1      43.508 -19.266   3.138  1.00  0.00     0.053 A 
HETATM   12  C   UNL     1      44.513 -20.204   3.393  1.00  0.00     0.069 A 
HETATM   13  C   UNL     1      45.022 -20.333   4.686  1.00  0.00     0.037 A 
HETATM   14  C   UNL     1      44.508 -19.551   5.723  1.00  0.00     0.004 A 
HETATM   15  C   UNL     1      43.485 -18.634   5.471  1.00  0.00     0.017 A 
BRANCH  12  16
HETATM   16  O   UNL     1      44.922 -20.925   2.304  1.00  0.00    -0.356 OA
HETATM   17  C   UNL     1      43.982 -21.849   1.769  1.00  0.00     0.210 C 
ENDBRANCH  12  16
ENDBRANCH   7  10
ENDBRANCH   5   6
ENDBRANCH   1   5
BRANCH   2  18
HETATM   18  N   UNL     1      41.690 -13.723  -0.084  1.00  0.00    -0.166 NA
HETATM   19  C   UNL     1      41.718 -13.522  -1.360  1.00  0.00     0.157 A 
HETATM   20  C   UNL     1      41.370 -14.479  -2.501  1.00  0.00     0.277 A 
HETATM   21  C   UNL     1      42.109 -12.268  -1.994  1.00  0.00     0.028 A 
HETATM   22  O   UNL     1      41.038 -15.637  -2.366  1.00  0.00    -0.266 OA
HETATM   23  N   UNL     1      41.545 -13.750  -3.660  1.00  0.00    -0.321 N 
HETATM   24  C   UNL     1      41.982 -12.460  -3.369  1.00  0.00     0.048 A 
HETATM   25  H   UNL     1      41.386 -14.131  -4.581  1.00  0.00     0.169 HD
HETATM   26  C   UNL     1      42.276 -11.450  -4.260  1.00  0.00     0.032 A 
HETATM   27  C   UNL     1      42.710 -10.227  -3.726  1.00  0.00     0.021 A 
HETATM   28  C   UNL     1      42.834 -10.050  -2.332  1.00  0.00     0.012 A 
HETATM   29 BR   UNL     1      43.426  -8.383  -1.661  1.00  0.00    -0.051 Br
HETATM   30  C   UNL     1      42.531 -11.077  -1.439  1.00  0.00     0.035 A 
ENDBRANCH   2  18
TORSDOF 5
ENDMDL
MODEL 8
REMARK VINA RESULT:      -7.9      1.811      2.817
REMARK  5 active torsions:
REMARK  status: ('A' for Active; 'I' for Inactive)
REMARK    1  A    between atoms: O_2  and  C_3 
REMARK    2  A    between atoms: C_5  and  C_6 
REMARK       I    between atoms: C_6  and  N_7 
REMARK    3  A    between atoms: N_7  and  C_8 
REMARK    4  A    between atoms: C_8  and  C_9 
REMARK       I    between atoms: C_9  and  N_10 
REMARK    5  A    between atoms: N_10  and  N_11 
ROOT
HETATM    1  C   UNL     1      42.196 -13.589   3.170  1.00  0.00     0.255 C 
HETATM    2  N   UNL     1      41.573 -14.714   3.688  1.00  0.00    -0.245 N 
HETATM    3  O   UNL     1      43.182 -13.614   2.431  1.00  0.00    -0.270 OA
HETATM    4  H   UNL     1      40.679 -14.627   4.182  1.00  0.00     0.192 HD
ENDROOT
BRANCH   1   5
HETATM    5  C   UNL     1      41.478 -12.275   3.466  1.00  0.00     0.227 C 
BRANCH   5   6
HETATM    6  N   UNL     1      41.581 -11.812   4.841  1.00  0.00    -0.348 N 
HETATM    7  C   UNL     1      40.611 -12.097   5.775  1.00  0.00     0.252 C 
HETATM    8  O   UNL     1      39.699 -12.881   5.540  1.00  0.00    -0.268 OA
HETATM    9  H   UNL     1      42.429 -11.333   5.111  1.00  0.00     0.163 HD
BRANCH   7  10
HETATM   10  C   UNL     1      40.716 -11.414   7.097  1.00  0.00     0.034 A 
HETATM   11  C   UNL     1      41.992 -11.097   7.580  1.00  0.00     0.053 A 
HETATM   12  C   UNL     1      42.155 -10.530   8.848  1.00  0.00     0.069 A 
HETATM   13  C   UNL     1      41.030 -10.249   9.625  1.00  0.00     0.037 A 
HETATM   14  C   UNL     1      39.754 -10.561   9.150  1.00  0.00     0.004 A 
HETATM   15  C   UNL     1      39.595 -11.152   7.895  1.00  0.00     0.017 A 
BRANCH  12  16
HETATM   16  O   UNL     1      43.451 -10.288   9.212  1.00  0.00    -0.356 OA
HETATM   17  C   UNL     1      44.220 -11.422   9.598  1.00  0.00     0.210 C 
ENDBRANCH  12  16
ENDBRANCH   7  10
ENDBRANCH   5   6
ENDBRANCH   1   5
BRANCH   2  18
HETATM   18  N   UNL     1      42.078 -15.946   3.390  1.00  0.00    -0.166 NA
HETATM   19  C   UNL     1      42.846 -16.509   4.262  1.00  0.00     0.157 A 
HETATM   20  C   UNL     1      43.333 -15.981   5.613  1.00  0.00     0.277 A 
HETATM   21  C   UNL     1      43.433 -17.836   4.117  1.00  0.00     0.028 A 
HETATM   22  O   UNL     1      43.085 -14.884   6.065  1.00  0.00    -0.266 OA
HETATM   23  N   UNL     1      44.105 -16.992   6.148  1.00  0.00    -0.321 N 
HETATM   24  C   UNL     1      44.171 -18.075   5.275  1.00  0.00     0.048 A 
HETATM   25  H   UNL     1      44.562 -16.922   7.046  1.00  0.00     0.169 HD
HETATM   26  C   UNL     1      44.854 -19.259   5.453  1.00  0.00     0.032 A 
HETATM   27  C   UNL     1      44.778 -20.207   4.422  1.00  0.00     0.021 A 
HETATM   28  C   UNL     1      44.027 -19.949   3.255  1.00  0.00     0.012 A 
HETATM   29 BR   UNL     1      43.958 -21.259   1.892  1.00  0.00    -0.051 Br
HETATM   30  C   UNL     1      43.338 -18.750   3.087  1.00  0.00     0.035 A 
ENDBRANCH   2  18
TORSDOF 5
ENDMDL
MODEL 9
REMARK VINA RESULT:      -7.9      5.110      9.482
REMARK  5 active torsions:
REMARK  status: ('A' for Active; 'I' for Inactive)
REMARK    1  A    between atoms: O_2  and  C_3 
REMARK    2  A    between atoms: C_5  and  C_6 
REMARK       I    between atoms: C_6  and  N_7 
REMARK    3  A    between atoms: N_7  and  C_8 
REMARK    4  A    between atoms: C_8  and  C_9 
REMARK       I    between atoms: C_9  and  N_10 
REMARK    5  A    between atoms: N_10  and  N_11 
ROOT
HETATM    1  C   UNL     1      42.221 -14.518   5.021  1.00  0.00     0.255 C 
HETATM    2  N   UNL     1      42.176 -14.257   3.661  1.00  0.00    -0.245 N 
HETATM    3  O   UNL     1      41.471 -14.010   5.857  1.00  0.00    -0.270 OA
HETATM    4  H   UNL     1      42.736 -14.816   3.010  1.00  0.00     0.192 HD
ENDROOT
BRANCH   1   5
HETATM    5  C   UNL     1      43.201 -15.618   5.423  1.00  0.00     0.227 C 
BRANCH   5   6
HETATM    6  N   UNL     1      43.107 -16.842   4.642  1.00  0.00    -0.348 N 
HETATM    7  C   UNL     1      43.953 -17.906   4.861  1.00  0.00     0.252 C 
HETATM    8  O   UNL     1      44.715 -17.939   5.820  1.00  0.00    -0.268 OA
HETATM    9  H   UNL     1      42.350 -16.915   3.978  1.00  0.00     0.163 HD
BRANCH   7  10
HETATM   10  C   UNL     1      43.901 -19.030   3.882  1.00  0.00     0.034 A 
HETATM   11  C   UNL     1      44.446 -20.264   4.259  1.00  0.00     0.053 A 
HETATM   12  C   UNL     1      44.498 -21.328   3.354  1.00  0.00     0.069 A 
HETATM   13  C   UNL     1      43.971 -21.167   2.072  1.00  0.00     0.037 A 
HETATM   14  C   UNL     1      43.424 -19.940   1.687  1.00  0.00     0.004 A 
HETATM   15  C   UNL     1      43.398 -18.870   2.584  1.00  0.00     0.017 A 
BRANCH  12  16
HETATM   16  O   UNL     1      45.073 -22.471   3.836  1.00  0.00    -0.356 OA
HETATM   17  C   UNL     1      45.195 -22.568   5.250  1.00  0.00     0.210 C 
ENDBRANCH  12  16
ENDBRANCH   7  10
ENDBRANCH   5   6
ENDBRANCH   1   5
BRANCH   2  18
HETATM   18  N   UNL     1      41.258 -13.366   3.189  1.00  0.00    -0.166 NA
HETATM   19  C   UNL     1      40.268 -13.828   2.499  1.00  0.00     0.157 A 
HETATM   20  C   UNL     1      39.968 -15.267   2.077  1.00  0.00     0.277 A 
HETATM   21  C   UNL     1      39.184 -13.018   1.957  1.00  0.00     0.028 A 
HETATM   22  O   UNL     1      40.672 -16.226   2.309  1.00  0.00    -0.266 OA
HETATM   23  N   UNL     1      38.778 -15.206   1.380  1.00  0.00    -0.321 N 
HETATM   24  C   UNL     1      38.319 -13.894   1.303  1.00  0.00     0.048 A 
HETATM   25  H   UNL     1      38.331 -16.018   0.978  1.00  0.00     0.169 HD
HETATM   26  C   UNL     1      37.178 -13.436   0.679  1.00  0.00     0.032 A 
HETATM   27  C   UNL     1      36.927 -12.057   0.729  1.00  0.00     0.021 A 
HETATM   28  C   UNL     1      37.813 -11.183   1.394  1.00  0.00     0.012 A 
HETATM   29 BR   UNL     1      37.432  -9.330   1.431  1.00  0.00    -0.051 Br
HETATM   30  C   UNL     1      38.963 -11.657   2.024  1.00  0.00     0.035 A 
ENDBRANCH   2  18
TORSDOF 5
ENDMDL
MODEL 10
REMARK VINA RESULT:      -7.7      5.880      8.670
REMARK  5 active torsions:
REMARK  status: ('A' for Active; 'I' for Inactive)
REMARK    1  A    between atoms: O_2  and  C_3 
REMARK    2  A    between atoms: C_5  and  C_6 
REMARK       I    between atoms: C_6  and  N_7 
REMARK    3  A    between atoms: N_7  and  C_8 
REMARK    4  A    between atoms: C_8  and  C_9 
REMARK       I    between atoms: C_9  and  N_10 
REMARK    5  A    between atoms: N_10  and  N_11 
ROOT
HETATM    1  C   UNL     1      40.130 -14.390   3.252  1.00  0.00     0.255 C 
HETATM    2  N   UNL     1      40.186 -15.744   2.961  1.00  0.00    -0.245 N 
HETATM    3  O   UNL     1      40.704 -13.854   4.201  1.00  0.00    -0.270 OA
HETATM    4  H   UNL     1      39.798 -16.099   2.081  1.00  0.00     0.192 HD
ENDROOT
BRANCH   1   5
HETATM    5  C   UNL     1      39.401 -13.547   2.208  1.00  0.00     0.227 C 
BRANCH   5   6
HETATM    6  N   UNL     1      40.029 -13.513   0.895  1.00  0.00    -0.348 N 
HETATM    7  C   UNL     1      41.046 -12.633   0.604  1.00  0.00     0.252 C 
HETATM    8  O   UNL     1      41.579 -11.950   1.471  1.00  0.00    -0.268 OA
HETATM    9  H   UNL     1      39.742 -14.209   0.222  1.00  0.00     0.163 HD
BRANCH   7  10
HETATM   10  C   UNL     1      41.484 -12.545  -0.820  1.00  0.00     0.034 A 
HETATM   11  C   UNL     1      41.222 -13.633  -1.662  1.00  0.00     0.053 A 
HETATM   12  C   UNL     1      41.681 -13.639  -2.983  1.00  0.00     0.069 A 
HETATM   13  C   UNL     1      42.378 -12.535  -3.475  1.00  0.00     0.037 A 
HETATM   14  C   UNL     1      42.642 -11.445  -2.642  1.00  0.00     0.004 A 
HETATM   15  C   UNL     1      42.207 -11.452  -1.315  1.00  0.00     0.017 A 
BRANCH  12  16
HETATM   16  O   UNL     1      41.380 -14.768  -3.695  1.00  0.00    -0.356 OA
HETATM   17  C   UNL     1      40.085 -15.320  -3.486  1.00  0.00     0.210 C 
ENDBRANCH  12  16
ENDBRANCH   7  10
ENDBRANCH   5   6
ENDBRANCH   1   5
BRANCH   2  18
HETATM   18  N   UNL     1      40.905 -16.566   3.777  1.00  0.00    -0.166 NA
HETATM   19  C   UNL     1      41.763 -17.361   3.228  1.00  0.00     0.157 A 
HETATM   20  C   UNL     1      42.088 -17.565   1.747  1.00  0.00     0.277 A 
HETATM   21  C   UNL     1      42.636 -18.273   3.958  1.00  0.00     0.028 A 
HETATM   22  O   UNL     1      41.532 -17.007   0.826  1.00  0.00    -0.266 OA
HETATM   23  N   UNL     1      43.095 -18.508   1.717  1.00  0.00    -0.321 N 
HETATM   24  C   UNL     1      43.415 -18.928   3.006  1.00  0.00     0.048 A 
HETATM   25  H   UNL     1      43.513 -18.841   0.861  1.00  0.00     0.169 HD
HETATM   26  C   UNL     1      44.356 -19.865   3.377  1.00  0.00     0.032 A 
HETATM   27  C   UNL     1      44.494 -20.129   4.747  1.00  0.00     0.021 A 
HETATM   28  C   UNL     1      43.698 -19.458   5.698  1.00  0.00     0.012 A 
HETATM   29 BR   UNL     1      43.920 -19.852   7.535  1.00  0.00    -0.051 Br
HETATM   30  C   UNL     1      42.751 -18.510   5.313  1.00  0.00     0.035 A 
ENDBRANCH   2  18
TORSDOF 5
ENDMDL
