MODEL 1
REMARK VINA RESULT:      -7.5      0.000      0.000
REMARK  14 active torsions:
REMARK  status: ('A' for Active; 'I' for Inactive)
REMARK    1  A    between atoms: C_2  and  O_3 
REMARK    2  A    between atoms: O_3  and  C_4 
REMARK    3  A    between atoms: C_5  and  O_6 
REMARK    4  A    between atoms: C_9  and  C_10 
REMARK    5  A    between atoms: N_11  and  C_12 
REMARK    6  A    between atoms: C_12  and  C_13 
REMARK    7  A    between atoms: C_13  and  C_14 
REMARK    8  A    between atoms: C_14  and  N_15 
REMARK    9  A    between atoms: C_21  and  O_22 
REMARK   10  A    between atoms: C_23  and  C_24 
REMARK   11  A    between atoms: C_24  and  C_25 
REMARK   12  A    between atoms: C_29  and  O_30 
REMARK   13  A    between atoms: O_30  and  C_31 
REMARK   14  A    between atoms: C_31  and  C_32 
ROOT
HETATM    1  C   UNL     1      41.247 -12.538   3.306  1.00  0.00     0.161 A 
HETATM    2  N   UNL     1      39.884 -12.099   3.598  1.00  0.00    -0.333 N 
HETATM    3  C   UNL     1      39.482 -12.503   4.849  1.00  0.00     0.278 A 
HETATM    4  O   UNL     1      38.431 -12.225   5.407  1.00  0.00    -0.265 OA
HETATM    5  C   UNL     1      40.545 -13.356   5.410  1.00  0.00     0.146 A 
HETATM    6  C   UNL     1      41.557 -13.353   4.533  1.00  0.00     0.059 A 
ENDROOT
BRANCH   6   7
HETATM    7  C   UNL     1      42.873 -14.012   4.661  1.00  0.00     0.193 C 
HETATM    8  O   UNL     1      43.841 -13.406   5.107  1.00  0.00    -0.287 OA
BRANCH   7   9
HETATM    9  C   UNL     1      43.038 -15.422   4.271  1.00  0.00     0.015 A 
HETATM   10  C   UNL     1      43.541 -15.753   3.010  1.00  0.00     0.025 A 
HETATM   11  C   UNL     1      43.644 -17.098   2.628  1.00  0.00    -0.028 A 
HETATM   12  C   UNL     1      44.166 -17.452   1.262  1.00  0.00     0.051 C 
HETATM   13  C   UNL     1      43.210 -18.104   3.512  1.00  0.00     0.074 A 
HETATM   14  C   UNL     1      42.714 -17.760   4.775  1.00  0.00     0.038 A 
HETATM   15  C   UNL     1      42.612 -16.419   5.149  1.00  0.00     0.018 A 
BRANCH  13  16
HETATM   16  O   UNL     1      43.324 -19.388   3.053  1.00  0.00    -0.350 OA
BRANCH  16  17
HETATM   17  C   UNL     1      44.249 -20.240   3.732  1.00  0.00     0.179 C 
BRANCH  17  18
HETATM   18  C   UNL     1      44.586 -21.447   2.842  1.00  0.00     0.002 C 
HETATM   19  C   UNL     1      44.663 -22.732   3.670  1.00  0.00     0.011 C 
HETATM   20  C   UNL     1      43.571 -21.613   1.712  1.00  0.00     0.011 C 
ENDBRANCH  17  18
ENDBRANCH  16  17
ENDBRANCH  13  16
ENDBRANCH   7   9
ENDBRANCH   6   7
BRANCH   1  21
HETATM   21  C   UNL     1      41.319 -13.231   1.958  1.00  0.00    -0.028 A 
HETATM   22  C   UNL     1      40.680 -14.478   1.806  1.00  0.00     0.012 A 
HETATM   23  C   UNL     1      40.730 -15.164   0.595  1.00  0.00     0.040 A 
HETATM   24  C   UNL     1      41.405 -14.600  -0.476  1.00  0.00     0.099 A 
HETATM   25  C   UNL     1      42.030 -13.355  -0.367  1.00  0.00     0.102 A 
HETATM   26  C   UNL     1      42.012 -12.686   0.859  1.00  0.00     0.049 A 
BRANCH  24  27
HETATM   27  O   UNL     1      41.425 -15.287  -1.657  1.00  0.00    -0.358 OA
HETATM   28  H   UNL     1      41.001 -14.696  -2.310  1.00  0.00     0.218 HD
ENDBRANCH  24  27
BRANCH  25  29
HETATM   29  O   UNL     1      42.642 -12.908  -1.509  1.00  0.00    -0.349 OA
BRANCH  29  30
HETATM   30  C   UNL     1      42.587 -11.499  -1.737  1.00  0.00     0.171 C 
HETATM   31  C   UNL     1      41.306 -11.200  -2.495  1.00  0.00     0.034 C 
ENDBRANCH  29  30
ENDBRANCH  25  29
ENDBRANCH   1  21
BRANCH   5  32
HETATM   32  O   UNL     1      40.450 -13.978   6.616  1.00  0.00    -0.355 OA
HETATM   33  H   UNL     1      39.739 -13.539   7.121  1.00  0.00     0.218 HD
ENDBRANCH   5  32
BRANCH   2  34
HETATM   34  C   UNL     1      39.197 -11.081   2.823  1.00  0.00     0.129 C 
BRANCH  34  35
HETATM   35  C   UNL     1      38.055 -11.618   1.955  1.00  0.00     0.048 C 
BRANCH  35  36
HETATM   36  C   UNL     1      38.327 -11.787   0.458  1.00  0.00     0.235 C 
BRANCH  36  37
HETATM   37  N   UNL     1      37.537 -12.893  -0.199  1.00  0.00    -0.079 N 
HETATM   38  H   UNL     1      36.588 -12.507  -0.377  1.00  0.00     0.278 HD
HETATM   39  C   UNL     1      38.108 -13.403  -1.486  1.00  0.00     0.269 C 
HETATM   40  C   UNL     1      37.278 -14.026   0.760  1.00  0.00     0.269 C 
ENDBRANCH  36  37
ENDBRANCH  35  36
ENDBRANCH  34  35
ENDBRANCH   2  34
TORSDOF 14
ENDMDL
MODEL 2
REMARK VINA RESULT:      -7.3      2.787      4.775
REMARK  14 active torsions:
REMARK  status: ('A' for Active; 'I' for Inactive)
REMARK    1  A    between atoms: C_2  and  O_3 
REMARK    2  A    between atoms: O_3  and  C_4 
REMARK    3  A    between atoms: C_5  and  O_6 
REMARK    4  A    between atoms: C_9  and  C_10 
REMARK    5  A    between atoms: N_11  and  C_12 
REMARK    6  A    between atoms: C_12  and  C_13 
REMARK    7  A    between atoms: C_13  and  C_14 
REMARK    8  A    between atoms: C_14  and  N_15 
REMARK    9  A    between atoms: C_21  and  O_22 
REMARK   10  A    between atoms: C_23  and  C_24 
REMARK   11  A    between atoms: C_24  and  C_25 
REMARK   12  A    between atoms: C_29  and  O_30 
REMARK   13  A    between atoms: O_30  and  C_31 
REMARK   14  A    between atoms: C_31  and  C_32 
ROOT
HETATM    1  C   UNL     1      41.642 -14.286  -1.067  1.00  0.00     0.161 A 
HETATM    2  N   UNL     1      42.246 -12.977  -1.314  1.00  0.00    -0.333 N 
HETATM    3  C   UNL     1      42.356 -12.246  -0.154  1.00  0.00     0.278 A 
HETATM    4  O   UNL     1      42.887 -11.154  -0.024  1.00  0.00    -0.265 OA
HETATM    5  C   UNL     1      41.700 -13.009   0.923  1.00  0.00     0.146 A 
HETATM    6  C   UNL     1      41.314 -14.179   0.399  1.00  0.00     0.059 A 
ENDROOT
BRANCH   6   7
HETATM    7  C   UNL     1      40.663 -15.313   1.087  1.00  0.00     0.193 C 
HETATM    8  O   UNL     1      39.441 -15.405   1.135  1.00  0.00    -0.287 OA
BRANCH   7   9
HETATM    9  C   UNL     1      41.478 -16.369   1.712  1.00  0.00     0.015 A 
HETATM   10  C   UNL     1      41.244 -16.752   3.035  1.00  0.00     0.025 A 
HETATM   11  C   UNL     1      42.060 -17.721   3.638  1.00  0.00    -0.028 A 
HETATM   12  C   UNL     1      41.821 -18.117   5.069  1.00  0.00     0.051 C 
HETATM   13  C   UNL     1      43.128 -18.277   2.909  1.00  0.00     0.074 A 
HETATM   14  C   UNL     1      43.347 -17.889   1.582  1.00  0.00     0.038 A 
HETATM   15  C   UNL     1      42.533 -16.923   0.988  1.00  0.00     0.018 A 
BRANCH  13  16
HETATM   16  O   UNL     1      43.889 -19.197   3.578  1.00  0.00    -0.350 OA
BRANCH  16  17
HETATM   17  C   UNL     1      44.687 -20.078   2.785  1.00  0.00     0.179 C 
BRANCH  17  18
HETATM   18  C   UNL     1      44.024 -21.463   2.727  1.00  0.00     0.002 C 
HETATM   19  C   UNL     1      44.090 -22.043   1.312  1.00  0.00     0.011 C 
HETATM   20  C   UNL     1      44.662 -22.434   3.720  1.00  0.00     0.011 C 
ENDBRANCH  17  18
ENDBRANCH  16  17
ENDBRANCH  13  16
ENDBRANCH   7   9
ENDBRANCH   6   7
BRANCH   1  21
HETATM   21  C   UNL     1      40.500 -14.549  -2.031  1.00  0.00    -0.028 A 
HETATM   22  C   UNL     1      40.569 -15.684  -2.864  1.00  0.00     0.012 A 
HETATM   23  C   UNL     1      39.556 -15.961  -3.778  1.00  0.00     0.040 A 
HETATM   24  C   UNL     1      38.460 -15.116  -3.852  1.00  0.00     0.099 A 
HETATM   25  C   UNL     1      38.348 -13.996  -3.025  1.00  0.00     0.102 A 
HETATM   26  C   UNL     1      39.383 -13.696  -2.137  1.00  0.00     0.049 A 
BRANCH  24  27
HETATM   27  O   UNL     1      37.472 -15.421  -4.747  1.00  0.00    -0.358 OA
HETATM   28  H   UNL     1      37.282 -14.587  -5.219  1.00  0.00     0.218 HD
ENDBRANCH  24  27
BRANCH  25  29
HETATM   29  O   UNL     1      37.204 -13.260  -3.192  1.00  0.00    -0.349 OA
BRANCH  29  30
HETATM   30  C   UNL     1      37.362 -11.996  -3.839  1.00  0.00     0.171 C 
HETATM   31  C   UNL     1      36.144 -11.766  -4.716  1.00  0.00     0.034 C 
ENDBRANCH  29  30
ENDBRANCH  25  29
ENDBRANCH   1  21
BRANCH   5  32
HETATM   32  O   UNL     1      41.570 -12.549   2.196  1.00  0.00    -0.355 OA
HETATM   33  H   UNL     1      40.641 -12.683   2.466  1.00  0.00     0.218 HD
ENDBRANCH   5  32
BRANCH   2  34
HETATM   34  C   UNL     1      42.953 -12.651  -2.540  1.00  0.00     0.129 C 
BRANCH  34  35
HETATM   35  C   UNL     1      42.161 -11.760  -3.501  1.00  0.00     0.048 C 
BRANCH  35  36
HETATM   36  C   UNL     1      42.530 -10.276  -3.551  1.00  0.00     0.235 C 
BRANCH  36  37
HETATM   37  N   UNL     1      41.988  -9.458  -2.403  1.00  0.00    -0.079 N 
HETATM   38  H   UNL     1      41.921 -10.105  -1.591  1.00  0.00     0.278 HD
HETATM   39  C   UNL     1      42.820  -8.274  -2.018  1.00  0.00     0.269 C 
HETATM   40  C   UNL     1      40.557  -9.053  -2.645  1.00  0.00     0.269 C 
ENDBRANCH  36  37
ENDBRANCH  35  36
ENDBRANCH  34  35
ENDBRANCH   2  34
TORSDOF 14
ENDMDL
MODEL 3
REMARK VINA RESULT:      -7.2      2.775      4.931
REMARK  14 active torsions:
REMARK  status: ('A' for Active; 'I' for Inactive)
REMARK    1  A    between atoms: C_2  and  O_3 
REMARK    2  A    between atoms: O_3  and  C_4 
REMARK    3  A    between atoms: C_5  and  O_6 
REMARK    4  A    between atoms: C_9  and  C_10 
REMARK    5  A    between atoms: N_11  and  C_12 
REMARK    6  A    between atoms: C_12  and  C_13 
REMARK    7  A    between atoms: C_13  and  C_14 
REMARK    8  A    between atoms: C_14  and  N_15 
REMARK    9  A    between atoms: C_21  and  O_22 
REMARK   10  A    between atoms: C_23  and  C_24 
REMARK   11  A    between atoms: C_24  and  C_25 
REMARK   12  A    between atoms: C_29  and  O_30 
REMARK   13  A    between atoms: O_30  and  C_31 
REMARK   14  A    between atoms: C_31  and  C_32 
ROOT
HETATM    1  C   UNL     1      40.384 -13.368  -0.692  1.00  0.00     0.161 A 
HETATM    2  N   UNL     1      40.394 -11.956  -1.072  1.00  0.00    -0.333 N 
HETATM    3  C   UNL     1      39.716 -11.184  -0.158  1.00  0.00     0.278 A 
HETATM    4  O   UNL     1      39.617  -9.967  -0.158  1.00  0.00    -0.265 OA
HETATM    5  C   UNL     1      39.105 -12.089   0.832  1.00  0.00     0.146 A 
HETATM    6  C   UNL     1      39.509 -13.331   0.533  1.00  0.00     0.059 A 
ENDROOT
BRANCH   6   7
HETATM    7  C   UNL     1      39.215 -14.583   1.261  1.00  0.00     0.193 C 
HETATM    8  O   UNL     1      38.059 -14.945   1.453  1.00  0.00    -0.287 OA
BRANCH   7   9
HETATM    9  C   UNL     1      40.314 -15.431   1.751  1.00  0.00     0.015 A 
HETATM   10  C   UNL     1      41.147 -14.982   2.780  1.00  0.00     0.025 A 
HETATM   11  C   UNL     1      42.224 -15.775   3.204  1.00  0.00    -0.028 A 
HETATM   12  C   UNL     1      43.133 -15.282   4.297  1.00  0.00     0.051 C 
HETATM   13  C   UNL     1      42.472 -17.005   2.566  1.00  0.00     0.074 A 
HETATM   14  C   UNL     1      41.626 -17.445   1.542  1.00  0.00     0.038 A 
HETATM   15  C   UNL     1      40.557 -16.652   1.122  1.00  0.00     0.018 A 
BRANCH  13  16
HETATM   16  O   UNL     1      43.555 -17.705   3.024  1.00  0.00    -0.350 OA
BRANCH  16  17
HETATM   17  C   UNL     1      44.069 -18.733   2.175  1.00  0.00     0.179 C 
BRANCH  17  18
HETATM   18  C   UNL     1      43.854 -20.103   2.838  1.00  0.00     0.002 C 
HETATM   19  C   UNL     1      43.690 -21.201   1.784  1.00  0.00     0.011 C 
HETATM   20  C   UNL     1      45.000 -20.456   3.785  1.00  0.00     0.011 C 
ENDBRANCH  17  18
ENDBRANCH  16  17
ENDBRANCH  13  16
ENDBRANCH   7   9
ENDBRANCH   6   7
BRANCH   1  21
HETATM   21  C   UNL     1      39.943 -14.242  -1.851  1.00  0.00    -0.028 A 
HETATM   22  C   UNL     1      40.864 -15.164  -2.389  1.00  0.00     0.012 A 
HETATM   23  C   UNL     1      40.515 -15.976  -3.465  1.00  0.00     0.040 A 
HETATM   24  C   UNL     1      39.239 -15.885  -3.998  1.00  0.00     0.099 A 
HETATM   25  C   UNL     1      38.294 -14.998  -3.474  1.00  0.00     0.102 A 
HETATM   26  C   UNL     1      38.658 -14.156  -2.421  1.00  0.00     0.049 A 
BRANCH  24  27
HETATM   27  O   UNL     1      38.919 -16.705  -5.043  1.00  0.00    -0.358 OA
HETATM   28  H   UNL     1      38.765 -16.111  -5.804  1.00  0.00     0.218 HD
ENDBRANCH  24  27
BRANCH  25  29
HETATM   29  O   UNL     1      37.068 -15.027  -4.085  1.00  0.00    -0.349 OA
BRANCH  29  30
HETATM   30  C   UNL     1      36.457 -13.757  -4.320  1.00  0.00     0.171 C 
HETATM   31  C   UNL     1      35.339 -13.958  -5.328  1.00  0.00     0.034 C 
ENDBRANCH  29  30
ENDBRANCH  25  29
ENDBRANCH   1  21
BRANCH   5  32
HETATM   32  O   UNL     1      38.308 -11.663   1.848  1.00  0.00    -0.355 OA
HETATM   33  H   UNL     1      37.531 -11.225   1.451  1.00  0.00     0.218 HD
ENDBRANCH   5  32
BRANCH   2  34
HETATM   34  C   UNL     1      41.295 -11.413  -2.073  1.00  0.00     0.129 C 
BRANCH  34  35
HETATM   35  C   UNL     1      42.775 -11.476  -1.685  1.00  0.00     0.048 C 
BRANCH  35  36
HETATM   36  C   UNL     1      43.475 -10.154  -1.361  1.00  0.00     0.235 C 
BRANCH  36  37
HETATM   37  N   UNL     1      42.539  -8.997  -1.105  1.00  0.00    -0.079 N 
HETATM   38  H   UNL     1      41.575  -9.377  -1.197  1.00  0.00     0.278 HD
HETATM   39  C   UNL     1      42.684  -8.349   0.237  1.00  0.00     0.269 C 
HETATM   40  C   UNL     1      42.618  -7.974  -2.208  1.00  0.00     0.269 C 
ENDBRANCH  36  37
ENDBRANCH  35  36
ENDBRANCH  34  35
ENDBRANCH   2  34
TORSDOF 14
ENDMDL
MODEL 4
REMARK VINA RESULT:      -7.1      2.086      3.876
REMARK  14 active torsions:
REMARK  status: ('A' for Active; 'I' for Inactive)
REMARK    1  A    between atoms: C_2  and  O_3 
REMARK    2  A    between atoms: O_3  and  C_4 
REMARK    3  A    between atoms: C_5  and  O_6 
REMARK    4  A    between atoms: C_9  and  C_10 
REMARK    5  A    between atoms: N_11  and  C_12 
REMARK    6  A    between atoms: C_12  and  C_13 
REMARK    7  A    between atoms: C_13  and  C_14 
REMARK    8  A    between atoms: C_14  and  N_15 
REMARK    9  A    between atoms: C_21  and  O_22 
REMARK   10  A    between atoms: C_23  and  C_24 
REMARK   11  A    between atoms: C_24  and  C_25 
REMARK   12  A    between atoms: C_29  and  O_30 
REMARK   13  A    between atoms: O_30  and  C_31 
REMARK   14  A    between atoms: C_31  and  C_32 
ROOT
HETATM    1  C   UNL     1      40.727 -12.503   3.094  1.00  0.00     0.161 A 
HETATM    2  N   UNL     1      40.379 -11.506   2.082  1.00  0.00    -0.333 N 
HETATM    3  C   UNL     1      39.381 -10.669   2.523  1.00  0.00     0.278 A 
HETATM    4  O   UNL     1      38.932  -9.694   1.940  1.00  0.00    -0.265 OA
HETATM    5  C   UNL     1      38.926 -11.162   3.835  1.00  0.00     0.146 A 
HETATM    6  C   UNL     1      39.713 -12.195   4.163  1.00  0.00     0.059 A 
ENDROOT
BRANCH   6   7
HETATM    7  C   UNL     1      39.696 -12.992   5.407  1.00  0.00     0.193 C 
HETATM    8  O   UNL     1      38.769 -12.898   6.204  1.00  0.00    -0.287 OA
BRANCH   7   9
HETATM    9  C   UNL     1      40.791 -13.933   5.700  1.00  0.00     0.015 A 
HETATM   10  C   UNL     1      42.097 -13.466   5.871  1.00  0.00     0.025 A 
HETATM   11  C   UNL     1      43.141 -14.374   6.096  1.00  0.00    -0.028 A 
HETATM   12  C   UNL     1      44.550 -13.873   6.259  1.00  0.00     0.051 C 
HETATM   13  C   UNL     1      42.864 -15.755   6.119  1.00  0.00     0.074 A 
HETATM   14  C   UNL     1      41.551 -16.208   5.953  1.00  0.00     0.038 A 
HETATM   15  C   UNL     1      40.516 -15.300   5.727  1.00  0.00     0.018 A 
BRANCH  13  16
HETATM   16  O   UNL     1      43.942 -16.573   6.322  1.00  0.00    -0.350 OA
BRANCH  16  17
HETATM   17  C   UNL     1      44.044 -17.730   5.489  1.00  0.00     0.179 C 
BRANCH  17  18
HETATM   18  C   UNL     1      44.585 -18.911   6.310  1.00  0.00     0.002 C 
HETATM   19  C   UNL     1      43.875 -19.007   7.663  1.00  0.00     0.011 C 
HETATM   20  C   UNL     1      44.449 -20.232   5.554  1.00  0.00     0.011 C 
ENDBRANCH  17  18
ENDBRANCH  16  17
ENDBRANCH  13  16
ENDBRANCH   7   9
ENDBRANCH   6   7
BRANCH   1  21
HETATM   21  C   UNL     1      40.732 -13.900   2.503  1.00  0.00    -0.028 A 
HETATM   22  C   UNL     1      39.510 -14.596   2.406  1.00  0.00     0.012 A 
HETATM   23  C   UNL     1      39.461 -15.887   1.888  1.00  0.00     0.040 A 
HETATM   24  C   UNL     1      40.632 -16.485   1.446  1.00  0.00     0.099 A 
HETATM   25  C   UNL     1      41.857 -15.816   1.506  1.00  0.00     0.102 A 
HETATM   26  C   UNL     1      41.910 -14.535   2.063  1.00  0.00     0.049 A 
BRANCH  24  27
HETATM   27  O   UNL     1      40.553 -17.747   0.928  1.00  0.00    -0.358 OA
HETATM   28  H   UNL     1      41.209 -17.772   0.203  1.00  0.00     0.218 HD
ENDBRANCH  24  27
BRANCH  25  29
HETATM   29  O   UNL     1      42.928 -16.517   1.017  1.00  0.00    -0.349 OA
BRANCH  29  30
HETATM   30  C   UNL     1      43.868 -16.979   1.989  1.00  0.00     0.171 C 
HETATM   31  C   UNL     1      43.932 -18.492   1.893  1.00  0.00     0.034 C 
ENDBRANCH  29  30
ENDBRANCH  25  29
ENDBRANCH   1  21
BRANCH   5  32
HETATM   32  O   UNL     1      37.902 -10.602   4.533  1.00  0.00    -0.355 OA
HETATM   33  H   UNL     1      37.068 -10.969   4.182  1.00  0.00     0.218 HD
ENDBRANCH   5  32
BRANCH   2  34
HETATM   34  C   UNL     1      41.215 -11.224   0.930  1.00  0.00     0.129 C 
BRANCH  34  35
HETATM   35  C   UNL     1      40.553 -11.532  -0.417  1.00  0.00     0.048 C 
BRANCH  35  36
HETATM   36  C   UNL     1      41.093 -12.723  -1.211  1.00  0.00     0.235 C 
BRANCH  36  37
HETATM   37  N   UNL     1      40.244 -13.969  -1.122  1.00  0.00    -0.079 N 
HETATM   38  H   UNL     1      40.378 -14.345  -0.161  1.00  0.00     0.278 HD
HETATM   39  C   UNL     1      38.781 -13.761  -1.367  1.00  0.00     0.269 C 
HETATM   40  C   UNL     1      40.785 -15.066  -2.002  1.00  0.00     0.269 C 
ENDBRANCH  36  37
ENDBRANCH  35  36
ENDBRANCH  34  35
ENDBRANCH   2  34
TORSDOF 14
ENDMDL
MODEL 5
REMARK VINA RESULT:      -7.0      1.702      4.853
REMARK  14 active torsions:
REMARK  status: ('A' for Active; 'I' for Inactive)
REMARK    1  A    between atoms: C_2  and  O_3 
REMARK    2  A    between atoms: O_3  and  C_4 
REMARK    3  A    between atoms: C_5  and  O_6 
REMARK    4  A    between atoms: C_9  and  C_10 
REMARK    5  A    between atoms: N_11  and  C_12 
REMARK    6  A    between atoms: C_12  and  C_13 
REMARK    7  A    between atoms: C_13  and  C_14 
REMARK    8  A    between atoms: C_14  and  N_15 
REMARK    9  A    between atoms: C_21  and  O_22 
REMARK   10  A    between atoms: C_23  and  C_24 
REMARK   11  A    between atoms: C_24  and  C_25 
REMARK   12  A    between atoms: C_29  and  O_30 
REMARK   13  A    between atoms: O_30  and  C_31 
REMARK   14  A    between atoms: C_31  and  C_32 
ROOT
HETATM    1  C   UNL     1      40.883 -13.865   2.044  1.00  0.00     0.161 A 
HETATM    2  N   UNL     1      41.409 -12.954   1.029  1.00  0.00    -0.333 N 
HETATM    3  C   UNL     1      41.755 -13.625  -0.120  1.00  0.00     0.278 A 
HETATM    4  O   UNL     1      42.148 -13.132  -1.166  1.00  0.00    -0.265 OA
HETATM    5  C   UNL     1      41.583 -15.066   0.131  1.00  0.00     0.146 A 
HETATM    6  C   UNL     1      41.065 -15.194   1.359  1.00  0.00     0.059 A 
ENDROOT
BRANCH   6   7
HETATM    7  C   UNL     1      40.658 -16.435   2.051  1.00  0.00     0.193 C 
HETATM    8  O   UNL     1      39.495 -16.822   2.021  1.00  0.00    -0.287 OA
BRANCH   7   9
HETATM    9  C   UNL     1      41.655 -17.242   2.774  1.00  0.00     0.015 A 
HETATM   10  C   UNL     1      41.697 -17.228   4.171  1.00  0.00     0.025 A 
HETATM   11  C   UNL     1      42.684 -17.958   4.849  1.00  0.00    -0.028 A 
HETATM   12  C   UNL     1      42.742 -17.924   6.352  1.00  0.00     0.051 C 
HETATM   13  C   UNL     1      43.643 -18.676   4.110  1.00  0.00     0.074 A 
HETATM   14  C   UNL     1      43.586 -18.688   2.713  1.00  0.00     0.038 A 
HETATM   15  C   UNL     1      42.603 -17.958   2.042  1.00  0.00     0.018 A 
BRANCH  13  16
HETATM   16  O   UNL     1      44.584 -19.342   4.848  1.00  0.00    -0.350 OA
BRANCH  16  17
HETATM   17  C   UNL     1      45.227 -20.456   4.225  1.00  0.00     0.179 C 
BRANCH  17  18
HETATM   18  C   UNL     1      45.052 -21.708   5.101  1.00  0.00     0.002 C 
HETATM   19  C   UNL     1      44.092 -21.434   6.260  1.00  0.00     0.011 C 
HETATM   20  C   UNL     1      44.558 -22.901   4.284  1.00  0.00     0.011 C 
ENDBRANCH  17  18
ENDBRANCH  16  17
ENDBRANCH  13  16
ENDBRANCH   7   9
ENDBRANCH   6   7
BRANCH   1  21
HETATM   21  C   UNL     1      41.574 -13.654   3.378  1.00  0.00    -0.028 A 
HETATM   22  C   UNL     1      42.905 -14.096   3.525  1.00  0.00     0.012 A 
HETATM   23  C   UNL     1      43.579 -13.942   4.733  1.00  0.00     0.040 A 
HETATM   24  C   UNL     1      42.934 -13.329   5.796  1.00  0.00     0.099 A 
HETATM   25  C   UNL     1      41.623 -12.859   5.678  1.00  0.00     0.102 A 
HETATM   26  C   UNL     1      40.935 -13.050   4.478  1.00  0.00     0.049 A 
BRANCH  24  27
HETATM   27  O   UNL     1      43.624 -13.177   6.966  1.00  0.00    -0.358 OA
HETATM   28  H   UNL     1      43.025 -13.500   7.667  1.00  0.00     0.218 HD
ENDBRANCH  24  27
BRANCH  25  29
HETATM   29  O   UNL     1      41.117 -12.258   6.801  1.00  0.00    -0.349 OA
BRANCH  29  30
HETATM   30  C   UNL     1      39.693 -12.249   6.916  1.00  0.00     0.171 C 
HETATM   31  C   UNL     1      39.317 -11.206   7.954  1.00  0.00     0.034 C 
ENDBRANCH  29  30
ENDBRANCH  25  29
ENDBRANCH   1  21
BRANCH   5  32
HETATM   32  O   UNL     1      41.894 -16.029  -0.778  1.00  0.00    -0.355 OA
HETATM   33  H   UNL     1      42.500 -15.633  -1.433  1.00  0.00     0.218 HD
ENDBRANCH   5  32
BRANCH   2  34
HETATM   34  C   UNL     1      41.248 -11.512   1.101  1.00  0.00     0.129 C 
BRANCH  34  35
HETATM   35  C   UNL     1      39.790 -11.044   1.127  1.00  0.00     0.048 C 
BRANCH  35  36
HETATM   36  C   UNL     1      38.812 -11.733   0.173  1.00  0.00     0.235 C 
BRANCH  36  37
HETATM   37  N   UNL     1      37.618 -12.362   0.850  1.00  0.00    -0.079 N 
HETATM   38  H   UNL     1      37.803 -12.311   1.872  1.00  0.00     0.278 HD
HETATM   39  C   UNL     1      36.303 -11.708   0.556  1.00  0.00     0.269 C 
HETATM   40  C   UNL     1      37.553 -13.843   0.580  1.00  0.00     0.269 C 
ENDBRANCH  36  37
ENDBRANCH  35  36
ENDBRANCH  34  35
ENDBRANCH   2  34
TORSDOF 14
ENDMDL
MODEL 6
REMARK VINA RESULT:      -6.9      1.850      4.715
REMARK  14 active torsions:
REMARK  status: ('A' for Active; 'I' for Inactive)
REMARK    1  A    between atoms: C_2  and  O_3 
REMARK    2  A    between atoms: O_3  and  C_4 
REMARK    3  A    between atoms: C_5  and  O_6 
REMARK    4  A    between atoms: C_9  and  C_10 
REMARK    5  A    between atoms: N_11  and  C_12 
REMARK    6  A    between atoms: C_12  and  C_13 
REMARK    7  A    between atoms: C_13  and  C_14 
REMARK    8  A    between atoms: C_14  and  N_15 
REMARK    9  A    between atoms: C_21  and  O_22 
REMARK   10  A    between atoms: C_23  and  C_24 
REMARK   11  A    between atoms: C_24  and  C_25 
REMARK   12  A    between atoms: C_29  and  O_30 
REMARK   13  A    between atoms: O_30  and  C_31 
REMARK   14  A    between atoms: C_31  and  C_32 
ROOT
HETATM    1  C   UNL     1      40.208 -13.915   1.740  1.00  0.00     0.161 A 
HETATM    2  N   UNL     1      40.683 -12.988   0.714  1.00  0.00    -0.333 N 
HETATM    3  C   UNL     1      41.357 -13.648  -0.287  1.00  0.00     0.278 A 
HETATM    4  O   UNL     1      41.801 -13.161  -1.315  1.00  0.00    -0.265 OA
HETATM    5  C   UNL     1      41.466 -15.065   0.101  1.00  0.00     0.146 A 
HETATM    6  C   UNL     1      40.790 -15.213   1.248  1.00  0.00     0.059 A 
ENDROOT
BRANCH   6   7
HETATM    7  C   UNL     1      40.556 -16.456   2.012  1.00  0.00     0.193 C 
HETATM    8  O   UNL     1      39.421 -16.887   2.184  1.00  0.00    -0.287 OA
BRANCH   7   9
HETATM    9  C   UNL     1      41.693 -17.212   2.564  1.00  0.00     0.015 A 
HETATM   10  C   UNL     1      42.146 -18.372   1.929  1.00  0.00     0.025 A 
HETATM   11  C   UNL     1      43.194 -19.115   2.491  1.00  0.00    -0.028 A 
HETATM   12  C   UNL     1      43.666 -20.374   1.819  1.00  0.00     0.051 C 
HETATM   13  C   UNL     1      43.761 -18.696   3.710  1.00  0.00     0.074 A 
HETATM   14  C   UNL     1      43.304 -17.530   4.332  1.00  0.00     0.038 A 
HETATM   15  C   UNL     1      42.258 -16.796   3.769  1.00  0.00     0.018 A 
BRANCH  13  16
HETATM   16  O   UNL     1      44.763 -19.489   4.202  1.00  0.00    -0.350 OA
BRANCH  16  17
HETATM   17  C   UNL     1      44.755 -19.747   5.608  1.00  0.00     0.179 C 
BRANCH  17  18
HETATM   18  C   UNL     1      44.009 -21.063   5.885  1.00  0.00     0.002 C 
HETATM   19  C   UNL     1      44.834 -22.266   5.423  1.00  0.00     0.011 C 
HETATM   20  C   UNL     1      43.657 -21.208   7.366  1.00  0.00     0.011 C 
ENDBRANCH  17  18
ENDBRANCH  16  17
ENDBRANCH  13  16
ENDBRANCH   7   9
ENDBRANCH   6   7
BRANCH   1  21
HETATM   21  C   UNL     1      40.602 -13.442   3.127  1.00  0.00    -0.028 A 
HETATM   22  C   UNL     1      39.586 -13.026   4.011  1.00  0.00     0.012 A 
HETATM   23  C   UNL     1      39.896 -12.567   5.289  1.00  0.00     0.040 A 
HETATM   24  C   UNL     1      41.220 -12.537   5.696  1.00  0.00     0.099 A 
HETATM   25  C   UNL     1      42.250 -12.963   4.853  1.00  0.00     0.102 A 
HETATM   26  C   UNL     1      41.942 -13.387   3.558  1.00  0.00     0.049 A 
BRANCH  24  27
HETATM   27  O   UNL     1      41.494 -12.096   6.961  1.00  0.00    -0.358 OA
HETATM   28  H   UNL     1      42.058 -11.306   6.845  1.00  0.00     0.218 HD
ENDBRANCH  24  27
BRANCH  25  29
HETATM   29  O   UNL     1      43.508 -12.898   5.392  1.00  0.00    -0.349 OA
BRANCH  29  30
HETATM   30  C   UNL     1      44.176 -14.148   5.572  1.00  0.00     0.171 C 
HETATM   31  C   UNL     1      44.344 -14.375   7.064  1.00  0.00     0.034 C 
ENDBRANCH  29  30
ENDBRANCH  25  29
ENDBRANCH   1  21
BRANCH   5  32
HETATM   32  O   UNL     1      42.130 -15.996  -0.635  1.00  0.00    -0.355 OA
HETATM   33  H   UNL     1      42.869 -15.545  -1.087  1.00  0.00     0.218 HD
ENDBRANCH   5  32
BRANCH   2  34
HETATM   34  C   UNL     1      40.200 -11.624   0.595  1.00  0.00     0.129 C 
BRANCH  34  35
HETATM   35  C   UNL     1      38.820 -11.503  -0.060  1.00  0.00     0.048 C 
BRANCH  35  36
HETATM   36  C   UNL     1      38.775 -11.299  -1.576  1.00  0.00     0.235 C 
BRANCH  36  37
HETATM   37  N   UNL     1      38.473 -12.549  -2.366  1.00  0.00    -0.079 N 
HETATM   38  H   UNL     1      39.361 -12.818  -2.837  1.00  0.00     0.278 HD
HETATM   39  C   UNL     1      37.979 -13.709  -1.556  1.00  0.00     0.269 C 
HETATM   40  C   UNL     1      37.542 -12.261  -3.515  1.00  0.00     0.269 C 
ENDBRANCH  36  37
ENDBRANCH  35  36
ENDBRANCH  34  35
ENDBRANCH   2  34
TORSDOF 14
ENDMDL
MODEL 7
REMARK VINA RESULT:      -6.8      2.883      7.846
REMARK  14 active torsions:
REMARK  status: ('A' for Active; 'I' for Inactive)
REMARK    1  A    between atoms: C_2  and  O_3 
REMARK    2  A    between atoms: O_3  and  C_4 
REMARK    3  A    between atoms: C_5  and  O_6 
REMARK    4  A    between atoms: C_9  and  C_10 
REMARK    5  A    between atoms: N_11  and  C_12 
REMARK    6  A    between atoms: C_12  and  C_13 
REMARK    7  A    between atoms: C_13  and  C_14 
REMARK    8  A    between atoms: C_14  and  N_15 
REMARK    9  A    between atoms: C_21  and  O_22 
REMARK   10  A    between atoms: C_23  and  C_24 
REMARK   11  A    between atoms: C_24  and  C_25 
REMARK   12  A    between atoms: C_29  and  O_30 
REMARK   13  A    between atoms: O_30  and  C_31 
REMARK   14  A    between atoms: C_31  and  C_32 
ROOT
HETATM    1  C   UNL     1      42.256 -14.949   4.932  1.00  0.00     0.161 A 
HETATM    2  N   UNL     1      41.942 -16.234   5.555  1.00  0.00    -0.333 N 
HETATM    3  C   UNL     1      41.663 -17.196   4.614  1.00  0.00     0.278 A 
HETATM    4  O   UNL     1      41.443 -18.380   4.819  1.00  0.00    -0.265 OA
HETATM    5  C   UNL     1      41.660 -16.545   3.292  1.00  0.00     0.146 A 
HETATM    6  C   UNL     1      42.020 -15.270   3.479  1.00  0.00     0.059 A 
ENDROOT
BRANCH   6   7
HETATM    7  C   UNL     1      42.220 -14.221   2.457  1.00  0.00     0.193 C 
HETATM    8  O   UNL     1      43.174 -13.454   2.519  1.00  0.00    -0.287 OA
BRANCH   7   9
HETATM    9  C   UNL     1      41.279 -14.094   1.331  1.00  0.00     0.015 A 
HETATM   10  C   UNL     1      39.917 -13.887   1.568  1.00  0.00     0.025 A 
HETATM   11  C   UNL     1      39.022 -13.821   0.490  1.00  0.00    -0.028 A 
HETATM   12  C   UNL     1      37.554 -13.620   0.747  1.00  0.00     0.051 C 
HETATM   13  C   UNL     1      39.504 -13.994  -0.821  1.00  0.00     0.074 A 
HETATM   14  C   UNL     1      40.870 -14.194  -1.045  1.00  0.00     0.038 A 
HETATM   15  C   UNL     1      41.757 -14.261   0.032  1.00  0.00     0.018 A 
BRANCH  13  16
HETATM   16  O   UNL     1      38.562 -13.938  -1.812  1.00  0.00    -0.350 OA
BRANCH  16  17
HETATM   17  C   UNL     1      39.039 -13.834  -3.155  1.00  0.00     0.179 C 
BRANCH  17  18
HETATM   18  C   UNL     1      38.423 -14.954  -4.009  1.00  0.00     0.002 C 
HETATM   19  C   UNL     1      39.272 -16.226  -3.937  1.00  0.00     0.011 C 
HETATM   20  C   UNL     1      36.987 -15.259  -3.585  1.00  0.00     0.011 C 
ENDBRANCH  17  18
ENDBRANCH  16  17
ENDBRANCH  13  16
ENDBRANCH   7   9
ENDBRANCH   6   7
BRANCH   1  21
HETATM   21  C   UNL     1      41.442 -13.829   5.552  1.00  0.00    -0.028 A 
HETATM   22  C   UNL     1      40.038 -13.945   5.568  1.00  0.00     0.012 A 
HETATM   23  C   UNL     1      39.244 -12.937   6.109  1.00  0.00     0.040 A 
HETATM   24  C   UNL     1      39.850 -11.816   6.654  1.00  0.00     0.099 A 
HETATM   25  C   UNL     1      41.241 -11.679   6.676  1.00  0.00     0.102 A 
HETATM   26  C   UNL     1      42.034 -12.673   6.097  1.00  0.00     0.049 A 
BRANCH  24  27
HETATM   27  O   UNL     1      39.048 -10.849   7.193  1.00  0.00    -0.358 OA
HETATM   28  H   UNL     1      39.592 -10.409   7.876  1.00  0.00     0.218 HD
ENDBRANCH  24  27
BRANCH  25  29
HETATM   29  O   UNL     1      41.704 -10.531   7.263  1.00  0.00    -0.349 OA
BRANCH  29  30
HETATM   30  C   UNL     1      42.496 -10.705   8.438  1.00  0.00     0.171 C 
HETATM   31  C   UNL     1      41.620 -10.398   9.640  1.00  0.00     0.034 C 
ENDBRANCH  29  30
ENDBRANCH  25  29
ENDBRANCH   1  21
BRANCH   5  32
HETATM   32  O   UNL     1      41.359 -17.196   2.136  1.00  0.00    -0.355 OA
HETATM   33  H   UNL     1      42.060 -16.989   1.488  1.00  0.00     0.218 HD
ENDBRANCH   5  32
BRANCH   2  34
HETATM   34  C   UNL     1      42.237 -16.531   6.946  1.00  0.00     0.129 C 
BRANCH  34  35
HETATM   35  C   UNL     1      43.724 -16.752   7.238  1.00  0.00     0.048 C 
BRANCH  35  36
HETATM   36  C   UNL     1      44.177 -18.181   7.546  1.00  0.00     0.235 C 
BRANCH  36  37
HETATM   37  N   UNL     1      43.853 -19.185   6.467  1.00  0.00    -0.079 N 
HETATM   38  H   UNL     1      42.905 -18.940   6.115  1.00  0.00     0.278 HD
HETATM   39  C   UNL     1      44.810 -19.212   5.315  1.00  0.00     0.269 C 
HETATM   40  C   UNL     1      43.665 -20.566   7.041  1.00  0.00     0.269 C 
ENDBRANCH  36  37
ENDBRANCH  35  36
ENDBRANCH  34  35
ENDBRANCH   2  34
TORSDOF 14
ENDMDL
MODEL 8
REMARK VINA RESULT:      -6.8      3.140      8.368
REMARK  14 active torsions:
REMARK  status: ('A' for Active; 'I' for Inactive)
REMARK    1  A    between atoms: C_2  and  O_3 
REMARK    2  A    between atoms: O_3  and  C_4 
REMARK    3  A    between atoms: C_5  and  O_6 
REMARK    4  A    between atoms: C_9  and  C_10 
REMARK    5  A    between atoms: N_11  and  C_12 
REMARK    6  A    between atoms: C_12  and  C_13 
REMARK    7  A    between atoms: C_13  and  C_14 
REMARK    8  A    between atoms: C_14  and  N_15 
REMARK    9  A    between atoms: C_21  and  O_22 
REMARK   10  A    between atoms: C_23  and  C_24 
REMARK   11  A    between atoms: C_24  and  C_25 
REMARK   12  A    between atoms: C_29  and  O_30 
REMARK   13  A    between atoms: O_30  and  C_31 
REMARK   14  A    between atoms: C_31  and  C_32 
ROOT
HETATM    1  C   UNL     1      44.130 -18.405   3.663  1.00  0.00     0.161 A 
HETATM    2  N   UNL     1      44.368 -19.683   4.332  1.00  0.00    -0.333 N 
HETATM    3  C   UNL     1      44.238 -20.740   3.463  1.00  0.00     0.278 A 
HETATM    4  O   UNL     1      44.451 -21.918   3.704  1.00  0.00    -0.265 OA
HETATM    5  C   UNL     1      43.775 -20.204   2.170  1.00  0.00     0.146 A 
HETATM    6  C   UNL     1      43.737 -18.871   2.286  1.00  0.00     0.059 A 
ENDROOT
BRANCH   6   7
HETATM    7  C   UNL     1      43.392 -17.877   1.248  1.00  0.00     0.193 C 
HETATM    8  O   UNL     1      44.034 -17.804   0.206  1.00  0.00    -0.287 OA
BRANCH   7   9
HETATM    9  C   UNL     1      42.251 -16.967   1.443  1.00  0.00     0.015 A 
HETATM   10  C   UNL     1      42.459 -15.592   1.580  1.00  0.00     0.025 A 
HETATM   11  C   UNL     1      41.371 -14.739   1.819  1.00  0.00    -0.028 A 
HETATM   12  C   UNL     1      41.599 -13.262   1.988  1.00  0.00     0.051 C 
HETATM   13  C   UNL     1      40.080 -15.285   1.947  1.00  0.00     0.074 A 
HETATM   14  C   UNL     1      39.884 -16.663   1.801  1.00  0.00     0.038 A 
HETATM   15  C   UNL     1      40.970 -17.507   1.565  1.00  0.00     0.018 A 
BRANCH  13  16
HETATM   16  O   UNL     1      39.078 -14.388   2.202  1.00  0.00    -0.350 OA
BRANCH  16  17
HETATM   17  C   UNL     1      38.005 -14.330   1.260  1.00  0.00     0.179 C 
BRANCH  17  18
HETATM   18  C   UNL     1      37.833 -12.885   0.764  1.00  0.00     0.002 C 
HETATM   19  C   UNL     1      38.088 -11.885   1.893  1.00  0.00     0.011 C 
HETATM   20  C   UNL     1      38.753 -12.584  -0.419  1.00  0.00     0.011 C 
ENDBRANCH  17  18
ENDBRANCH  16  17
ENDBRANCH  13  16
ENDBRANCH   7   9
ENDBRANCH   6   7
BRANCH   1  21
HETATM   21  C   UNL     1      43.134 -17.561   4.436  1.00  0.00    -0.028 A 
HETATM   22  C   UNL     1      41.885 -18.125   4.765  1.00  0.00     0.012 A 
HETATM   23  C   UNL     1      40.929 -17.387   5.459  1.00  0.00     0.040 A 
HETATM   24  C   UNL     1      41.223 -16.089   5.844  1.00  0.00     0.099 A 
HETATM   25  C   UNL     1      42.460 -15.507   5.555  1.00  0.00     0.102 A 
HETATM   26  C   UNL     1      43.403 -16.234   4.825  1.00  0.00     0.049 A 
BRANCH  24  27
HETATM   27  O   UNL     1      40.273 -15.393   6.538  1.00  0.00    -0.358 OA
HETATM   28  H   UNL     1      39.416 -15.769   6.255  1.00  0.00     0.218 HD
ENDBRANCH  24  27
BRANCH  25  29
HETATM   29  O   UNL     1      42.622 -14.225   6.012  1.00  0.00    -0.349 OA
BRANCH  29  30
HETATM   30  C   UNL     1      43.954 -13.710   5.967  1.00  0.00     0.171 C 
HETATM   31  C   UNL     1      44.562 -13.872   7.349  1.00  0.00     0.034 C 
ENDBRANCH  29  30
ENDBRANCH  25  29
ENDBRANCH   1  21
BRANCH   5  32
HETATM   32  O   UNL     1      43.484 -20.986   1.095  1.00  0.00    -0.355 OA
HETATM   33  H   UNL     1      42.530 -21.192   1.129  1.00  0.00     0.218 HD
ENDBRANCH   5  32
BRANCH   2  34
HETATM   34  C   UNL     1      45.002 -19.786   5.635  1.00  0.00     0.129 C 
BRANCH  34  35
HETATM   35  C   UNL     1      44.186 -20.570   6.668  1.00  0.00     0.048 C 
BRANCH  35  36
HETATM   36  C   UNL     1      43.420 -19.764   7.719  1.00  0.00     0.235 C 
BRANCH  36  37
HETATM   37  N   UNL     1      44.193 -18.606   8.304  1.00  0.00    -0.079 N 
HETATM   38  H   UNL     1      45.002 -18.446   7.670  1.00  0.00     0.278 HD
HETATM   39  C   UNL     1      43.420 -17.331   8.443  1.00  0.00     0.269 C 
HETATM   40  C   UNL     1      44.844 -18.984   9.610  1.00  0.00     0.269 C 
ENDBRANCH  36  37
ENDBRANCH  35  36
ENDBRANCH  34  35
ENDBRANCH   2  34
TORSDOF 14
ENDMDL
MODEL 9
REMARK VINA RESULT:      -6.8      2.101      5.079
REMARK  14 active torsions:
REMARK  status: ('A' for Active; 'I' for Inactive)
REMARK    1  A    between atoms: C_2  and  O_3 
REMARK    2  A    between atoms: O_3  and  C_4 
REMARK    3  A    between atoms: C_5  and  O_6 
REMARK    4  A    between atoms: C_9  and  C_10 
REMARK    5  A    between atoms: N_11  and  C_12 
REMARK    6  A    between atoms: C_12  and  C_13 
REMARK    7  A    between atoms: C_13  and  C_14 
REMARK    8  A    between atoms: C_14  and  N_15 
REMARK    9  A    between atoms: C_21  and  O_22 
REMARK   10  A    between atoms: C_23  and  C_24 
REMARK   11  A    between atoms: C_24  and  C_25 
REMARK   12  A    between atoms: C_29  and  O_30 
REMARK   13  A    between atoms: O_30  and  C_31 
REMARK   14  A    between atoms: C_31  and  C_32 
ROOT
HETATM    1  C   UNL     1      40.267 -14.006   1.764  1.00  0.00     0.161 A 
HETATM    2  N   UNL     1      40.699 -13.082   0.716  1.00  0.00    -0.333 N 
HETATM    3  C   UNL     1      41.294 -13.748  -0.329  1.00  0.00     0.278 A 
HETATM    4  O   UNL     1      41.684 -13.263  -1.380  1.00  0.00    -0.265 OA
HETATM    5  C   UNL     1      41.395 -15.171   0.043  1.00  0.00     0.146 A 
HETATM    6  C   UNL     1      40.788 -15.313   1.228  1.00  0.00     0.059 A 
ENDROOT
BRANCH   6   7
HETATM    7  C   UNL     1      40.574 -16.556   1.997  1.00  0.00     0.193 C 
HETATM    8  O   UNL     1      39.445 -17.002   2.175  1.00  0.00    -0.287 OA
BRANCH   7   9
HETATM    9  C   UNL     1      41.723 -17.295   2.547  1.00  0.00     0.015 A 
HETATM   10  C   UNL     1      42.172 -18.466   1.929  1.00  0.00     0.025 A 
HETATM   11  C   UNL     1      43.232 -19.191   2.490  1.00  0.00    -0.028 A 
HETATM   12  C   UNL     1      43.701 -20.462   1.836  1.00  0.00     0.051 C 
HETATM   13  C   UNL     1      43.816 -18.745   3.692  1.00  0.00     0.074 A 
HETATM   14  C   UNL     1      43.361 -17.569   4.297  1.00  0.00     0.038 A 
HETATM   15  C   UNL     1      42.304 -16.851   3.735  1.00  0.00     0.018 A 
BRANCH  13  16
HETATM   16  O   UNL     1      44.829 -19.523   4.184  1.00  0.00    -0.350 OA
BRANCH  16  17
HETATM   17  C   UNL     1      44.820 -19.787   5.589  1.00  0.00     0.179 C 
BRANCH  17  18
HETATM   18  C   UNL     1      44.021 -21.070   5.866  1.00  0.00     0.002 C 
HETATM   19  C   UNL     1      44.809 -22.309   5.435  1.00  0.00     0.011 C 
HETATM   20  C   UNL     1      43.634 -21.184   7.341  1.00  0.00     0.011 C 
ENDBRANCH  17  18
ENDBRANCH  16  17
ENDBRANCH  13  16
ENDBRANCH   7   9
ENDBRANCH   6   7
BRANCH   1  21
HETATM   21  C   UNL     1      40.757 -13.553   3.126  1.00  0.00    -0.028 A 
HETATM   22  C   UNL     1      39.813 -13.078   4.059  1.00  0.00     0.012 A 
HETATM   23  C   UNL     1      40.212 -12.634   5.317  1.00  0.00     0.040 A 
HETATM   24  C   UNL     1      41.556 -12.678   5.657  1.00  0.00     0.099 A 
HETATM   25  C   UNL     1      42.515 -13.164   4.765  1.00  0.00     0.102 A 
HETATM   26  C   UNL     1      42.118 -13.572   3.489  1.00  0.00     0.049 A 
BRANCH  24  27
HETATM   27  O   UNL     1      41.918 -12.251   6.903  1.00  0.00    -0.358 OA
HETATM   28  H   UNL     1      41.113 -12.335   7.452  1.00  0.00     0.218 HD
ENDBRANCH  24  27
BRANCH  25  29
HETATM   29  O   UNL     1      43.801 -13.169   5.239  1.00  0.00    -0.349 OA
BRANCH  29  30
HETATM   30  C   UNL     1      44.172 -14.300   6.029  1.00  0.00     0.171 C 
HETATM   31  C   UNL     1      45.095 -13.814   7.132  1.00  0.00     0.034 C 
ENDBRANCH  29  30
ENDBRANCH  25  29
ENDBRANCH   1  21
BRANCH   5  32
HETATM   32  O   UNL     1      41.990 -16.110  -0.740  1.00  0.00    -0.355 OA
HETATM   33  H   UNL     1      41.376 -16.321  -1.469  1.00  0.00     0.218 HD
ENDBRANCH   5  32
BRANCH   2  34
HETATM   34  C   UNL     1      40.240 -11.707   0.636  1.00  0.00     0.129 C 
BRANCH  34  35
HETATM   35  C   UNL     1      41.336 -10.665   0.881  1.00  0.00     0.048 C 
BRANCH  35  36
HETATM   36  C   UNL     1      40.908  -9.198   0.965  1.00  0.00     0.235 C 
BRANCH  36  37
HETATM   37  N   UNL     1      40.151  -8.839   2.221  1.00  0.00    -0.079 N 
HETATM   38  H   UNL     1      39.178  -9.181   2.083  1.00  0.00     0.278 HD
HETATM   39  C   UNL     1      40.701  -9.428   3.484  1.00  0.00     0.269 C 
HETATM   40  C   UNL     1      39.982  -7.348   2.353  1.00  0.00     0.269 C 
ENDBRANCH  36  37
ENDBRANCH  35  36
ENDBRANCH  34  35
ENDBRANCH   2  34
TORSDOF 14
ENDMDL
MODEL 10
REMARK VINA RESULT:      -6.8      1.840      4.807
REMARK  14 active torsions:
REMARK  status: ('A' for Active; 'I' for Inactive)
REMARK    1  A    between atoms: C_2  and  O_3 
REMARK    2  A    between atoms: O_3  and  C_4 
REMARK    3  A    between atoms: C_5  and  O_6 
REMARK    4  A    between atoms: C_9  and  C_10 
REMARK    5  A    between atoms: N_11  and  C_12 
REMARK    6  A    between atoms: C_12  and  C_13 
REMARK    7  A    between atoms: C_13  and  C_14 
REMARK    8  A    between atoms: C_14  and  N_15 
REMARK    9  A    between atoms: C_21  and  O_22 
REMARK   10  A    between atoms: C_23  and  C_24 
REMARK   11  A    between atoms: C_24  and  C_25 
REMARK   12  A    between atoms: C_29  and  O_30 
REMARK   13  A    between atoms: O_30  and  C_31 
REMARK   14  A    between atoms: C_31  and  C_32 
ROOT
HETATM    1  C   UNL     1      40.377 -13.762   1.728  1.00  0.00     0.161 A 
HETATM    2  N   UNL     1      41.018 -12.920   0.718  1.00  0.00    -0.333 N 
HETATM    3  C   UNL     1      41.628 -13.676  -0.254  1.00  0.00     0.278 A 
HETATM    4  O   UNL     1      42.176 -13.265  -1.266  1.00  0.00    -0.265 OA
HETATM    5  C   UNL     1      41.520 -15.092   0.141  1.00  0.00     0.146 A 
HETATM    6  C   UNL     1      40.787 -15.134   1.261  1.00  0.00     0.059 A 
ENDROOT
BRANCH   6   7
HETATM    7  C   UNL     1      40.349 -16.325   2.018  1.00  0.00     0.193 C 
HETATM    8  O   UNL     1      39.173 -16.672   2.024  1.00  0.00    -0.287 OA
BRANCH   7   9
HETATM    9  C   UNL     1      41.330 -17.130   2.765  1.00  0.00     0.015 A 
HETATM   10  C   UNL     1      41.430 -17.011   4.155  1.00  0.00     0.025 A 
HETATM   11  C   UNL     1      42.403 -17.743   4.851  1.00  0.00    -0.028 A 
HETATM   12  C   UNL     1      42.524 -17.598   6.343  1.00  0.00     0.051 C 
HETATM   13  C   UNL     1      43.290 -18.570   4.136  1.00  0.00     0.074 A 
HETATM   14  C   UNL     1      43.175 -18.685   2.747  1.00  0.00     0.038 A 
HETATM   15  C   UNL     1      42.206 -17.953   2.058  1.00  0.00     0.018 A 
BRANCH  13  16
HETATM   16  O   UNL     1      44.223 -19.230   4.889  1.00  0.00    -0.350 OA
BRANCH  16  17
HETATM   17  C   UNL     1      44.933 -20.295   4.253  1.00  0.00     0.179 C 
BRANCH  17  18
HETATM   18  C   UNL     1      44.952 -21.525   5.175  1.00  0.00     0.002 C 
HETATM   19  C   UNL     1      44.011 -21.329   6.366  1.00  0.00     0.011 C 
HETATM   20  C   UNL     1      44.580 -22.800   4.419  1.00  0.00     0.011 C 
ENDBRANCH  17  18
ENDBRANCH  16  17
ENDBRANCH  13  16
ENDBRANCH   7   9
ENDBRANCH   6   7
BRANCH   1  21
HETATM   21  C   UNL     1      40.781 -13.339   3.127  1.00  0.00    -0.028 A 
HETATM   22  C   UNL     1      39.788 -12.847   3.997  1.00  0.00     0.012 A 
HETATM   23  C   UNL     1      40.109 -12.429   5.286  1.00  0.00     0.040 A 
HETATM   24  C   UNL     1      41.423 -12.518   5.719  1.00  0.00     0.099 A 
HETATM   25  C   UNL     1      42.429 -13.022   4.892  1.00  0.00     0.102 A 
HETATM   26  C   UNL     1      42.112 -13.404   3.586  1.00  0.00     0.049 A 
BRANCH  24  27
HETATM   27  O   UNL     1      41.708 -12.116   6.994  1.00  0.00    -0.358 OA
HETATM   28  H   UNL     1      42.283 -11.332   6.898  1.00  0.00     0.218 HD
ENDBRANCH  24  27
BRANCH  25  29
HETATM   29  O   UNL     1      43.677 -13.071   5.455  1.00  0.00    -0.349 OA
BRANCH  29  30
HETATM   30  C   UNL     1      44.111 -14.356   5.903  1.00  0.00     0.171 C 
HETATM   31  C   UNL     1      44.789 -14.176   7.249  1.00  0.00     0.034 C 
ENDBRANCH  29  30
ENDBRANCH  25  29
ENDBRANCH   1  21
BRANCH   5  32
HETATM   32  O   UNL     1      42.072 -16.113  -0.567  1.00  0.00    -0.355 OA
HETATM   33  H   UNL     1      42.557 -15.724  -1.319  1.00  0.00     0.218 HD
ENDBRANCH   5  32
BRANCH   2  34
HETATM   34  C   UNL     1      40.739 -11.502   0.578  1.00  0.00     0.129 C 
BRANCH  34  35
HETATM   35  C   UNL     1      39.369 -11.190  -0.032  1.00  0.00     0.048 C 
BRANCH  35  36
HETATM   36  C   UNL     1      39.294 -11.025  -1.551  1.00  0.00     0.235 C 
BRANCH  36  37
HETATM   37  N   UNL     1      38.218 -11.848  -2.217  1.00  0.00    -0.079 N 
HETATM   38  H   UNL     1      37.452 -11.946  -1.520  1.00  0.00     0.278 HD
HETATM   39  C   UNL     1      37.661 -11.264  -3.479  1.00  0.00     0.269 C 
HETATM   40  C   UNL     1      38.672 -13.268  -2.438  1.00  0.00     0.269 C 
ENDBRANCH  36  37
ENDBRANCH  35  36
ENDBRANCH  34  35
ENDBRANCH   2  34
TORSDOF 14
ENDMDL
