MODEL 1
REMARK VINA RESULT:      -9.5      0.000      0.000
REMARK  9 active torsions:
REMARK  status: ('A' for Active; 'I' for Inactive)
REMARK    1  A    between atoms: C_2  and  O_3 
REMARK    2  A    between atoms: O_3  and  C_4 
REMARK    3  A    between atoms: C_7  and  N_8 
REMARK       I    between atoms: N_8  and  C_9 
REMARK    4  A    between atoms: C_9  and  C_10 
REMARK    5  A    between atoms: C_10  and  S_11 
REMARK    6  A    between atoms: S_11  and  C_12 
REMARK    7  A    between atoms: C_16  and  C_17 
REMARK       I    between atoms: C_17  and  N_18 
REMARK    8  A    between atoms: N_18  and  C_19 
REMARK    9  A    between atoms: C_27  and  C_28 
ROOT
HETATM    1  C   UNL     1      41.540 -12.286   5.921  1.00  0.00     0.087 C 
HETATM    2  N   UNL     1      42.486 -13.127   6.477  1.00  0.00    -0.353 N 
HETATM    3  C   UNL     1      42.923 -14.313   5.917  1.00  0.00     0.019 C 
HETATM    4  C   UNL     1      44.109 -14.959   6.593  1.00  0.00     0.069 C 
HETATM    5  C   UNL     1      42.286 -14.812   4.835  1.00  0.00     0.046 C 
HETATM    6  C   UNL     1      41.014 -14.147   4.314  1.00  0.00     0.104 C 
HETATM    7  C   UNL     1      40.771 -12.741   4.904  1.00  0.00     0.055 C 
HETATM    8  C   UNL     1      39.542 -11.993   4.414  1.00  0.00     0.019 C 
HETATM    9  N   UNL     1      38.523 -11.373   4.009  1.00  0.00    -0.096 N 
HETATM   10  H   UNL     1      43.103 -12.690   7.168  1.00  0.00     0.166 HD
ENDROOT
BRANCH   1  11
HETATM   11  S   UNL     1      41.341 -10.677   6.584  1.00  0.00    -0.102 SA
BRANCH  11  12
HETATM   12  C   UNL     1      40.206 -10.999   7.983  1.00  0.00     0.184 C 
BRANCH  12  13
HETATM   13  C   UNL     1      40.624 -10.269   9.257  1.00  0.00     0.231 C 
HETATM   14  N   UNL     1      41.481 -11.023  10.050  1.00  0.00    -0.327 N 
HETATM   15  H   UNL     1      41.708 -11.955   9.725  1.00  0.00     0.169 HD
HETATM   16  O   UNL     1      40.154  -9.169   9.543  1.00  0.00    -0.272 OA
BRANCH  14  17
HETATM   17  C   UNL     1      41.904 -10.730  11.365  1.00  0.00     0.034 A 
HETATM   18  C   UNL     1      43.122 -10.132  11.683  1.00  0.00     0.032 A 
HETATM   19  C   UNL     1      43.409  -9.773  13.008  1.00  0.00     0.039 A 
HETATM   20  C   UNL     1      42.476  -9.990  14.019  1.00  0.00     0.068 A 
HETATM   21  C   UNL     1      41.290 -10.656  13.720  1.00  0.00     0.039 A 
HETATM   22  C   UNL     1      41.013 -11.033  12.401  1.00  0.00     0.032 A 
BRANCH  20  23
HETATM   23  O   UNL     1      42.823  -9.541  15.265  1.00  0.00    -0.352 OA
BRANCH  23  24
HETATM   24  C   UNL     1      41.718  -9.303  16.143  1.00  0.00     0.171 C 
HETATM   25  C   UNL     1      41.382  -7.822  16.094  1.00  0.00     0.034 C 
ENDBRANCH  23  24
ENDBRANCH  20  23
ENDBRANCH  14  17
ENDBRANCH  12  13
ENDBRANCH  11  12
ENDBRANCH   1  11
BRANCH   6  26
HETATM   26  C   UNL     1      40.892 -14.152   2.792  1.00  0.00    -0.042 A 
HETATM   27  C   UNL     1      39.983 -15.018   2.167  1.00  0.00     0.027 A 
HETATM   28  C   UNL     1      39.893 -15.010   0.784  1.00  0.00     0.116 A 
HETATM   29  N   UNL     1      40.638 -14.213  -0.008  1.00  0.00    -0.273 NA
HETATM   30  C   UNL     1      41.503 -13.380   0.607  1.00  0.00     0.116 A 
HETATM   31  C   UNL     1      41.656 -13.304   1.983  1.00  0.00     0.027 A 
ENDBRANCH   6  26
BRANCH   5  32
HETATM   32  C   UNL     1      42.977 -15.893   4.075  1.00  0.00     0.255 C 
HETATM   33  N   UNL     1      42.531 -17.170   4.326  1.00  0.00    -0.323 N 
HETATM   34  H   UNL     1      41.707 -17.285   4.898  1.00  0.00     0.169 HD
HETATM   35  O   UNL     1      43.836 -15.579   3.257  1.00  0.00    -0.268 OA
BRANCH  33  36
HETATM   36  C   UNL     1      43.073 -18.348   3.759  1.00  0.00     0.035 A 
HETATM   37  C   UNL     1      44.012 -19.157   4.412  1.00  0.00     0.031 A 
HETATM   38  C   UNL     1      44.512 -20.311   3.801  1.00  0.00     0.026 A 
HETATM   39  C   UNL     1      44.077 -20.662   2.528  1.00  0.00     0.034 A 
HETATM   40 CL   UNL     1      44.700 -22.074   1.771  1.00  0.00    -0.084 Cl
HETATM   41  C   UNL     1      43.137 -19.874   1.869  1.00  0.00     0.026 A 
HETATM   42  C   UNL     1      42.628 -18.726   2.487  1.00  0.00     0.031 A 
ENDBRANCH  33  36
ENDBRANCH   5  32
TORSDOF 9
ENDMDL
MODEL 2
REMARK VINA RESULT:      -8.9      1.219      1.783
REMARK  9 active torsions:
REMARK  status: ('A' for Active; 'I' for Inactive)
REMARK    1  A    between atoms: C_2  and  O_3 
REMARK    2  A    between atoms: O_3  and  C_4 
REMARK    3  A    between atoms: C_7  and  N_8 
REMARK       I    between atoms: N_8  and  C_9 
REMARK    4  A    between atoms: C_9  and  C_10 
REMARK    5  A    between atoms: C_10  and  S_11 
REMARK    6  A    between atoms: S_11  and  C_12 
REMARK    7  A    between atoms: C_16  and  C_17 
REMARK       I    between atoms: C_17  and  N_18 
REMARK    8  A    between atoms: N_18  and  C_19 
REMARK    9  A    between atoms: C_27  and  C_28 
ROOT
HETATM    1  C   UNL     1      40.338 -12.478   5.175  1.00  0.00     0.087 C 
HETATM    2  N   UNL     1      41.088 -13.319   5.976  1.00  0.00    -0.353 N 
HETATM    3  C   UNL     1      41.733 -14.462   5.544  1.00  0.00     0.019 C 
HETATM    4  C   UNL     1      42.662 -15.108   6.545  1.00  0.00     0.069 C 
HETATM    5  C   UNL     1      41.503 -14.925   4.296  1.00  0.00     0.046 C 
HETATM    6  C   UNL     1      40.440 -14.271   3.415  1.00  0.00     0.104 C 
HETATM    7  C   UNL     1      39.960 -12.903   3.947  1.00  0.00     0.055 C 
HETATM    8  C   UNL     1      38.925 -12.166   3.112  1.00  0.00     0.019 C 
HETATM    9  N   UNL     1      38.067 -11.555   2.421  1.00  0.00    -0.096 N 
HETATM   10  H   UNL     1      41.429 -12.899   6.846  1.00  0.00     0.166 HD
ENDROOT
BRANCH   1  11
HETATM   11  S   UNL     1      39.867 -10.910   5.798  1.00  0.00    -0.102 SA
BRANCH  11  12
HETATM   12  C   UNL     1      41.485 -10.065   5.915  1.00  0.00     0.184 C 
BRANCH  12  13
HETATM   13  C   UNL     1      41.803  -9.602   7.335  1.00  0.00     0.231 C 
HETATM   14  N   UNL     1      42.103 -10.657   8.189  1.00  0.00    -0.327 N 
HETATM   15  H   UNL     1      42.055 -11.591   7.800  1.00  0.00     0.169 HD
HETATM   16  O   UNL     1      41.704  -8.419   7.655  1.00  0.00    -0.272 OA
BRANCH  14  17
HETATM   17  C   UNL     1      42.258 -10.602   9.590  1.00  0.00     0.034 A 
HETATM   18  C   UNL     1      41.200 -10.574  10.497  1.00  0.00     0.032 A 
HETATM   19  C   UNL     1      41.449 -10.637  11.876  1.00  0.00     0.039 A 
HETATM   20  C   UNL     1      42.752 -10.746  12.357  1.00  0.00     0.068 A 
HETATM   21  C   UNL     1      43.816 -10.698  11.461  1.00  0.00     0.039 A 
HETATM   22  C   UNL     1      43.568 -10.614  10.085  1.00  0.00     0.032 A 
BRANCH  20  23
HETATM   23  O   UNL     1      42.883 -10.871  13.714  1.00  0.00    -0.352 OA
BRANCH  23  24
HETATM   24  C   UNL     1      41.824 -10.279  14.473  1.00  0.00     0.171 C 
HETATM   25  C   UNL     1      42.390  -9.094  15.237  1.00  0.00     0.034 C 
ENDBRANCH  23  24
ENDBRANCH  20  23
ENDBRANCH  14  17
ENDBRANCH  12  13
ENDBRANCH  11  12
ENDBRANCH   1  11
BRANCH   6  26
HETATM   26  C   UNL     1      40.818 -14.203   1.937  1.00  0.00    -0.042 A 
HETATM   27  C   UNL     1      41.674 -13.190   1.481  1.00  0.00     0.027 A 
HETATM   28  C   UNL     1      41.999 -13.143   0.135  1.00  0.00     0.116 A 
HETATM   29  N   UNL     1      41.533 -14.021  -0.776  1.00  0.00    -0.273 NA
HETATM   30  C   UNL     1      40.716 -14.994  -0.323  1.00  0.00     0.116 A 
HETATM   31  C   UNL     1      40.344 -15.133   1.006  1.00  0.00     0.027 A 
ENDBRANCH   6  26
BRANCH   5  32
HETATM   32  C   UNL     1      42.447 -15.948   3.761  1.00  0.00     0.255 C 
HETATM   33  N   UNL     1      42.015 -17.251   3.841  1.00  0.00    -0.323 N 
HETATM   34  H   UNL     1      41.065 -17.422   4.135  1.00  0.00     0.169 HD
HETATM   35  O   UNL     1      43.495 -15.567   3.249  1.00  0.00    -0.268 OA
BRANCH  33  36
HETATM   36  C   UNL     1      42.765 -18.383   3.444  1.00  0.00     0.035 A 
HETATM   37  C   UNL     1      43.713 -19.008   4.265  1.00  0.00     0.031 A 
HETATM   38  C   UNL     1      44.424 -20.126   3.818  1.00  0.00     0.026 A 
HETATM   39  C   UNL     1      44.194 -20.624   2.541  1.00  0.00     0.034 A 
HETATM   40 CL   UNL     1      45.075 -21.991   1.985  1.00  0.00    -0.084 Cl
HETATM   41  C   UNL     1      43.248 -20.021   1.715  1.00  0.00     0.026 A 
HETATM   42  C   UNL     1      42.529 -18.910   2.170  1.00  0.00     0.031 A 
ENDBRANCH  33  36
ENDBRANCH   5  32
TORSDOF 9
ENDMDL
MODEL 3
REMARK VINA RESULT:      -8.6      6.241     10.151
REMARK  9 active torsions:
REMARK  status: ('A' for Active; 'I' for Inactive)
REMARK    1  A    between atoms: C_2  and  O_3 
REMARK    2  A    between atoms: O_3  and  C_4 
REMARK    3  A    between atoms: C_7  and  N_8 
REMARK       I    between atoms: N_8  and  C_9 
REMARK    4  A    between atoms: C_9  and  C_10 
REMARK    5  A    between atoms: C_10  and  S_11 
REMARK    6  A    between atoms: S_11  and  C_12 
REMARK    7  A    between atoms: C_16  and  C_17 
REMARK       I    between atoms: C_17  and  N_18 
REMARK    8  A    between atoms: N_18  and  C_19 
REMARK    9  A    between atoms: C_27  and  C_28 
ROOT
HETATM    1  C   UNL     1      41.216 -12.563   1.642  1.00  0.00     0.087 C 
HETATM    2  N   UNL     1      42.041 -11.553   1.182  1.00  0.00    -0.353 N 
HETATM    3  C   UNL     1      42.410 -11.367  -0.137  1.00  0.00     0.019 C 
HETATM    4  C   UNL     1      43.144 -10.083  -0.437  1.00  0.00     0.069 C 
HETATM    5  C   UNL     1      42.106 -12.314  -1.053  1.00  0.00     0.046 C 
HETATM    6  C   UNL     1      41.481 -13.637  -0.616  1.00  0.00     0.104 C 
HETATM    7  C   UNL     1      40.948 -13.614   0.833  1.00  0.00     0.055 C 
HETATM    8  C   UNL     1      40.279 -14.882   1.340  1.00  0.00     0.019 C 
HETATM    9  N   UNL     1      39.725 -15.933   1.760  1.00  0.00    -0.096 N 
HETATM   10  H   UNL     1      42.118 -10.740   1.800  1.00  0.00     0.166 HD
ENDROOT
BRANCH   1  11
HETATM   11  S   UNL     1      40.585 -12.465   3.274  1.00  0.00    -0.102 SA
BRANCH  11  12
HETATM   12  C   UNL     1      42.119 -12.590   4.264  1.00  0.00     0.184 C 
BRANCH  12  13
HETATM   13  C   UNL     1      43.007 -13.751   3.823  1.00  0.00     0.231 C 
HETATM   14  N   UNL     1      42.403 -14.989   4.010  1.00  0.00    -0.327 N 
HETATM   15  H   UNL     1      41.481 -14.992   4.429  1.00  0.00     0.169 HD
HETATM   16  O   UNL     1      44.157 -13.559   3.434  1.00  0.00    -0.272 OA
BRANCH  14  17
HETATM   17  C   UNL     1      43.006 -16.259   3.886  1.00  0.00     0.034 A 
HETATM   18  C   UNL     1      43.276 -17.109   4.957  1.00  0.00     0.032 A 
HETATM   19  C   UNL     1      43.771 -18.401   4.727  1.00  0.00     0.039 A 
HETATM   20  C   UNL     1      43.981 -18.859   3.429  1.00  0.00     0.068 A 
HETATM   21  C   UNL     1      43.785 -17.990   2.359  1.00  0.00     0.039 A 
HETATM   22  C   UNL     1      43.311 -16.693   2.589  1.00  0.00     0.032 A 
BRANCH  20  23
HETATM   23  O   UNL     1      44.399 -20.157   3.310  1.00  0.00    -0.352 OA
BRANCH  23  24
HETATM   24  C   UNL     1      43.974 -20.814   2.111  1.00  0.00     0.171 C 
HETATM   25  C   UNL     1      44.446 -22.257   2.165  1.00  0.00     0.034 C 
ENDBRANCH  23  24
ENDBRANCH  20  23
ENDBRANCH  14  17
ENDBRANCH  12  13
ENDBRANCH  11  12
ENDBRANCH   1  11
BRANCH   6  26
HETATM   26  C   UNL     1      40.442 -14.183  -1.593  1.00  0.00    -0.042 A 
HETATM   27  C   UNL     1      40.772 -15.255  -2.436  1.00  0.00     0.027 A 
HETATM   28  C   UNL     1      39.817 -15.730  -3.319  1.00  0.00     0.116 A 
HETATM   29  N   UNL     1      38.574 -15.218  -3.422  1.00  0.00    -0.273 NA
HETATM   30  C   UNL     1      38.268 -14.192  -2.600  1.00  0.00     0.116 A 
HETATM   31  C   UNL     1      39.150 -13.655  -1.674  1.00  0.00     0.027 A 
ENDBRANCH   6  26
BRANCH   5  32
HETATM   32  C   UNL     1      42.223 -11.936  -2.490  1.00  0.00     0.255 C 
HETATM   33  N   UNL     1      41.443 -10.874  -2.887  1.00  0.00    -0.323 N 
HETATM   34  H   UNL     1      40.948 -10.353  -2.178  1.00  0.00     0.169 HD
HETATM   35  O   UNL     1      43.025 -12.543  -3.194  1.00  0.00    -0.268 OA
BRANCH  33  36
HETATM   36  C   UNL     1      41.356 -10.378  -4.210  1.00  0.00     0.035 A 
HETATM   37  C   UNL     1      42.372  -9.634  -4.823  1.00  0.00     0.031 A 
HETATM   38  C   UNL     1      42.229  -9.169  -6.134  1.00  0.00     0.026 A 
HETATM   39  C   UNL     1      41.063  -9.444  -6.841  1.00  0.00     0.034 A 
HETATM   40 CL   UNL     1      40.881  -8.864  -8.448  1.00  0.00    -0.084 Cl
HETATM   41  C   UNL     1      40.047 -10.191  -6.249  1.00  0.00     0.026 A 
HETATM   42  C   UNL     1      40.198 -10.665  -4.941  1.00  0.00     0.031 A 
ENDBRANCH  33  36
ENDBRANCH   5  32
TORSDOF 9
ENDMDL
MODEL 4
REMARK VINA RESULT:      -8.4      5.378     10.460
REMARK  9 active torsions:
REMARK  status: ('A' for Active; 'I' for Inactive)
REMARK    1  A    between atoms: C_2  and  O_3 
REMARK    2  A    between atoms: O_3  and  C_4 
REMARK    3  A    between atoms: C_7  and  N_8 
REMARK       I    between atoms: N_8  and  C_9 
REMARK    4  A    between atoms: C_9  and  C_10 
REMARK    5  A    between atoms: C_10  and  S_11 
REMARK    6  A    between atoms: S_11  and  C_12 
REMARK    7  A    between atoms: C_16  and  C_17 
REMARK       I    between atoms: C_17  and  N_18 
REMARK    8  A    between atoms: N_18  and  C_19 
REMARK    9  A    between atoms: C_27  and  C_28 
ROOT
HETATM    1  C   UNL     1      40.368 -13.294   2.763  1.00  0.00     0.087 C 
HETATM    2  N   UNL     1      40.657 -13.949   1.580  1.00  0.00    -0.353 N 
HETATM    3  C   UNL     1      41.615 -14.933   1.429  1.00  0.00     0.019 C 
HETATM    4  C   UNL     1      41.613 -15.651   0.101  1.00  0.00     0.069 C 
HETATM    5  C   UNL     1      42.473 -15.187   2.442  1.00  0.00     0.046 C 
HETATM    6  C   UNL     1      42.474 -14.307   3.691  1.00  0.00     0.104 C 
HETATM    7  C   UNL     1      41.232 -13.397   3.800  1.00  0.00     0.055 C 
HETATM    8  C   UNL     1      41.135 -12.510   5.031  1.00  0.00     0.019 C 
HETATM    9  N   UNL     1      41.055 -11.775   6.052  1.00  0.00    -0.096 N 
HETATM   10  H   UNL     1      39.915 -13.917   0.874  1.00  0.00     0.166 HD
ENDROOT
BRANCH   1  11
HETATM   11  S   UNL     1      38.915 -12.319   2.861  1.00  0.00    -0.102 SA
BRANCH  11  12
HETATM   12  C   UNL     1      38.868 -11.572   1.192  1.00  0.00     0.184 C 
BRANCH  12  13
HETATM   13  C   UNL     1      37.967 -12.342   0.230  1.00  0.00     0.231 C 
HETATM   14  N   UNL     1      38.569 -12.573  -1.002  1.00  0.00    -0.327 N 
HETATM   15  H   UNL     1      39.499 -12.195  -1.136  1.00  0.00     0.169 HD
HETATM   16  O   UNL     1      36.810 -12.627   0.533  1.00  0.00    -0.272 OA
BRANCH  14  17
HETATM   17  C   UNL     1      37.959 -13.084  -2.167  1.00  0.00     0.034 A 
HETATM   18  C   UNL     1      38.011 -14.421  -2.558  1.00  0.00     0.032 A 
HETATM   19  C   UNL     1      37.278 -14.861  -3.670  1.00  0.00     0.039 A 
HETATM   20  C   UNL     1      36.474 -13.976  -4.384  1.00  0.00     0.068 A 
HETATM   21  C   UNL     1      36.477 -12.626  -4.044  1.00  0.00     0.039 A 
HETATM   22  C   UNL     1      37.226 -12.183  -2.948  1.00  0.00     0.032 A 
BRANCH  20  23
HETATM   23  O   UNL     1      35.745 -14.519  -5.408  1.00  0.00    -0.352 OA
BRANCH  23  24
HETATM   24  C   UNL     1      35.213 -13.565  -6.334  1.00  0.00     0.171 C 
HETATM   25  C   UNL     1      35.474 -14.071  -7.742  1.00  0.00     0.034 C 
ENDBRANCH  23  24
ENDBRANCH  20  23
ENDBRANCH  14  17
ENDBRANCH  12  13
ENDBRANCH  11  12
ENDBRANCH   1  11
BRANCH   6  26
HETATM   26  C   UNL     1      42.730 -15.073   4.987  1.00  0.00    -0.042 A 
HETATM   27  C   UNL     1      41.744 -15.929   5.499  1.00  0.00     0.027 A 
HETATM   28  C   UNL     1      41.994 -16.609   6.680  1.00  0.00     0.116 A 
HETATM   29  N   UNL     1      43.142 -16.495   7.378  1.00  0.00    -0.273 NA
HETATM   30  C   UNL     1      44.085 -15.674   6.870  1.00  0.00     0.116 A 
HETATM   31  C   UNL     1      43.934 -14.961   5.690  1.00  0.00     0.027 A 
ENDBRANCH   6  26
BRANCH   5  32
HETATM   32  C   UNL     1      43.259 -16.452   2.370  1.00  0.00     0.255 C 
HETATM   33  N   UNL     1      42.627 -17.570   2.862  1.00  0.00    -0.323 N 
HETATM   34  H   UNL     1      41.654 -17.493   3.121  1.00  0.00     0.169 HD
HETATM   35  O   UNL     1      44.366 -16.425   1.842  1.00  0.00    -0.268 OA
BRANCH  33  36
HETATM   36  C   UNL     1      43.200 -18.861   2.941  1.00  0.00     0.035 A 
HETATM   37  C   UNL     1      43.104 -19.812   1.916  1.00  0.00     0.031 A 
HETATM   38  C   UNL     1      43.692 -21.073   2.051  1.00  0.00     0.026 A 
HETATM   39  C   UNL     1      44.378 -21.394   3.217  1.00  0.00     0.034 A 
HETATM   40 CL   UNL     1      45.091 -22.948   3.389  1.00  0.00    -0.084 Cl
HETATM   41  C   UNL     1      44.491 -20.457   4.241  1.00  0.00     0.026 A 
HETATM   42  C   UNL     1      43.912 -19.191   4.099  1.00  0.00     0.031 A 
ENDBRANCH  33  36
ENDBRANCH   5  32
TORSDOF 9
ENDMDL
MODEL 5
REMARK VINA RESULT:      -8.1      1.997      2.958
REMARK  9 active torsions:
REMARK  status: ('A' for Active; 'I' for Inactive)
REMARK    1  A    between atoms: C_2  and  O_3 
REMARK    2  A    between atoms: O_3  and  C_4 
REMARK    3  A    between atoms: C_7  and  N_8 
REMARK       I    between atoms: N_8  and  C_9 
REMARK    4  A    between atoms: C_9  and  C_10 
REMARK    5  A    between atoms: C_10  and  S_11 
REMARK    6  A    between atoms: S_11  and  C_12 
REMARK    7  A    between atoms: C_16  and  C_17 
REMARK       I    between atoms: C_17  and  N_18 
REMARK    8  A    between atoms: N_18  and  C_19 
REMARK    9  A    between atoms: C_27  and  C_28 
ROOT
HETATM    1  C   UNL     1      38.840 -11.700   3.756  1.00  0.00     0.087 C 
HETATM    2  N   UNL     1      39.351 -12.474   4.782  1.00  0.00    -0.353 N 
HETATM    3  C   UNL     1      40.164 -13.579   4.615  1.00  0.00     0.019 C 
HETATM    4  C   UNL     1      40.770 -14.143   5.877  1.00  0.00     0.069 C 
HETATM    5  C   UNL     1      40.360 -14.079   3.374  1.00  0.00     0.046 C 
HETATM    6  C   UNL     1      39.589 -13.513   2.184  1.00  0.00     0.104 C 
HETATM    7  C   UNL     1      38.889 -12.172   2.489  1.00  0.00     0.055 C 
HETATM    8  C   UNL     1      38.124 -11.520   1.348  1.00  0.00     0.019 C 
HETATM    9  N   UNL     1      37.490 -10.981   0.402  1.00  0.00    -0.096 N 
HETATM   10  H   UNL     1      39.379 -12.017   5.699  1.00  0.00     0.166 HD
ENDROOT
BRANCH   1  11
HETATM   11  S   UNL     1      38.108 -10.156   4.143  1.00  0.00    -0.102 SA
BRANCH  11  12
HETATM   12  C   UNL     1      39.531  -9.247   4.848  1.00  0.00     0.184 C 
BRANCH  12  13
HETATM   13  C   UNL     1      39.619  -9.383   6.366  1.00  0.00     0.231 C 
HETATM   14  N   UNL     1      40.915  -9.223   6.844  1.00  0.00    -0.327 N 
HETATM   15  H   UNL     1      41.642  -9.066   6.158  1.00  0.00     0.169 HD
HETATM   16  O   UNL     1      38.634  -9.688   7.036  1.00  0.00    -0.272 OA
BRANCH  14  17
HETATM   17  C   UNL     1      41.375  -9.467   8.156  1.00  0.00     0.034 A 
HETATM   18  C   UNL     1      42.236 -10.507   8.505  1.00  0.00     0.032 A 
HETATM   19  C   UNL     1      42.733 -10.603   9.813  1.00  0.00     0.039 A 
HETATM   20  C   UNL     1      42.391  -9.654  10.773  1.00  0.00     0.068 A 
HETATM   21  C   UNL     1      41.473  -8.659  10.451  1.00  0.00     0.039 A 
HETATM   22  C   UNL     1      40.960  -8.575   9.151  1.00  0.00     0.032 A 
BRANCH  20  23
HETATM   23  O   UNL     1      42.984  -9.799  11.999  1.00  0.00    -0.352 OA
BRANCH  23  24
HETATM   24  C   UNL     1      42.452 -10.860  12.798  1.00  0.00     0.171 C 
HETATM   25  C   UNL     1      42.340 -10.367  14.231  1.00  0.00     0.034 C 
ENDBRANCH  23  24
ENDBRANCH  20  23
ENDBRANCH  14  17
ENDBRANCH  12  13
ENDBRANCH  11  12
ENDBRANCH   1  11
BRANCH   6  26
HETATM   26  C   UNL     1      40.404 -13.447   0.894  1.00  0.00    -0.042 A 
HETATM   27  C   UNL     1      40.185 -14.392  -0.119  1.00  0.00     0.027 A 
HETATM   28  C   UNL     1      40.939 -14.317  -1.279  1.00  0.00     0.116 A 
HETATM   29  N   UNL     1      41.886 -13.381  -1.494  1.00  0.00    -0.273 NA
HETATM   30  C   UNL     1      42.081 -12.475  -0.514  1.00  0.00     0.116 A 
HETATM   31  C   UNL     1      41.368 -12.458   0.675  1.00  0.00     0.027 A 
ENDBRANCH   6  26
BRANCH   5  32
HETATM   32  C   UNL     1      41.482 -15.046   3.198  1.00  0.00     0.255 C 
HETATM   33  N   UNL     1      41.117 -16.370   3.138  1.00  0.00    -0.323 N 
HETATM   34  H   UNL     1      40.133 -16.594   3.094  1.00  0.00     0.169 HD
HETATM   35  O   UNL     1      42.620 -14.606   3.066  1.00  0.00    -0.268 OA
BRANCH  33  36
HETATM   36  C   UNL     1      42.015 -17.458   3.025  1.00  0.00     0.035 A 
HETATM   37  C   UNL     1      42.317 -18.088   1.811  1.00  0.00     0.031 A 
HETATM   38  C   UNL     1      43.214 -19.159   1.762  1.00  0.00     0.026 A 
HETATM   39  C   UNL     1      43.813 -19.612   2.932  1.00  0.00     0.034 A 
HETATM   40 CL   UNL     1      44.907 -20.936   2.875  1.00  0.00    -0.084 Cl
HETATM   41  C   UNL     1      43.531 -18.991   4.147  1.00  0.00     0.026 A 
HETATM   42  C   UNL     1      42.643 -17.911   4.191  1.00  0.00     0.031 A 
ENDBRANCH  33  36
ENDBRANCH   5  32
TORSDOF 9
ENDMDL
MODEL 6
REMARK VINA RESULT:      -8.0      4.051      9.745
REMARK  9 active torsions:
REMARK  status: ('A' for Active; 'I' for Inactive)
REMARK    1  A    between atoms: C_2  and  O_3 
REMARK    2  A    between atoms: O_3  and  C_4 
REMARK    3  A    between atoms: C_7  and  N_8 
REMARK       I    between atoms: N_8  and  C_9 
REMARK    4  A    between atoms: C_9  and  C_10 
REMARK    5  A    between atoms: C_10  and  S_11 
REMARK    6  A    between atoms: S_11  and  C_12 
REMARK    7  A    between atoms: C_16  and  C_17 
REMARK       I    between atoms: C_17  and  N_18 
REMARK    8  A    between atoms: N_18  and  C_19 
REMARK    9  A    between atoms: C_27  and  C_28 
ROOT
HETATM    1  C   UNL     1      39.564 -13.880   2.708  1.00  0.00     0.087 C 
HETATM    2  N   UNL     1      39.930 -14.599   3.831  1.00  0.00    -0.353 N 
HETATM    3  C   UNL     1      40.310 -14.046   5.040  1.00  0.00     0.019 C 
HETATM    4  C   UNL     1      40.464 -15.018   6.185  1.00  0.00     0.069 C 
HETATM    5  C   UNL     1      40.518 -12.714   5.126  1.00  0.00     0.046 C 
HETATM    6  C   UNL     1      40.465 -11.843   3.873  1.00  0.00     0.104 C 
HETATM    7  C   UNL     1      39.838 -12.556   2.656  1.00  0.00     0.055 C 
HETATM    8  C   UNL     1      39.716 -11.749   1.373  1.00  0.00     0.019 C 
HETATM    9  N   UNL     1      39.616 -11.081   0.310  1.00  0.00    -0.096 N 
HETATM   10  H   UNL     1      39.602 -15.569   3.852  1.00  0.00     0.166 HD
ENDROOT
BRANCH   1  11
HETATM   11  S   UNL     1      38.799 -14.722   1.375  1.00  0.00    -0.102 SA
BRANCH  11  12
HETATM   12  C   UNL     1      40.209 -14.942   0.229  1.00  0.00     0.184 C 
BRANCH  12  13
HETATM   13  C   UNL     1      41.439 -15.525   0.920  1.00  0.00     0.231 C 
HETATM   14  N   UNL     1      41.276 -16.862   1.267  1.00  0.00    -0.327 N 
HETATM   15  H   UNL     1      40.381 -17.285   1.058  1.00  0.00     0.169 HD
HETATM   16  O   UNL     1      42.409 -14.821   1.192  1.00  0.00    -0.272 OA
BRANCH  14  17
HETATM   17  C   UNL     1      42.132 -17.643   2.073  1.00  0.00     0.034 A 
HETATM   18  C   UNL     1      43.205 -18.389   1.586  1.00  0.00     0.032 A 
HETATM   19  C   UNL     1      44.071 -19.043   2.473  1.00  0.00     0.039 A 
HETATM   20  C   UNL     1      43.886 -18.941   3.850  1.00  0.00     0.068 A 
HETATM   21  C   UNL     1      42.774 -18.261   4.339  1.00  0.00     0.039 A 
HETATM   22  C   UNL     1      41.896 -17.626   3.453  1.00  0.00     0.032 A 
BRANCH  20  23
HETATM   23  O   UNL     1      44.827 -19.558   4.631  1.00  0.00    -0.352 OA
BRANCH  23  24
HETATM   24  C   UNL     1      44.969 -20.962   4.396  1.00  0.00     0.171 C 
HETATM   25  C   UNL     1      44.531 -21.702   5.648  1.00  0.00     0.034 C 
ENDBRANCH  23  24
ENDBRANCH  20  23
ENDBRANCH  14  17
ENDBRANCH  12  13
ENDBRANCH  11  12
ENDBRANCH   1  11
BRANCH   6  26
HETATM   26  C   UNL     1      39.848 -10.465   4.102  1.00  0.00    -0.042 A 
HETATM   27  C   UNL     1      40.663  -9.324   4.094  1.00  0.00     0.027 A 
HETATM   28  C   UNL     1      40.083  -8.084   4.310  1.00  0.00     0.116 A 
HETATM   29  N   UNL     1      38.766  -7.906   4.535  1.00  0.00    -0.273 NA
HETATM   30  C   UNL     1      37.992  -9.011   4.533  1.00  0.00     0.116 A 
HETATM   31  C   UNL     1      38.476 -10.292   4.313  1.00  0.00     0.027 A 
ENDBRANCH   6  26
BRANCH   5  32
HETATM   32  C   UNL     1      40.600 -12.123   6.492  1.00  0.00     0.255 C 
HETATM   33  N   UNL     1      41.820 -11.586   6.832  1.00  0.00    -0.323 N 
HETATM   34  H   UNL     1      42.528 -11.516   6.116  1.00  0.00     0.169 HD
HETATM   35  O   UNL     1      39.587 -12.104   7.185  1.00  0.00    -0.268 OA
BRANCH  33  36
HETATM   36  C   UNL     1      42.139 -11.021   8.090  1.00  0.00     0.035 A 
HETATM   37  C   UNL     1      41.355 -10.044   8.718  1.00  0.00     0.031 A 
HETATM   38  C   UNL     1      41.722  -9.522   9.962  1.00  0.00     0.026 A 
HETATM   39  C   UNL     1      42.880  -9.973  10.586  1.00  0.00     0.034 A 
HETATM   40 CL   UNL     1      43.338  -9.324  12.110  1.00  0.00    -0.084 Cl
HETATM   41  C   UNL     1      43.665 -10.950   9.979  1.00  0.00     0.026 A 
HETATM   42  C   UNL     1      43.290 -11.480   8.739  1.00  0.00     0.031 A 
ENDBRANCH  33  36
ENDBRANCH   5  32
TORSDOF 9
ENDMDL
MODEL 7
REMARK VINA RESULT:      -7.8      5.452      9.651
REMARK  9 active torsions:
REMARK  status: ('A' for Active; 'I' for Inactive)
REMARK    1  A    between atoms: C_2  and  O_3 
REMARK    2  A    between atoms: O_3  and  C_4 
REMARK    3  A    between atoms: C_7  and  N_8 
REMARK       I    between atoms: N_8  and  C_9 
REMARK    4  A    between atoms: C_9  and  C_10 
REMARK    5  A    between atoms: C_10  and  S_11 
REMARK    6  A    between atoms: S_11  and  C_12 
REMARK    7  A    between atoms: C_16  and  C_17 
REMARK       I    between atoms: C_17  and  N_18 
REMARK    8  A    between atoms: N_18  and  C_19 
REMARK    9  A    between atoms: C_27  and  C_28 
ROOT
HETATM    1  C   UNL     1      40.337 -13.418   2.475  1.00  0.00     0.087 C 
HETATM    2  N   UNL     1      40.622 -14.150   1.337  1.00  0.00    -0.353 N 
HETATM    3  C   UNL     1      41.592 -15.130   1.245  1.00  0.00     0.019 C 
HETATM    4  C   UNL     1      41.586 -15.940  -0.029  1.00  0.00     0.069 C 
HETATM    5  C   UNL     1      42.465 -15.301   2.264  1.00  0.00     0.046 C 
HETATM    6  C   UNL     1      42.467 -14.336   3.447  1.00  0.00     0.104 C 
HETATM    7  C   UNL     1      41.213 -13.436   3.506  1.00  0.00     0.055 C 
HETATM    8  C   UNL     1      41.118 -12.466   4.673  1.00  0.00     0.019 C 
HETATM    9  N   UNL     1      41.039 -11.662   5.640  1.00  0.00    -0.096 N 
HETATM   10  H   UNL     1      39.872 -14.178   0.640  1.00  0.00     0.166 HD
ENDROOT
BRANCH   1  11
HETATM   11  S   UNL     1      38.872 -12.457   2.520  1.00  0.00    -0.102 SA
BRANCH  11  12
HETATM   12  C   UNL     1      39.462 -10.865   1.839  1.00  0.00     0.184 C 
BRANCH  12  13
HETATM   13  C   UNL     1      39.693 -10.923   0.331  1.00  0.00     0.231 C 
HETATM   14  N   UNL     1      41.042 -10.934  -0.005  1.00  0.00    -0.327 N 
HETATM   15  H   UNL     1      41.705 -10.878   0.757  1.00  0.00     0.169 HD
HETATM   16  O   UNL     1      38.751 -10.875  -0.459  1.00  0.00    -0.272 OA
BRANCH  14  17
HETATM   17  C   UNL     1      41.600 -10.798  -1.294  1.00  0.00     0.034 A 
HETATM   18  C   UNL     1      41.808 -11.858  -2.176  1.00  0.00     0.032 A 
HETATM   19  C   UNL     1      42.261 -11.613  -3.480  1.00  0.00     0.039 A 
HETATM   20  C   UNL     1      42.490 -10.311  -3.919  1.00  0.00     0.068 A 
HETATM   21  C   UNL     1      42.358  -9.256  -3.020  1.00  0.00     0.039 A 
HETATM   22  C   UNL     1      41.926  -9.502  -1.712  1.00  0.00     0.032 A 
BRANCH  20  23
HETATM   23  O   UNL     1      42.863 -10.175  -5.229  1.00  0.00    -0.352 OA
BRANCH  23  24
HETATM   24  C   UNL     1      42.445  -8.952  -5.844  1.00  0.00     0.171 C 
HETATM   25  C   UNL     1      41.465  -9.288  -6.955  1.00  0.00     0.034 C 
ENDBRANCH  23  24
ENDBRANCH  20  23
ENDBRANCH  14  17
ENDBRANCH  12  13
ENDBRANCH  11  12
ENDBRANCH   1  11
BRANCH   6  26
HETATM   26  C   UNL     1      42.747 -15.005   4.791  1.00  0.00    -0.042 A 
HETATM   27  C   UNL     1      43.948 -14.740   5.465  1.00  0.00     0.027 A 
HETATM   28  C   UNL     1      44.185 -15.363   6.680  1.00  0.00     0.116 A 
HETATM   29  N   UNL     1      43.322 -16.222   7.259  1.00  0.00    -0.273 NA
HETATM   30  C   UNL     1      42.168 -16.462   6.603  1.00  0.00     0.116 A 
HETATM   31  C   UNL     1      41.833 -15.878   5.391  1.00  0.00     0.027 A 
ENDBRANCH   6  26
BRANCH   5  32
HETATM   32  C   UNL     1      43.267 -16.557   2.272  1.00  0.00     0.255 C 
HETATM   33  N   UNL     1      42.620 -17.669   2.759  1.00  0.00    -0.323 N 
HETATM   34  H   UNL     1      41.634 -17.598   2.962  1.00  0.00     0.169 HD
HETATM   35  O   UNL     1      44.402 -16.532   1.805  1.00  0.00    -0.268 OA
BRANCH  33  36
HETATM   36  C   UNL     1      43.202 -18.951   2.907  1.00  0.00     0.035 A 
HETATM   37  C   UNL     1      43.153 -19.939   1.916  1.00  0.00     0.031 A 
HETATM   38  C   UNL     1      43.747 -21.188   2.119  1.00  0.00     0.026 A 
HETATM   39  C   UNL     1      44.393 -21.459   3.320  1.00  0.00     0.034 A 
HETATM   40 CL   UNL     1      45.114 -22.998   3.576  1.00  0.00    -0.084 Cl
HETATM   41  C   UNL     1      44.459 -20.483   4.312  1.00  0.00     0.026 A 
HETATM   42  C   UNL     1      43.874 -19.230   4.102  1.00  0.00     0.031 A 
ENDBRANCH  33  36
ENDBRANCH   5  32
TORSDOF 9
ENDMDL
MODEL 8
REMARK VINA RESULT:      -7.8      1.590      3.625
REMARK  9 active torsions:
REMARK  status: ('A' for Active; 'I' for Inactive)
REMARK    1  A    between atoms: C_2  and  O_3 
REMARK    2  A    between atoms: O_3  and  C_4 
REMARK    3  A    between atoms: C_7  and  N_8 
REMARK       I    between atoms: N_8  and  C_9 
REMARK    4  A    between atoms: C_9  and  C_10 
REMARK    5  A    between atoms: C_10  and  S_11 
REMARK    6  A    between atoms: S_11  and  C_12 
REMARK    7  A    between atoms: C_16  and  C_17 
REMARK       I    between atoms: C_17  and  N_18 
REMARK    8  A    between atoms: N_18  and  C_19 
REMARK    9  A    between atoms: C_27  and  C_28 
ROOT
HETATM    1  C   UNL     1      40.348 -12.834   4.812  1.00  0.00     0.087 C 
HETATM    2  N   UNL     1      39.838 -13.451   3.684  1.00  0.00    -0.353 N 
HETATM    3  C   UNL     1      40.253 -14.673   3.190  1.00  0.00     0.019 C 
HETATM    4  C   UNL     1      39.416 -15.246   2.072  1.00  0.00     0.069 C 
HETATM    5  C   UNL     1      41.350 -15.264   3.714  1.00  0.00     0.046 C 
HETATM    6  C   UNL     1      42.201 -14.532   4.749  1.00  0.00     0.104 C 
HETATM    7  C   UNL     1      41.507 -13.286   5.342  1.00  0.00     0.055 C 
HETATM    8  C   UNL     1      42.272 -12.515   6.406  1.00  0.00     0.019 C 
HETATM    9  N   UNL     1      42.906 -11.876   7.287  1.00  0.00    -0.096 N 
HETATM   10  H   UNL     1      38.908 -13.130   3.397  1.00  0.00     0.166 HD
ENDROOT
BRANCH   1  11
HETATM   11  S   UNL     1      39.494 -11.460   5.486  1.00  0.00    -0.102 SA
BRANCH  11  12
HETATM   12  C   UNL     1      39.118 -12.060   7.173  1.00  0.00     0.184 C 
BRANCH  12  13
HETATM   13  C   UNL     1      39.367 -10.998   8.241  1.00  0.00     0.231 C 
HETATM   14  N   UNL     1      40.321 -11.389   9.174  1.00  0.00    -0.327 N 
HETATM   15  H   UNL     1      40.716 -12.314   9.067  1.00  0.00     0.169 HD
HETATM   16  O   UNL     1      38.704  -9.962   8.275  1.00  0.00    -0.272 OA
BRANCH  14  17
HETATM   17  C   UNL     1      40.650 -10.735  10.381  1.00  0.00     0.034 A 
HETATM   18  C   UNL     1      40.219 -11.149  11.641  1.00  0.00     0.032 A 
HETATM   19  C   UNL     1      40.691 -10.507  12.795  1.00  0.00     0.039 A 
HETATM   20  C   UNL     1      41.609  -9.463  12.701  1.00  0.00     0.068 A 
HETATM   21  C   UNL     1      41.983  -8.996  11.444  1.00  0.00     0.039 A 
HETATM   22  C   UNL     1      41.496  -9.623  10.291  1.00  0.00     0.032 A 
BRANCH  20  23
HETATM   23  O   UNL     1      42.060  -8.950  13.888  1.00  0.00    -0.352 OA
BRANCH  23  24
HETATM   24  C   UNL     1      42.022  -9.867  14.987  1.00  0.00     0.171 C 
HETATM   25  C   UNL     1      41.957  -9.064  16.274  1.00  0.00     0.034 C 
ENDBRANCH  23  24
ENDBRANCH  20  23
ENDBRANCH  14  17
ENDBRANCH  12  13
ENDBRANCH  11  12
ENDBRANCH   1  11
BRANCH   6  26
HETATM   26  C   UNL     1      42.765 -15.439   5.840  1.00  0.00    -0.042 A 
HETATM   27  C   UNL     1      44.138 -15.418   6.124  1.00  0.00     0.027 A 
HETATM   28  C   UNL     1      44.630 -16.255   7.113  1.00  0.00     0.116 A 
HETATM   29  N   UNL     1      43.860 -17.101   7.826  1.00  0.00    -0.273 NA
HETATM   30  C   UNL     1      42.540 -17.105   7.547  1.00  0.00     0.116 A 
HETATM   31  C   UNL     1      41.951 -16.297   6.586  1.00  0.00     0.027 A 
ENDBRANCH   6  26
BRANCH   5  32
HETATM   32  C   UNL     1      41.569 -16.703   3.391  1.00  0.00     0.255 C 
HETATM   33  N   UNL     1      42.880 -17.119   3.403  1.00  0.00    -0.323 N 
HETATM   34  H   UNL     1      43.582 -16.477   3.739  1.00  0.00     0.169 HD
HETATM   35  O   UNL     1      40.589 -17.416   3.194  1.00  0.00    -0.268 OA
BRANCH  33  36
HETATM   36  C   UNL     1      43.323 -18.423   3.078  1.00  0.00     0.035 A 
HETATM   37  C   UNL     1      43.041 -19.053   1.859  1.00  0.00     0.031 A 
HETATM   38  C   UNL     1      43.507 -20.344   1.594  1.00  0.00     0.026 A 
HETATM   39  C   UNL     1      44.258 -21.017   2.551  1.00  0.00     0.034 A 
HETATM   40 CL   UNL     1      44.822 -22.609   2.232  1.00  0.00    -0.084 Cl
HETATM   41  C   UNL     1      44.556 -20.402   3.765  1.00  0.00     0.026 A 
HETATM   42  C   UNL     1      44.099 -19.104   4.023  1.00  0.00     0.031 A 
ENDBRANCH  33  36
ENDBRANCH   5  32
TORSDOF 9
ENDMDL
MODEL 9
REMARK VINA RESULT:      -7.7      5.542      8.281
REMARK  9 active torsions:
REMARK  status: ('A' for Active; 'I' for Inactive)
REMARK    1  A    between atoms: C_2  and  O_3 
REMARK    2  A    between atoms: O_3  and  C_4 
REMARK    3  A    between atoms: C_7  and  N_8 
REMARK       I    between atoms: N_8  and  C_9 
REMARK    4  A    between atoms: C_9  and  C_10 
REMARK    5  A    between atoms: C_10  and  S_11 
REMARK    6  A    between atoms: S_11  and  C_12 
REMARK    7  A    between atoms: C_16  and  C_17 
REMARK       I    between atoms: C_17  and  N_18 
REMARK    8  A    between atoms: N_18  and  C_19 
REMARK    9  A    between atoms: C_27  and  C_28 
ROOT
HETATM    1  C   UNL     1      40.341 -12.236  -0.177  1.00  0.00     0.087 C 
HETATM    2  N   UNL     1      40.579 -13.396  -0.891  1.00  0.00    -0.353 N 
HETATM    3  C   UNL     1      41.070 -14.572  -0.355  1.00  0.00     0.019 C 
HETATM    4  C   UNL     1      41.052 -15.768  -1.276  1.00  0.00     0.069 C 
HETATM    5  C   UNL     1      41.525 -14.585   0.917  1.00  0.00     0.046 C 
HETATM    6  C   UNL     1      41.623 -13.286   1.714  1.00  0.00     0.104 C 
HETATM    7  C   UNL     1      40.858 -12.111   1.067  1.00  0.00     0.055 C 
HETATM    8  C   UNL     1      40.875 -10.786   1.813  1.00  0.00     0.019 C 
HETATM    9  N   UNL     1      40.889  -9.688   2.430  1.00  0.00    -0.096 N 
HETATM   10  H   UNL     1      40.074 -13.471  -1.779  1.00  0.00     0.166 HD
ENDROOT
BRANCH   1  11
HETATM   11  S   UNL     1      39.415 -10.952  -0.930  1.00  0.00    -0.102 SA
BRANCH  11  12
HETATM   12  C   UNL     1      37.858 -11.820  -1.338  1.00  0.00     0.184 C 
BRANCH  12  13
HETATM   13  C   UNL     1      36.884 -11.860  -0.163  1.00  0.00     0.231 C 
HETATM   14  N   UNL     1      36.041 -10.755  -0.126  1.00  0.00    -0.327 N 
HETATM   15  H   UNL     1      36.175 -10.051  -0.842  1.00  0.00     0.169 HD
HETATM   16  O   UNL     1      36.941 -12.754   0.680  1.00  0.00    -0.272 OA
BRANCH  14  17
HETATM   17  C   UNL     1      35.162 -10.388   0.915  1.00  0.00     0.034 A 
HETATM   18  C   UNL     1      35.503  -9.543   1.970  1.00  0.00     0.032 A 
HETATM   19  C   UNL     1      34.530  -9.141   2.896  1.00  0.00     0.039 A 
HETATM   20  C   UNL     1      33.209  -9.562   2.764  1.00  0.00     0.068 A 
HETATM   21  C   UNL     1      32.879 -10.465   1.758  1.00  0.00     0.039 A 
HETATM   22  C   UNL     1      33.854 -10.883   0.846  1.00  0.00     0.032 A 
BRANCH  20  23
HETATM   23  O   UNL     1      32.323  -9.057   3.679  1.00  0.00    -0.352 OA
BRANCH  23  24
HETATM   24  C   UNL     1      32.620  -9.383   5.040  1.00  0.00     0.171 C 
HETATM   25  C   UNL     1      32.199  -8.213   5.913  1.00  0.00     0.034 C 
ENDBRANCH  23  24
ENDBRANCH  20  23
ENDBRANCH  14  17
ENDBRANCH  12  13
ENDBRANCH  11  12
ENDBRANCH   1  11
BRANCH   6  26
HETATM   26  C   UNL     1      41.278 -13.440   3.194  1.00  0.00    -0.042 A 
HETATM   27  C   UNL     1      42.282 -13.305   4.163  1.00  0.00     0.027 A 
HETATM   28  C   UNL     1      41.949 -13.456   5.499  1.00  0.00     0.116 A 
HETATM   29  N   UNL     1      40.701 -13.731   5.930  1.00  0.00    -0.273 NA
HETATM   30  C   UNL     1      39.743 -13.851   4.988  1.00  0.00     0.116 A 
HETATM   31  C   UNL     1      39.975 -13.705   3.629  1.00  0.00     0.027 A 
ENDBRANCH   6  26
BRANCH   5  32
HETATM   32  C   UNL     1      41.733 -15.916   1.554  1.00  0.00     0.255 C 
HETATM   33  N   UNL     1      43.026 -16.195   1.934  1.00  0.00    -0.323 N 
HETATM   34  H   UNL     1      43.712 -15.457   1.872  1.00  0.00     0.169 HD
HETATM   35  O   UNL     1      40.757 -16.635   1.744  1.00  0.00    -0.268 OA
BRANCH  33  36
HETATM   36  C   UNL     1      43.461 -17.413   2.508  1.00  0.00     0.035 A 
HETATM   37  C   UNL     1      43.729 -18.567   1.760  1.00  0.00     0.031 A 
HETATM   38  C   UNL     1      44.157 -19.743   2.383  1.00  0.00     0.026 A 
HETATM   39  C   UNL     1      44.318 -19.773   3.764  1.00  0.00     0.034 A 
HETATM   40 CL   UNL     1      44.834 -21.221   4.533  1.00  0.00    -0.084 Cl
HETATM   41  C   UNL     1      44.065 -18.632   4.522  1.00  0.00     0.026 A 
HETATM   42  C   UNL     1      43.649 -17.452   3.894  1.00  0.00     0.031 A 
ENDBRANCH  33  36
ENDBRANCH   5  32
TORSDOF 9
ENDMDL
MODEL 10
REMARK VINA RESULT:      -7.7      5.423     11.086
REMARK  9 active torsions:
REMARK  status: ('A' for Active; 'I' for Inactive)
REMARK    1  A    between atoms: C_2  and  O_3 
REMARK    2  A    between atoms: O_3  and  C_4 
REMARK    3  A    between atoms: C_7  and  N_8 
REMARK       I    between atoms: N_8  and  C_9 
REMARK    4  A    between atoms: C_9  and  C_10 
REMARK    5  A    between atoms: C_10  and  S_11 
REMARK    6  A    between atoms: S_11  and  C_12 
REMARK    7  A    between atoms: C_16  and  C_17 
REMARK       I    between atoms: C_17  and  N_18 
REMARK    8  A    between atoms: N_18  and  C_19 
REMARK    9  A    between atoms: C_27  and  C_28 
ROOT
HETATM    1  C   UNL     1      41.679 -13.860  -0.246  1.00  0.00     0.087 C 
HETATM    2  N   UNL     1      42.033 -15.193  -0.137  1.00  0.00    -0.353 N 
HETATM    3  C   UNL     1      42.264 -15.859   1.051  1.00  0.00     0.019 C 
HETATM    4  C   UNL     1      42.432 -17.355   0.941  1.00  0.00     0.069 C 
HETATM    5  C   UNL     1      42.329 -15.158   2.205  1.00  0.00     0.046 C 
HETATM    6  C   UNL     1      42.281 -13.632   2.184  1.00  0.00     0.104 C 
HETATM    7  C   UNL     1      41.820 -13.052   0.830  1.00  0.00     0.055 C 
HETATM    8  C   UNL     1      41.711 -11.539   0.731  1.00  0.00     0.019 C 
HETATM    9  N   UNL     1      41.622 -10.284   0.649  1.00  0.00    -0.096 N 
HETATM   10  H   UNL     1      41.803 -15.771  -0.952  1.00  0.00     0.166 HD
ENDROOT
BRANCH   1  11
HETATM   11  S   UNL     1      41.103 -13.259  -1.788  1.00  0.00    -0.102 SA
BRANCH  11  12
HETATM   12  C   UNL     1      40.073 -14.659  -2.361  1.00  0.00     0.184 C 
BRANCH  12  13
HETATM   13  C   UNL     1      38.593 -14.298  -2.451  1.00  0.00     0.231 C 
HETATM   14  N   UNL     1      38.185 -14.026  -3.751  1.00  0.00    -0.327 N 
HETATM   15  H   UNL     1      38.893 -14.068  -4.473  1.00  0.00     0.169 HD
HETATM   16  O   UNL     1      37.902 -14.190  -1.439  1.00  0.00    -0.272 OA
BRANCH  14  17
HETATM   17  C   UNL     1      36.946 -13.488  -4.161  1.00  0.00     0.034 A 
HETATM   18  C   UNL     1      35.902 -14.239  -4.698  1.00  0.00     0.032 A 
HETATM   19  C   UNL     1      34.665 -13.637  -4.970  1.00  0.00     0.039 A 
HETATM   20  C   UNL     1      34.455 -12.289  -4.689  1.00  0.00     0.068 A 
HETATM   21  C   UNL     1      35.516 -11.517  -4.225  1.00  0.00     0.039 A 
HETATM   22  C   UNL     1      36.758 -12.113  -3.973  1.00  0.00     0.032 A 
BRANCH  20  23
HETATM   23  O   UNL     1      33.193 -11.815  -4.925  1.00  0.00    -0.352 OA
BRANCH  23  24
HETATM   24  C   UNL     1      32.511 -11.330  -3.764  1.00  0.00     0.171 C 
HETATM   25  C   UNL     1      31.766 -12.492  -3.130  1.00  0.00     0.034 C 
ENDBRANCH  23  24
ENDBRANCH  20  23
ENDBRANCH  14  17
ENDBRANCH  12  13
ENDBRANCH  11  12
ENDBRANCH   1  11
BRANCH   6  26
HETATM   26  C   UNL     1      41.511 -13.021   3.353  1.00  0.00    -0.042 A 
HETATM   27  C   UNL     1      40.109 -13.022   3.343  1.00  0.00     0.027 A 
HETATM   28  C   UNL     1      39.430 -12.457   4.411  1.00  0.00     0.116 A 
HETATM   29  N   UNL     1      40.044 -11.896   5.472  1.00  0.00    -0.273 NA
HETATM   30  C   UNL     1      41.393 -11.909   5.472  1.00  0.00     0.116 A 
HETATM   31  C   UNL     1      42.161 -12.462   4.458  1.00  0.00     0.027 A 
ENDBRANCH   6  26
BRANCH   5  32
HETATM   32  C   UNL     1      42.251 -15.931   3.478  1.00  0.00     0.255 C 
HETATM   33  N   UNL     1      43.420 -16.004   4.199  1.00  0.00    -0.323 N 
HETATM   34  H   UNL     1      44.204 -15.445   3.895  1.00  0.00     0.169 HD
HETATM   35  O   UNL     1      41.165 -16.392   3.819  1.00  0.00    -0.268 OA
BRANCH  33  36
HETATM   36  C   UNL     1      43.589 -16.724   5.405  1.00  0.00     0.035 A 
HETATM   37  C   UNL     1      43.125 -16.270   6.647  1.00  0.00     0.031 A 
HETATM   38  C   UNL     1      43.322 -17.026   7.806  1.00  0.00     0.026 A 
HETATM   39  C   UNL     1      43.990 -18.244   7.731  1.00  0.00     0.034 A 
HETATM   40 CL   UNL     1      44.243 -19.169   9.157  1.00  0.00    -0.084 Cl
HETATM   41  C   UNL     1      44.449 -18.714   6.503  1.00  0.00     0.026 A 
HETATM   42  C   UNL     1      44.240 -17.961   5.342  1.00  0.00     0.031 A 
ENDBRANCH  33  36
ENDBRANCH   5  32
TORSDOF 9
ENDMDL
