MODEL 1
REMARK VINA RESULT:      -8.9      0.000      0.000
REMARK  4 active torsions:
REMARK  status: ('A' for Active; 'I' for Inactive)
REMARK    1  A    between atoms: O_2  and  C_3 
REMARK    2  A    between atoms: C_5  and  C_6 
REMARK    3  A    between atoms: C_10  and  N_11 
REMARK    4  A    between atoms: C_14  and  C_15 
ROOT
HETATM    1  C   UNL     1      44.530 -18.334   4.847  1.00  0.00     0.164 C 
HETATM    2  N   UNL     1      43.884 -17.901   6.079  1.00  0.00    -0.074 N 
HETATM    3  C   UNL     1      42.658 -17.295   6.140  1.00  0.00     0.736 A 
HETATM    4  N   UNL     1      42.349 -17.095   7.394  1.00  0.00     0.131 NA
HETATM    5  C   UNL     1      43.448 -17.552   8.060  1.00  0.00     0.753 A 
HETATM    6  N   UNL     1      44.412 -18.072   7.302  1.00  0.00     0.037 NA
HETATM    7  N   UNL     1      41.964 -17.003   5.020  1.00  0.00    -0.214 N 
HETATM    8  C   UNL     1      42.368 -17.590   3.747  1.00  0.00     0.135 C 
HETATM    9  C   UNL     1      43.905 -17.601   3.642  1.00  0.00     0.063 C 
HETATM   10  H   UNL     1      40.975 -16.795   5.129  1.00  0.00     0.178 HD
ENDROOT
BRANCH   1  11
HETATM   11  C   UNL     1      44.492 -19.848   4.655  1.00  0.00    -0.030 A 
HETATM   12  C   UNL     1      44.535 -20.459   3.384  1.00  0.00     0.046 A 
HETATM   13  C   UNL     1      44.570 -21.850   3.255  1.00  0.00     0.068 A 
HETATM   14  C   UNL     1      44.547 -22.644   4.402  1.00  0.00     0.037 A 
HETATM   15  C   UNL     1      44.498 -22.060   5.666  1.00  0.00     0.003 A 
HETATM   16  C   UNL     1      44.476 -20.672   5.793  1.00  0.00     0.009 A 
BRANCH  13  17
HETATM   17  O   UNL     1      44.633 -22.545   2.079  1.00  0.00    -0.356 OA
HETATM   18  C   UNL     1      43.898 -22.024   0.978  1.00  0.00     0.210 C 
ENDBRANCH  13  17
ENDBRANCH   1  11
BRANCH   8  19
HETATM   19  C   UNL     1      41.754 -16.835   2.582  1.00  0.00    -0.035 A 
HETATM   20  C   UNL     1      40.658 -15.971   2.745  1.00  0.00     0.010 A 
HETATM   21  C   UNL     1      40.124 -15.282   1.653  1.00  0.00     0.019 A 
HETATM   22  C   UNL     1      40.693 -15.437   0.391  1.00  0.00     0.011 A 
HETATM   23 BR   UNL     1      39.974 -14.502  -1.086  1.00  0.00    -0.051 Br
HETATM   24  C   UNL     1      41.791 -16.274   0.211  1.00  0.00     0.019 A 
HETATM   25  C   UNL     1      42.320 -16.968   1.301  1.00  0.00     0.010 A 
ENDBRANCH   8  19
BRANCH   5  26
HETATM   26  N   UNL     1      43.464 -17.484   9.387  1.00  0.00    -0.229 N 
HETATM   27  H   UNL     1      43.913 -16.679   9.800  1.00  0.00     0.174 HD
HETATM   28  H   UNL     1      42.642 -17.815   9.873  1.00  0.00     0.174 HD
ENDBRANCH   5  26
TORSDOF 4
ENDMDL
MODEL 2
REMARK VINA RESULT:      -8.9      1.460      2.403
REMARK  4 active torsions:
REMARK  status: ('A' for Active; 'I' for Inactive)
REMARK    1  A    between atoms: O_2  and  C_3 
REMARK    2  A    between atoms: C_5  and  C_6 
REMARK    3  A    between atoms: C_10  and  N_11 
REMARK    4  A    between atoms: C_14  and  C_15 
ROOT
HETATM    1  C   UNL     1      44.055 -17.541   4.250  1.00  0.00     0.164 C 
HETATM    2  N   UNL     1      43.692 -17.643   5.657  1.00  0.00    -0.074 N 
HETATM    3  C   UNL     1      42.489 -17.246   6.177  1.00  0.00     0.736 A 
HETATM    4  N   UNL     1      42.468 -17.531   7.453  1.00  0.00     0.131 NA
HETATM    5  C   UNL     1      43.707 -18.057   7.673  1.00  0.00     0.753 A 
HETATM    6  N   UNL     1      44.491 -18.163   6.602  1.00  0.00     0.037 NA
HETATM    7  N   UNL     1      41.548 -16.667   5.403  1.00  0.00    -0.214 N 
HETATM    8  C   UNL     1      41.673 -16.724   3.951  1.00  0.00     0.135 C 
HETATM    9  C   UNL     1      43.144 -16.516   3.546  1.00  0.00     0.063 C 
HETATM   10  H   UNL     1      40.602 -16.628   5.776  1.00  0.00     0.178 HD
ENDROOT
BRANCH   1  11
HETATM   11  C   UNL     1      44.034 -18.888   3.530  1.00  0.00    -0.030 A 
HETATM   12  C   UNL     1      44.514 -20.076   4.118  1.00  0.00     0.046 A 
HETATM   13  C   UNL     1      44.412 -21.301   3.453  1.00  0.00     0.068 A 
HETATM   14  C   UNL     1      43.839 -21.343   2.182  1.00  0.00     0.037 A 
HETATM   15  C   UNL     1      43.365 -20.179   1.581  1.00  0.00     0.003 A 
HETATM   16  C   UNL     1      43.456 -18.960   2.252  1.00  0.00     0.009 A 
BRANCH  13  17
HETATM   17  O   UNL     1      44.824 -22.513   3.936  1.00  0.00    -0.356 OA
HETATM   18  C   UNL     1      45.262 -22.556   5.289  1.00  0.00     0.210 C 
ENDBRANCH  13  17
ENDBRANCH   1  11
BRANCH   8  19
HETATM   19  C   UNL     1      40.780 -15.690   3.289  1.00  0.00    -0.035 A 
HETATM   20  C   UNL     1      40.004 -15.988   2.155  1.00  0.00     0.010 A 
HETATM   21  C   UNL     1      39.183 -15.017   1.577  1.00  0.00     0.019 A 
HETATM   22  C   UNL     1      39.117 -13.743   2.137  1.00  0.00     0.011 A 
HETATM   23 BR   UNL     1      38.005 -12.429   1.356  1.00  0.00    -0.051 Br
HETATM   24  C   UNL     1      39.864 -13.432   3.270  1.00  0.00     0.019 A 
HETATM   25  C   UNL     1      40.690 -14.401   3.844  1.00  0.00     0.010 A 
ENDBRANCH   8  19
BRANCH   5  26
HETATM   26  N   UNL     1      44.022 -18.453   8.901  1.00  0.00    -0.229 N 
HETATM   27  H   UNL     1      43.402 -19.117   9.343  1.00  0.00     0.174 HD
HETATM   28  H   UNL     1      45.004 -18.578   9.105  1.00  0.00     0.174 HD
ENDBRANCH   5  26
TORSDOF 4
ENDMDL
MODEL 3
REMARK VINA RESULT:      -8.2      2.444      3.261
REMARK  4 active torsions:
REMARK  status: ('A' for Active; 'I' for Inactive)
REMARK    1  A    between atoms: O_2  and  C_3 
REMARK    2  A    between atoms: C_5  and  C_6 
REMARK    3  A    between atoms: C_10  and  N_11 
REMARK    4  A    between atoms: C_14  and  C_15 
ROOT
HETATM    1  C   UNL     1      44.024 -16.750   4.856  1.00  0.00     0.164 C 
HETATM    2  N   UNL     1      43.789 -17.208   6.219  1.00  0.00    -0.074 N 
HETATM    3  C   UNL     1      42.689 -16.884   6.967  1.00  0.00     0.736 A 
HETATM    4  N   UNL     1      42.761 -17.507   8.114  1.00  0.00     0.131 NA
HETATM    5  C   UNL     1      43.956 -18.161   8.036  1.00  0.00     0.753 A 
HETATM    6  N   UNL     1      44.618 -18.025   6.889  1.00  0.00     0.037 NA
HETATM    7  N   UNL     1      41.741 -16.049   6.494  1.00  0.00    -0.214 N 
HETATM    8  C   UNL     1      41.719 -15.713   5.074  1.00  0.00     0.135 C 
HETATM    9  C   UNL     1      43.159 -15.508   4.564  1.00  0.00     0.063 C 
HETATM   10  H   UNL     1      40.845 -16.046   6.974  1.00  0.00     0.178 HD
ENDROOT
BRANCH   1  11
HETATM   11  C   UNL     1      43.796 -17.842   3.814  1.00  0.00    -0.030 A 
HETATM   12  C   UNL     1      44.293 -19.154   3.959  1.00  0.00     0.046 A 
HETATM   13  C   UNL     1      44.002 -20.142   3.015  1.00  0.00     0.068 A 
HETATM   14  C   UNL     1      43.221 -19.820   1.906  1.00  0.00     0.037 A 
HETATM   15  C   UNL     1      42.727 -18.528   1.740  1.00  0.00     0.003 A 
HETATM   16  C   UNL     1      43.006 -17.547   2.689  1.00  0.00     0.009 A 
BRANCH  13  17
HETATM   17  O   UNL     1      44.413 -21.446   3.067  1.00  0.00    -0.356 OA
HETATM   18  C   UNL     1      44.346 -22.194   1.858  1.00  0.00     0.210 C 
ENDBRANCH  13  17
ENDBRANCH   1  11
BRANCH   8  19
HETATM   19  C   UNL     1      40.877 -14.475   4.822  1.00  0.00    -0.035 A 
HETATM   20  C   UNL     1      40.241 -13.779   5.864  1.00  0.00     0.010 A 
HETATM   21  C   UNL     1      39.483 -12.635   5.599  1.00  0.00     0.019 A 
HETATM   22  C   UNL     1      39.369 -12.168   4.293  1.00  0.00     0.011 A 
HETATM   23 BR   UNL     1      38.346 -10.619   3.934  1.00  0.00    -0.051 Br
HETATM   24  C   UNL     1      40.006 -12.832   3.248  1.00  0.00     0.019 A 
HETATM   25  C   UNL     1      40.758 -13.979   3.512  1.00  0.00     0.010 A 
ENDBRANCH   8  19
BRANCH   5  26
HETATM   26  N   UNL     1      44.346 -18.901   9.068  1.00  0.00    -0.229 N 
HETATM   27  H   UNL     1      43.882 -18.739   9.951  1.00  0.00     0.174 HD
HETATM   28  H   UNL     1      44.586 -19.864   8.878  1.00  0.00     0.174 HD
ENDBRANCH   5  26
TORSDOF 4
ENDMDL
MODEL 4
REMARK VINA RESULT:      -8.1      3.930      7.023
REMARK  4 active torsions:
REMARK  status: ('A' for Active; 'I' for Inactive)
REMARK    1  A    between atoms: O_2  and  C_3 
REMARK    2  A    between atoms: C_5  and  C_6 
REMARK    3  A    between atoms: C_10  and  N_11 
REMARK    4  A    between atoms: C_14  and  C_15 
ROOT
HETATM    1  C   UNL     1      40.617 -14.925   3.265  1.00  0.00     0.164 C 
HETATM    2  N   UNL     1      41.292 -14.267   4.375  1.00  0.00    -0.074 N 
HETATM    3  C   UNL     1      42.480 -14.680   4.916  1.00  0.00     0.736 A 
HETATM    4  N   UNL     1      42.834 -13.837   5.850  1.00  0.00     0.131 NA
HETATM    5  C   UNL     1      41.797 -12.951   5.875  1.00  0.00     0.753 A 
HETATM    6  N   UNL     1      40.833 -13.159   4.981  1.00  0.00     0.037 NA
HETATM    7  N   UNL     1      43.101 -15.793   4.473  1.00  0.00    -0.214 N 
HETATM    8  C   UNL     1      42.675 -16.407   3.221  1.00  0.00     0.135 C 
HETATM    9  C   UNL     1      41.138 -16.368   3.116  1.00  0.00     0.063 C 
HETATM   10  H   UNL     1      44.079 -15.908   4.725  1.00  0.00     0.178 HD
ENDROOT
BRANCH   1  11
HETATM   11  C   UNL     1      40.739 -14.154   1.953  1.00  0.00    -0.030 A 
HETATM   12  C   UNL     1      41.748 -13.197   1.719  1.00  0.00     0.046 A 
HETATM   13  C   UNL     1      41.867 -12.564   0.479  1.00  0.00     0.068 A 
HETATM   14  C   UNL     1      40.963 -12.875  -0.537  1.00  0.00     0.037 A 
HETATM   15  C   UNL     1      39.954 -13.811  -0.324  1.00  0.00     0.003 A 
HETATM   16  C   UNL     1      39.845 -14.451   0.910  1.00  0.00     0.009 A 
BRANCH  13  17
HETATM   17  O   UNL     1      42.817 -11.641   0.137  1.00  0.00    -0.356 OA
HETATM   18  C   UNL     1      42.939 -11.320  -1.244  1.00  0.00     0.210 C 
ENDBRANCH  13  17
ENDBRANCH   1  11
BRANCH   8  19
HETATM   19  C   UNL     1      43.186 -17.833   3.113  1.00  0.00    -0.035 A 
HETATM   20  C   UNL     1      43.976 -18.421   4.115  1.00  0.00     0.010 A 
HETATM   21  C   UNL     1      44.420 -19.741   3.992  1.00  0.00     0.019 A 
HETATM   22  C   UNL     1      44.063 -20.489   2.873  1.00  0.00     0.011 A 
HETATM   23 BR   UNL     1      44.661 -22.274   2.706  1.00  0.00    -0.051 Br
HETATM   24  C   UNL     1      43.266 -19.931   1.877  1.00  0.00     0.019 A 
HETATM   25  C   UNL     1      42.828 -18.610   1.997  1.00  0.00     0.010 A 
ENDBRANCH   8  19
BRANCH   5  26
HETATM   26  N   UNL     1      41.840 -11.946   6.743  1.00  0.00    -0.229 N 
HETATM   27  H   UNL     1      41.903 -11.012   6.362  1.00  0.00     0.174 HD
HETATM   28  H   UNL     1      41.273 -12.034   7.575  1.00  0.00     0.174 HD
ENDBRANCH   5  26
TORSDOF 4
ENDMDL
MODEL 5
REMARK VINA RESULT:      -8.1      3.803      5.799
REMARK  4 active torsions:
REMARK  status: ('A' for Active; 'I' for Inactive)
REMARK    1  A    between atoms: O_2  and  C_3 
REMARK    2  A    between atoms: C_5  and  C_6 
REMARK    3  A    between atoms: C_10  and  N_11 
REMARK    4  A    between atoms: C_14  and  C_15 
ROOT
HETATM    1  C   UNL     1      41.710 -17.258   3.487  1.00  0.00     0.164 C 
HETATM    2  N   UNL     1      41.590 -16.440   2.287  1.00  0.00    -0.074 N 
HETATM    3  C   UNL     1      42.115 -15.183   2.151  1.00  0.00     0.736 A 
HETATM    4  N   UNL     1      41.881 -14.758   0.938  1.00  0.00     0.131 NA
HETATM    5  C   UNL     1      41.162 -15.778   0.386  1.00  0.00     0.753 A 
HETATM    6  N   UNL     1      40.969 -16.840   1.166  1.00  0.00     0.037 NA
HETATM    7  N   UNL     1      42.757 -14.577   3.172  1.00  0.00    -0.214 N 
HETATM    8  C   UNL     1      43.162 -15.359   4.335  1.00  0.00     0.135 C 
HETATM    9  C   UNL     1      42.055 -16.368   4.697  1.00  0.00     0.063 C 
HETATM   10  H   UNL     1      43.335 -13.773   2.943  1.00  0.00     0.178 HD
ENDROOT
BRANCH   1  11
HETATM   11  C   UNL     1      42.716 -18.397   3.332  1.00  0.00    -0.030 A 
HETATM   12  C   UNL     1      43.417 -18.951   4.423  1.00  0.00     0.046 A 
HETATM   13  C   UNL     1      44.275 -20.040   4.249  1.00  0.00     0.068 A 
HETATM   14  C   UNL     1      44.451 -20.575   2.974  1.00  0.00     0.037 A 
HETATM   15  C   UNL     1      43.774 -20.037   1.881  1.00  0.00     0.003 A 
HETATM   16  C   UNL     1      42.907 -18.960   2.059  1.00  0.00     0.009 A 
BRANCH  13  17
HETATM   17  O   UNL     1      44.986 -20.667   5.236  1.00  0.00    -0.356 OA
HETATM   18  C   UNL     1      44.959 -22.089   5.248  1.00  0.00     0.210 C 
ENDBRANCH  13  17
ENDBRANCH   1  11
BRANCH   8  19
HETATM   19  C   UNL     1      43.474 -14.456   5.514  1.00  0.00    -0.035 A 
HETATM   20  C   UNL     1      42.680 -13.342   5.834  1.00  0.00     0.010 A 
HETATM   21  C   UNL     1      42.988 -12.538   6.935  1.00  0.00     0.019 A 
HETATM   22  C   UNL     1      44.083 -12.851   7.735  1.00  0.00     0.011 A 
HETATM   23 BR   UNL     1      44.499 -11.765   9.226  1.00  0.00    -0.051 Br
HETATM   24  C   UNL     1      44.874 -13.961   7.447  1.00  0.00     0.019 A 
HETATM   25  C   UNL     1      44.570 -14.760   6.343  1.00  0.00     0.010 A 
ENDBRANCH   8  19
BRANCH   5  26
HETATM   26  N   UNL     1      40.747 -15.659  -0.870  1.00  0.00    -0.229 N 
HETATM   27  H   UNL     1      41.296 -15.071  -1.481  1.00  0.00     0.174 HD
HETATM   28  H   UNL     1      40.354 -16.483  -1.304  1.00  0.00     0.174 HD
ENDBRANCH   5  26
TORSDOF 4
ENDMDL
MODEL 6
REMARK VINA RESULT:      -8.1      3.943      7.218
REMARK  4 active torsions:
REMARK  status: ('A' for Active; 'I' for Inactive)
REMARK    1  A    between atoms: O_2  and  C_3 
REMARK    2  A    between atoms: C_5  and  C_6 
REMARK    3  A    between atoms: C_10  and  N_11 
REMARK    4  A    between atoms: C_14  and  C_15 
ROOT
HETATM    1  C   UNL     1      40.903 -15.048   1.450  1.00  0.00     0.164 C 
HETATM    2  N   UNL     1      41.439 -14.100   2.417  1.00  0.00    -0.074 N 
HETATM    3  C   UNL     1      42.524 -14.339   3.217  1.00  0.00     0.736 A 
HETATM    4  N   UNL     1      42.774 -13.265   3.920  1.00  0.00     0.131 NA
HETATM    5  C   UNL     1      41.777 -12.412   3.546  1.00  0.00     0.753 A 
HETATM    6  N   UNL     1      40.941 -12.869   2.616  1.00  0.00     0.037 NA
HETATM    7  N   UNL     1      43.160 -15.528   3.198  1.00  0.00    -0.214 N 
HETATM    8  C   UNL     1      42.892 -16.473   2.119  1.00  0.00     0.135 C 
HETATM    9  C   UNL     1      41.388 -16.472   1.788  1.00  0.00     0.063 C 
HETATM   10  H   UNL     1      44.089 -15.563   3.611  1.00  0.00     0.178 HD
ENDROOT
BRANCH   1  11
HETATM   11  C   UNL     1      41.235 -14.677   0.006  1.00  0.00    -0.030 A 
HETATM   12  C   UNL     1      40.861 -15.477  -1.094  1.00  0.00     0.046 A 
HETATM   13  C   UNL     1      41.123 -15.067  -2.404  1.00  0.00     0.068 A 
HETATM   14  C   UNL     1      41.777 -13.855  -2.623  1.00  0.00     0.037 A 
HETATM   15  C   UNL     1      42.161 -13.054  -1.550  1.00  0.00     0.003 A 
HETATM   16  C   UNL     1      41.887 -13.458  -0.244  1.00  0.00     0.009 A 
BRANCH  13  17
HETATM   17  O   UNL     1      40.787 -15.750  -3.540  1.00  0.00    -0.356 OA
HETATM   18  C   UNL     1      39.402 -15.856  -3.846  1.00  0.00     0.210 C 
ENDBRANCH  13  17
ENDBRANCH   1  11
BRANCH   8  19
HETATM   19  C   UNL     1      43.361 -17.868   2.490  1.00  0.00    -0.035 A 
HETATM   20  C   UNL     1      43.924 -18.159   3.744  1.00  0.00     0.010 A 
HETATM   21  C   UNL     1      44.334 -19.458   4.059  1.00  0.00     0.019 A 
HETATM   22  C   UNL     1      44.170 -20.480   3.127  1.00  0.00     0.011 A 
HETATM   23 BR   UNL     1      44.722 -22.237   3.553  1.00  0.00    -0.051 Br
HETATM   24  C   UNL     1      43.598 -20.217   1.885  1.00  0.00     0.019 A 
HETATM   25  C   UNL     1      43.194 -18.918   1.569  1.00  0.00     0.010 A 
ENDBRANCH   8  19
BRANCH   5  26
HETATM   26  N   UNL     1      41.734 -11.203   4.095  1.00  0.00    -0.229 N 
HETATM   27  H   UNL     1      40.922 -10.981   4.653  1.00  0.00     0.174 HD
HETATM   28  H   UNL     1      42.606 -10.821   4.433  1.00  0.00     0.174 HD
ENDBRANCH   5  26
TORSDOF 4
ENDMDL
MODEL 7
REMARK VINA RESULT:      -7.8      3.696      6.782
REMARK  4 active torsions:
REMARK  status: ('A' for Active; 'I' for Inactive)
REMARK    1  A    between atoms: O_2  and  C_3 
REMARK    2  A    between atoms: C_5  and  C_6 
REMARK    3  A    between atoms: C_10  and  N_11 
REMARK    4  A    between atoms: C_14  and  C_15 
ROOT
HETATM    1  C   UNL     1      40.855 -15.242   2.885  1.00  0.00     0.164 C 
HETATM    2  N   UNL     1      41.366 -14.566   4.070  1.00  0.00    -0.074 N 
HETATM    3  C   UNL     1      42.459 -14.977   4.786  1.00  0.00     0.736 A 
HETATM    4  N   UNL     1      42.680 -14.118   5.747  1.00  0.00     0.131 NA
HETATM    5  C   UNL     1      41.659 -13.225   5.604  1.00  0.00     0.753 A 
HETATM    6  N   UNL     1      40.835 -13.444   4.581  1.00  0.00     0.037 NA
HETATM    7  N   UNL     1      43.127 -16.103   4.460  1.00  0.00    -0.214 N 
HETATM    8  C   UNL     1      42.883 -16.738   3.170  1.00  0.00     0.135 C 
HETATM    9  C   UNL     1      41.379 -16.691   2.841  1.00  0.00     0.063 C 
HETATM   10  H   UNL     1      44.057 -16.219   4.855  1.00  0.00     0.178 HD
ENDROOT
BRANCH   1  11
HETATM   11  C   UNL     1      41.175 -14.497   1.591  1.00  0.00    -0.030 A 
HETATM   12  C   UNL     1      40.881 -15.021   0.315  1.00  0.00     0.046 A 
HETATM   13  C   UNL     1      41.126 -14.278  -0.842  1.00  0.00     0.068 A 
HETATM   14  C   UNL     1      41.683 -13.004  -0.732  1.00  0.00     0.037 A 
HETATM   15  C   UNL     1      41.987 -12.471   0.519  1.00  0.00     0.003 A 
HETATM   16  C   UNL     1      41.730 -13.209   1.673  1.00  0.00     0.009 A 
BRANCH  13  17
HETATM   17  O   UNL     1      40.861 -14.677  -2.124  1.00  0.00    -0.356 OA
HETATM   18  C   UNL     1      41.512 -13.966  -3.170  1.00  0.00     0.210 C 
ENDBRANCH  13  17
ENDBRANCH   1  11
BRANCH   8  19
HETATM   19  C   UNL     1      43.391 -18.169   3.166  1.00  0.00    -0.035 A 
HETATM   20  C   UNL     1      44.093 -18.717   4.253  1.00  0.00     0.010 A 
HETATM   21  C   UNL     1      44.535 -20.042   4.222  1.00  0.00     0.019 A 
HETATM   22  C   UNL     1      44.265 -20.836   3.110  1.00  0.00     0.011 A 
HETATM   23 BR   UNL     1      44.861 -22.630   3.068  1.00  0.00    -0.051 Br
HETATM   24  C   UNL     1      43.555 -20.319   2.029  1.00  0.00     0.019 A 
HETATM   25  C   UNL     1      43.119 -18.992   2.058  1.00  0.00     0.010 A 
ENDBRANCH   8  19
BRANCH   5  26
HETATM   26  N   UNL     1      41.584 -12.203   6.450  1.00  0.00    -0.229 N 
HETATM   27  H   UNL     1      40.876 -12.253   7.169  1.00  0.00     0.174 HD
HETATM   28  H   UNL     1      42.455 -11.776   6.732  1.00  0.00     0.174 HD
ENDBRANCH   5  26
TORSDOF 4
ENDMDL
MODEL 8
REMARK VINA RESULT:      -7.8      4.028      7.271
REMARK  4 active torsions:
REMARK  status: ('A' for Active; 'I' for Inactive)
REMARK    1  A    between atoms: O_2  and  C_3 
REMARK    2  A    between atoms: C_5  and  C_6 
REMARK    3  A    between atoms: C_10  and  N_11 
REMARK    4  A    between atoms: C_14  and  C_15 
ROOT
HETATM    1  C   UNL     1      40.495 -15.338   2.537  1.00  0.00     0.164 C 
HETATM    2  N   UNL     1      41.210 -14.256   3.200  1.00  0.00    -0.074 N 
HETATM    3  C   UNL     1      42.464 -14.371   3.737  1.00  0.00     0.736 A 
HETATM    4  N   UNL     1      42.834 -13.205   4.197  1.00  0.00     0.131 NA
HETATM    5  C   UNL     1      41.744 -12.420   3.961  1.00  0.00     0.753 A 
HETATM    6  N   UNL     1      40.727 -13.011   3.337  1.00  0.00     0.037 NA
HETATM    7  N   UNL     1      43.123 -15.548   3.732  1.00  0.00    -0.214 N 
HETATM    8  C   UNL     1      42.640 -16.642   2.897  1.00  0.00     0.135 C 
HETATM    9  C   UNL     1      41.101 -16.696   2.945  1.00  0.00     0.063 C 
HETATM   10  H   UNL     1      44.125 -15.519   3.906  1.00  0.00     0.178 HD
ENDROOT
BRANCH   1  11
HETATM   11  C   UNL     1      40.454 -15.183   1.019  1.00  0.00    -0.030 A 
HETATM   12  C   UNL     1      39.624 -14.247   0.367  1.00  0.00     0.046 A 
HETATM   13  C   UNL     1      39.669 -14.088  -1.020  1.00  0.00     0.068 A 
HETATM   14  C   UNL     1      40.538 -14.879  -1.771  1.00  0.00     0.037 A 
HETATM   15  C   UNL     1      41.361 -15.814  -1.148  1.00  0.00     0.003 A 
HETATM   16  C   UNL     1      41.325 -15.962   0.237  1.00  0.00     0.009 A 
BRANCH  13  17
HETATM   17  O   UNL     1      38.927 -13.201  -1.750  1.00  0.00    -0.356 OA
HETATM   18  C   UNL     1      37.933 -13.743  -2.612  1.00  0.00     0.210 C 
ENDBRANCH  13  17
ENDBRANCH   1  11
BRANCH   8  19
HETATM   19  C   UNL     1      43.239 -17.967   3.336  1.00  0.00    -0.035 A 
HETATM   20  C   UNL     1      43.565 -18.980   2.419  1.00  0.00     0.010 A 
HETATM   21  C   UNL     1      44.127 -20.183   2.855  1.00  0.00     0.019 A 
HETATM   22  C   UNL     1      44.383 -20.376   4.210  1.00  0.00     0.011 A 
HETATM   23 BR   UNL     1      45.145 -22.002   4.801  1.00  0.00    -0.051 Br
HETATM   24  C   UNL     1      44.084 -19.378   5.134  1.00  0.00     0.019 A 
HETATM   25  C   UNL     1      43.516 -18.178   4.698  1.00  0.00     0.010 A 
ENDBRANCH   8  19
BRANCH   5  26
HETATM   26  N   UNL     1      41.786 -11.143   4.326  1.00  0.00    -0.229 N 
HETATM   27  H   UNL     1      42.136 -10.482   3.646  1.00  0.00     0.174 HD
HETATM   28  H   UNL     1      41.030 -10.806   4.906  1.00  0.00     0.174 HD
ENDBRANCH   5  26
TORSDOF 4
ENDMDL
MODEL 9
REMARK VINA RESULT:      -7.6      4.692      7.827
REMARK  4 active torsions:
REMARK  status: ('A' for Active; 'I' for Inactive)
REMARK    1  A    between atoms: O_2  and  C_3 
REMARK    2  A    between atoms: C_5  and  C_6 
REMARK    3  A    between atoms: C_10  and  N_11 
REMARK    4  A    between atoms: C_14  and  C_15 
ROOT
HETATM    1  C   UNL     1      42.895 -14.660   2.852  1.00  0.00     0.164 C 
HETATM    2  N   UNL     1      42.235 -14.909   1.578  1.00  0.00    -0.074 N 
HETATM    3  C   UNL     1      41.893 -16.150   1.112  1.00  0.00     0.736 A 
HETATM    4  N   UNL     1      41.265 -16.014  -0.027  1.00  0.00     0.131 NA
HETATM    5  C   UNL     1      41.295 -14.667  -0.237  1.00  0.00     0.753 A 
HETATM    6  N   UNL     1      41.863 -13.941   0.724  1.00  0.00     0.037 NA
HETATM    7  N   UNL     1      42.201 -17.267   1.802  1.00  0.00    -0.214 N 
HETATM    8  C   UNL     1      42.636 -17.160   3.190  1.00  0.00     0.135 C 
HETATM    9  C   UNL     1      43.576 -15.950   3.351  1.00  0.00     0.063 C 
HETATM   10  H   UNL     1      41.711 -18.120   1.545  1.00  0.00     0.178 HD
ENDROOT
BRANCH   1  11
HETATM   11  C   UNL     1      41.954 -14.086   3.908  1.00  0.00    -0.030 A 
HETATM   12  C   UNL     1      42.314 -13.014   4.752  1.00  0.00     0.046 A 
HETATM   13  C   UNL     1      41.399 -12.472   5.658  1.00  0.00     0.068 A 
HETATM   14  C   UNL     1      40.115 -13.010   5.737  1.00  0.00     0.037 A 
HETATM   15  C   UNL     1      39.741 -14.074   4.918  1.00  0.00     0.003 A 
HETATM   16  C   UNL     1      40.652 -14.605   4.005  1.00  0.00     0.009 A 
BRANCH  13  17
HETATM   17  O   UNL     1      41.633 -11.424   6.505  1.00  0.00    -0.356 OA
HETATM   18  C   UNL     1      40.525 -10.937   7.253  1.00  0.00     0.210 C 
ENDBRANCH  13  17
ENDBRANCH   1  11
BRANCH   8  19
HETATM   19  C   UNL     1      43.320 -18.437   3.645  1.00  0.00    -0.035 A 
HETATM   20  C   UNL     1      43.559 -18.715   5.002  1.00  0.00     0.010 A 
HETATM   21  C   UNL     1      44.180 -19.906   5.388  1.00  0.00     0.019 A 
HETATM   22  C   UNL     1      44.551 -20.838   4.422  1.00  0.00     0.011 A 
HETATM   23 BR   UNL     1      45.389 -22.450   4.943  1.00  0.00    -0.051 Br
HETATM   24  C   UNL     1      44.307 -20.591   3.073  1.00  0.00     0.019 A 
HETATM   25  C   UNL     1      43.693 -19.397   2.687  1.00  0.00     0.010 A 
ENDBRANCH   8  19
BRANCH   5  26
HETATM   26  N   UNL     1      40.734 -14.181  -1.339  1.00  0.00    -0.229 N 
HETATM   27  H   UNL     1      39.786 -13.842  -1.261  1.00  0.00     0.174 HD
HETATM   28  H   UNL     1      41.330 -13.655  -1.964  1.00  0.00     0.174 HD
ENDBRANCH   5  26
TORSDOF 4
ENDMDL
MODEL 10
REMARK VINA RESULT:      -7.5      3.133      5.052
REMARK  4 active torsions:
REMARK  status: ('A' for Active; 'I' for Inactive)
REMARK    1  A    between atoms: O_2  and  C_3 
REMARK    2  A    between atoms: C_5  and  C_6 
REMARK    3  A    between atoms: C_10  and  N_11 
REMARK    4  A    between atoms: C_14  and  C_15 
ROOT
HETATM    1  C   UNL     1      41.923 -17.986   4.427  1.00  0.00     0.164 C 
HETATM    2  N   UNL     1      42.836 -18.678   3.528  1.00  0.00    -0.074 N 
HETATM    3  C   UNL     1      43.090 -18.297   2.237  1.00  0.00     0.736 A 
HETATM    4  N   UNL     1      43.997 -19.093   1.734  1.00  0.00     0.131 NA
HETATM    5  C   UNL     1      44.228 -19.977   2.747  1.00  0.00     0.753 A 
HETATM    6  N   UNL     1      43.555 -19.758   3.874  1.00  0.00     0.037 NA
HETATM    7  N   UNL     1      42.450 -17.250   1.677  1.00  0.00    -0.214 N 
HETATM    8  C   UNL     1      41.702 -16.326   2.522  1.00  0.00     0.135 C 
HETATM    9  C   UNL     1      40.949 -17.110   3.614  1.00  0.00     0.063 C 
HETATM   10  H   UNL     1      42.852 -16.863   0.827  1.00  0.00     0.178 HD
ENDROOT
BRANCH   1  11
HETATM   11  C   UNL     1      42.645 -17.167   5.495  1.00  0.00    -0.030 A 
HETATM   12  C   UNL     1      43.243 -15.919   5.226  1.00  0.00     0.046 A 
HETATM   13  C   UNL     1      43.833 -15.169   6.247  1.00  0.00     0.068 A 
HETATM   14  C   UNL     1      43.843 -15.672   7.548  1.00  0.00     0.037 A 
HETATM   15  C   UNL     1      43.263 -16.907   7.833  1.00  0.00     0.003 A 
HETATM   16  C   UNL     1      42.664 -17.647   6.815  1.00  0.00     0.009 A 
BRANCH  13  17
HETATM   17  O   UNL     1      44.421 -13.942   6.104  1.00  0.00    -0.356 OA
HETATM   18  C   UNL     1      45.360 -13.554   7.101  1.00  0.00     0.210 C 
ENDBRANCH  13  17
ENDBRANCH   1  11
BRANCH   8  19
HETATM   19  C   UNL     1      40.738 -15.493   1.696  1.00  0.00    -0.035 A 
HETATM   20  C   UNL     1      39.464 -15.136   2.168  1.00  0.00     0.010 A 
HETATM   21  C   UNL     1      38.605 -14.358   1.388  1.00  0.00     0.019 A 
HETATM   22  C   UNL     1      39.020 -13.915   0.134  1.00  0.00     0.011 A 
HETATM   23 BR   UNL     1      37.861 -12.860  -0.922  1.00  0.00    -0.051 Br
HETATM   24  C   UNL     1      40.286 -14.243  -0.346  1.00  0.00     0.019 A 
HETATM   25  C   UNL     1      41.141 -15.027   0.432  1.00  0.00     0.010 A 
ENDBRANCH   8  19
BRANCH   5  26
HETATM   26  N   UNL     1      45.116 -20.948   2.555  1.00  0.00    -0.229 N 
HETATM   27  H   UNL     1      46.057 -20.669   2.317  1.00  0.00     0.174 HD
HETATM   28  H   UNL     1      45.045 -21.759   3.153  1.00  0.00     0.174 HD
ENDBRANCH   5  26
TORSDOF 4
ENDMDL
