MODEL 1
REMARK VINA RESULT:      -9.5      0.000      0.000
REMARK  6 active torsions:
REMARK  status: ('A' for Active; 'I' for Inactive)
REMARK    1  A    between atoms: C_5  and  C_6 
REMARK    2  A    between atoms: C_6  and  S_7 
REMARK    3  A    between atoms: S_7  and  C_8 
REMARK    4  A    between atoms: C_10  and  N_11 
REMARK    5  A    between atoms: C_12  and  N_13 
REMARK       I    between atoms: N_13  and  C_14 
REMARK    6  A    between atoms: C_14  and  C_15 
ROOT
HETATM    1  C   UNL     1      42.210 -16.372   3.528  1.00  0.00     0.171 C 
HETATM    2  N   UNL     1      41.323 -16.129   4.433  1.00  0.00    -0.210 NA
HETATM    3  C   UNL     1      41.630 -15.176   5.380  1.00  0.00     0.136 C 
HETATM    4  C   UNL     1      42.749 -14.412   5.316  1.00  0.00     0.144 C 
HETATM    5  C   UNL     1      43.527 -14.518   4.048  1.00  0.00     0.277 C 
HETATM    6  O   UNL     1      44.134 -13.582   3.538  1.00  0.00    -0.266 OA
HETATM    7  N   UNL     1      43.377 -15.700   3.395  1.00  0.00    -0.300 N 
HETATM    8  H   UNL     1      43.885 -15.811   2.531  1.00  0.00     0.171 HD
ENDROOT
BRANCH   1   9
HETATM    9  S   UNL     1      42.049 -17.588   2.304  1.00  0.00    -0.087 SA
BRANCH   9  10
HETATM   10  C   UNL     1      43.775 -18.095   2.074  1.00  0.00     0.121 C 
BRANCH  10  11
HETATM   11  C   UNL     1      43.970 -19.538   2.500  1.00  0.00    -0.037 A 
HETATM   12  C   UNL     1      44.107 -19.930   3.864  1.00  0.00    -0.019 A 
HETATM   13  C   UNL     1      44.313 -21.303   4.160  1.00  0.00    -0.025 A 
HETATM   14  C   UNL     1      44.058 -19.032   4.958  1.00  0.00     0.013 A 
HETATM   15  C   UNL     1      44.444 -21.728   5.494  1.00  0.00     0.012 A 
HETATM   16  C   UNL     1      44.393 -22.241   3.123  1.00  0.00     0.012 A 
HETATM   17  C   UNL     1      44.381 -20.817   6.547  1.00  0.00     0.001 A 
HETATM   18  C   UNL     1      44.190 -19.470   6.278  1.00  0.00     0.001 A 
HETATM   19  C   UNL     1      44.273 -21.850   1.794  1.00  0.00     0.001 A 
HETATM   20  C   UNL     1      44.065 -20.511   1.485  1.00  0.00     0.009 A 
ENDBRANCH  10  11
ENDBRANCH   9  10
ENDBRANCH   1   9
BRANCH   3  21
HETATM   21  N   UNL     1      40.753 -15.045   6.450  1.00  0.00    -0.285 NA
HETATM   22  H   UNL     1      39.886 -15.516   6.192  1.00  0.00     0.125 HD
HETATM   23  H   UNL     1      40.550 -14.063   6.628  1.00  0.00     0.125 HD
ENDBRANCH   3  21
BRANCH   4  24
HETATM   24  N   UNL     1      43.114 -13.575   6.355  1.00  0.00    -0.314 N 
HETATM   25  C   UNL     1      44.294 -13.627   7.075  1.00  0.00     0.280 C 
HETATM   26  O   UNL     1      45.175 -14.465   6.915  1.00  0.00    -0.265 OA
HETATM   27  H   UNL     1      42.369 -13.031   6.777  1.00  0.00     0.169 HD
BRANCH  25  28
HETATM   28  C   UNL     1      44.374 -12.633   8.127  1.00  0.00     0.144 A 
HETATM   29  O   UNL     1      43.269 -11.886   8.446  1.00  0.00    -0.298 OA
HETATM   30  C   UNL     1      43.621 -11.078   9.485  1.00  0.00     0.122 A 
HETATM   31 BR   UNL     1      42.459  -9.883  10.321  1.00  0.00    -0.023 Br
HETATM   32  C   UNL     1      44.939 -11.277   9.826  1.00  0.00     0.048 A 
HETATM   33  C   UNL     1      45.425 -12.280   8.954  1.00  0.00     0.046 A 
ENDBRANCH  25  28
ENDBRANCH   4  24
TORSDOF 6
ENDMDL
MODEL 2
REMARK VINA RESULT:      -9.3      5.888      7.740
REMARK  6 active torsions:
REMARK  status: ('A' for Active; 'I' for Inactive)
REMARK    1  A    between atoms: C_5  and  C_6 
REMARK    2  A    between atoms: C_6  and  S_7 
REMARK    3  A    between atoms: S_7  and  C_8 
REMARK    4  A    between atoms: C_10  and  N_11 
REMARK    5  A    between atoms: C_12  and  N_13 
REMARK       I    between atoms: N_13  and  C_14 
REMARK    6  A    between atoms: C_14  and  C_15 
ROOT
HETATM    1  C   UNL     1      41.176 -15.467   0.997  1.00  0.00     0.171 C 
HETATM    2  N   UNL     1      41.703 -14.414   1.524  1.00  0.00    -0.210 NA
HETATM    3  C   UNL     1      41.798 -13.291   0.731  1.00  0.00     0.136 C 
HETATM    4  C   UNL     1      41.252 -13.219  -0.509  1.00  0.00     0.144 C 
HETATM    5  C   UNL     1      40.361 -14.354  -0.885  1.00  0.00     0.277 C 
HETATM    6  O   UNL     1      39.365 -14.237  -1.590  1.00  0.00    -0.266 OA
HETATM    7  N   UNL     1      40.638 -15.520  -0.244  1.00  0.00    -0.300 N 
HETATM    8  H   UNL     1      40.056 -16.313  -0.468  1.00  0.00     0.171 HD
ENDROOT
BRANCH   1   9
HETATM    9  S   UNL     1      41.042 -16.998   1.798  1.00  0.00    -0.087 SA
BRANCH   9  10
HETATM   10  C   UNL     1      42.644 -17.751   1.405  1.00  0.00     0.121 C 
BRANCH  10  11
HETATM   11  C   UNL     1      43.315 -18.271   2.662  1.00  0.00    -0.037 A 
HETATM   12  C   UNL     1      43.744 -19.623   2.808  1.00  0.00    -0.019 A 
HETATM   13  C   UNL     1      44.338 -20.021   4.034  1.00  0.00    -0.025 A 
HETATM   14  C   UNL     1      43.610 -20.611   1.802  1.00  0.00     0.013 A 
HETATM   15  C   UNL     1      44.780 -21.344   4.210  1.00  0.00     0.012 A 
HETATM   16  C   UNL     1      44.481 -19.096   5.077  1.00  0.00     0.012 A 
HETATM   17  C   UNL     1      44.641 -22.288   3.196  1.00  0.00     0.001 A 
HETATM   18  C   UNL     1      44.054 -21.922   1.993  1.00  0.00     0.001 A 
HETATM   19  C   UNL     1      44.047 -17.783   4.934  1.00  0.00     0.001 A 
HETATM   20  C   UNL     1      43.469 -17.374   3.738  1.00  0.00     0.009 A 
ENDBRANCH  10  11
ENDBRANCH   9  10
ENDBRANCH   1   9
BRANCH   3  21
HETATM   21  N   UNL     1      42.523 -12.220   1.239  1.00  0.00    -0.285 NA
HETATM   22  H   UNL     1      42.228 -12.086   2.207  1.00  0.00     0.125 HD
HETATM   23  H   UNL     1      42.320 -11.370   0.716  1.00  0.00     0.125 HD
ENDBRANCH   3  21
BRANCH   4  24
HETATM   24  N   UNL     1      41.494 -12.144  -1.345  1.00  0.00    -0.314 N 
HETATM   25  C   UNL     1      42.391 -12.108  -2.397  1.00  0.00     0.280 C 
HETATM   26  O   UNL     1      43.139 -13.027  -2.711  1.00  0.00    -0.265 OA
HETATM   27  H   UNL     1      41.162 -11.241  -1.023  1.00  0.00     0.169 HD
BRANCH  25  28
HETATM   28  C   UNL     1      42.442 -10.824  -3.070  1.00  0.00     0.144 A 
HETATM   29  O   UNL     1      42.390 -10.769  -4.439  1.00  0.00    -0.298 OA
HETATM   30  C   UNL     1      42.411  -9.452  -4.785  1.00  0.00     0.122 A 
HETATM   31 BR   UNL     1      42.323  -8.830  -6.541  1.00  0.00    -0.023 Br
HETATM   32  C   UNL     1      42.497  -8.659  -3.664  1.00  0.00     0.048 A 
HETATM   33  C   UNL     1      42.514  -9.542  -2.558  1.00  0.00     0.046 A 
ENDBRANCH  25  28
ENDBRANCH   4  24
TORSDOF 6
ENDMDL
MODEL 3
REMARK VINA RESULT:      -9.2      2.667      3.689
REMARK  6 active torsions:
REMARK  status: ('A' for Active; 'I' for Inactive)
REMARK    1  A    between atoms: C_5  and  C_6 
REMARK    2  A    between atoms: C_6  and  S_7 
REMARK    3  A    between atoms: S_7  and  C_8 
REMARK    4  A    between atoms: C_10  and  N_11 
REMARK    5  A    between atoms: C_12  and  N_13 
REMARK       I    between atoms: N_13  and  C_14 
REMARK    6  A    between atoms: C_14  and  C_15 
ROOT
HETATM    1  C   UNL     1      41.227 -15.812   3.287  1.00  0.00     0.171 C 
HETATM    2  N   UNL     1      41.860 -14.707   3.082  1.00  0.00    -0.210 NA
HETATM    3  C   UNL     1      41.785 -13.744   4.063  1.00  0.00     0.136 C 
HETATM    4  C   UNL     1      41.191 -13.962   5.263  1.00  0.00     0.144 C 
HETATM    5  C   UNL     1      40.806 -15.376   5.541  1.00  0.00     0.277 C 
HETATM    6  O   UNL     1      40.843 -15.890   6.653  1.00  0.00    -0.266 OA
HETATM    7  N   UNL     1      40.568 -16.121   4.429  1.00  0.00    -0.300 N 
HETATM    8  H   UNL     1      40.308 -17.084   4.573  1.00  0.00     0.171 HD
ENDROOT
BRANCH   1   9
HETATM    9  S   UNL     1      41.130 -17.110   2.143  1.00  0.00    -0.087 SA
BRANCH   9  10
HETATM   10  C   UNL     1      42.884 -17.422   1.804  1.00  0.00     0.121 C 
BRANCH  10  11
HETATM   11  C   UNL     1      43.523 -18.187   2.948  1.00  0.00    -0.037 A 
HETATM   12  C   UNL     1      43.823 -19.579   2.875  1.00  0.00    -0.019 A 
HETATM   13  C   UNL     1      44.398 -20.212   4.008  1.00  0.00    -0.025 A 
HETATM   14  C   UNL     1      43.578 -20.386   1.737  1.00  0.00     0.013 A 
HETATM   15  C   UNL     1      44.714 -21.581   3.970  1.00  0.00     0.012 A 
HETATM   16  C   UNL     1      44.646 -19.474   5.174  1.00  0.00     0.012 A 
HETATM   17  C   UNL     1      44.468 -22.343   2.830  1.00  0.00     0.001 A 
HETATM   18  C   UNL     1      43.898 -21.746   1.716  1.00  0.00     0.001 A 
HETATM   19  C   UNL     1      44.338 -18.120   5.243  1.00  0.00     0.001 A 
HETATM   20  C   UNL     1      43.781 -17.482   4.140  1.00  0.00     0.009 A 
ENDBRANCH  10  11
ENDBRANCH   9  10
ENDBRANCH   1   9
BRANCH   3  21
HETATM   21  N   UNL     1      42.317 -12.495   3.764  1.00  0.00    -0.285 NA
HETATM   22  H   UNL     1      42.232 -12.363   2.756  1.00  0.00     0.125 HD
HETATM   23  H   UNL     1      43.303 -12.456   4.016  1.00  0.00     0.125 HD
ENDBRANCH   3  21
BRANCH   4  24
HETATM   24  N   UNL     1      40.990 -12.937   6.169  1.00  0.00    -0.314 N 
HETATM   25  C   UNL     1      39.783 -12.331   6.468  1.00  0.00     0.280 C 
HETATM   26  O   UNL     1      38.714 -12.598   5.930  1.00  0.00    -0.265 OA
HETATM   27  H   UNL     1      41.818 -12.432   6.467  1.00  0.00     0.169 HD
BRANCH  25  28
HETATM   28  C   UNL     1      39.898 -11.261   7.440  1.00  0.00     0.144 A 
HETATM   29  O   UNL     1      38.879 -11.035   8.330  1.00  0.00    -0.298 OA
HETATM   30  C   UNL     1      39.277 -10.014   9.138  1.00  0.00     0.122 A 
HETATM   31 BR   UNL     1      38.260  -9.340  10.549  1.00  0.00    -0.023 Br
HETATM   32  C   UNL     1      40.524  -9.563   8.771  1.00  0.00     0.048 A 
HETATM   33  C   UNL     1      40.926 -10.368   7.678  1.00  0.00     0.046 A 
ENDBRANCH  25  28
ENDBRANCH   4  24
TORSDOF 6
ENDMDL
MODEL 4
REMARK VINA RESULT:      -9.0      1.551      2.762
REMARK  6 active torsions:
REMARK  status: ('A' for Active; 'I' for Inactive)
REMARK    1  A    between atoms: C_5  and  C_6 
REMARK    2  A    between atoms: C_6  and  S_7 
REMARK    3  A    between atoms: S_7  and  C_8 
REMARK    4  A    between atoms: C_10  and  N_11 
REMARK    5  A    between atoms: C_12  and  N_13 
REMARK       I    between atoms: N_13  and  C_14 
REMARK    6  A    between atoms: C_14  and  C_15 
ROOT
HETATM    1  C   UNL     1      41.715 -15.927   3.826  1.00  0.00     0.171 C 
HETATM    2  N   UNL     1      40.595 -15.530   4.330  1.00  0.00    -0.210 NA
HETATM    3  C   UNL     1      40.642 -14.499   5.242  1.00  0.00     0.136 C 
HETATM    4  C   UNL     1      41.781 -13.817   5.522  1.00  0.00     0.144 C 
HETATM    5  C   UNL     1      42.940 -14.111   4.631  1.00  0.00     0.277 C 
HETATM    6  O   UNL     1      43.775 -13.277   4.298  1.00  0.00    -0.266 OA
HETATM    7  N   UNL     1      42.915 -15.347   4.067  1.00  0.00    -0.300 N 
HETATM    8  H   UNL     1      43.680 -15.584   3.454  1.00  0.00     0.171 HD
ENDROOT
BRANCH   1   9
HETATM    9  S   UNL     1      41.877 -17.258   2.730  1.00  0.00    -0.087 SA
BRANCH   9  10
HETATM   10  C   UNL     1      43.660 -17.581   2.818  1.00  0.00     0.121 C 
BRANCH  10  11
HETATM   11  C   UNL     1      43.960 -18.653   3.849  1.00  0.00    -0.037 A 
HETATM   12  C   UNL     1      44.195 -20.016   3.501  1.00  0.00    -0.019 A 
HETATM   13  C   UNL     1      44.442 -20.950   4.541  1.00  0.00    -0.025 A 
HETATM   14  C   UNL     1      44.192 -20.509   2.174  1.00  0.00     0.013 A 
HETATM   15  C   UNL     1      44.685 -22.301   4.236  1.00  0.00     0.012 A 
HETATM   16  C   UNL     1      44.439 -20.531   5.878  1.00  0.00     0.012 A 
HETATM   17  C   UNL     1      44.684 -22.751   2.917  1.00  0.00     0.001 A 
HETATM   18  C   UNL     1      44.435 -21.855   1.887  1.00  0.00     0.001 A 
HETATM   19  C   UNL     1      44.194 -19.203   6.210  1.00  0.00     0.001 A 
HETATM   20  C   UNL     1      43.957 -18.272   5.205  1.00  0.00     0.009 A 
ENDBRANCH  10  11
ENDBRANCH   9  10
ENDBRANCH   1   9
BRANCH   3  21
HETATM   21  N   UNL     1      39.462 -14.196   5.912  1.00  0.00    -0.285 NA
HETATM   22  H   UNL     1      39.556 -14.547   6.865  1.00  0.00     0.125 HD
HETATM   23  H   UNL     1      38.671 -14.659   5.469  1.00  0.00     0.125 HD
ENDBRANCH   3  21
BRANCH   4  24
HETATM   24  N   UNL     1      41.838 -12.894   6.551  1.00  0.00    -0.314 N 
HETATM   25  C   UNL     1      41.641 -11.530   6.441  1.00  0.00     0.280 C 
HETATM   26  O   UNL     1      41.426 -10.936   5.389  1.00  0.00    -0.265 OA
HETATM   27  H   UNL     1      42.285 -13.203   7.407  1.00  0.00     0.169 HD
BRANCH  25  28
HETATM   28  C   UNL     1      41.797 -10.820   7.695  1.00  0.00     0.144 A 
HETATM   29  O   UNL     1      42.821 -11.152   8.545  1.00  0.00    -0.298 OA
HETATM   30  C   UNL     1      42.750 -10.302   9.606  1.00  0.00     0.122 A 
HETATM   31 BR   UNL     1      43.946 -10.313  11.037  1.00  0.00    -0.023 Br
HETATM   32  C   UNL     1      41.685  -9.442   9.466  1.00  0.00     0.048 A 
HETATM   33  C   UNL     1      41.072  -9.773   8.234  1.00  0.00     0.046 A 
ENDBRANCH  25  28
ENDBRANCH   4  24
TORSDOF 6
ENDMDL
MODEL 5
REMARK VINA RESULT:      -8.7      3.193      4.013
REMARK  6 active torsions:
REMARK  status: ('A' for Active; 'I' for Inactive)
REMARK    1  A    between atoms: C_5  and  C_6 
REMARK    2  A    between atoms: C_6  and  S_7 
REMARK    3  A    between atoms: S_7  and  C_8 
REMARK    4  A    between atoms: C_10  and  N_11 
REMARK    5  A    between atoms: C_12  and  N_13 
REMARK       I    between atoms: N_13  and  C_14 
REMARK    6  A    between atoms: C_14  and  C_15 
ROOT
HETATM    1  C   UNL     1      42.355 -16.337   6.433  1.00  0.00     0.171 C 
HETATM    2  N   UNL     1      41.165 -16.181   5.960  1.00  0.00    -0.210 NA
HETATM    3  C   UNL     1      40.776 -14.899   5.638  1.00  0.00     0.136 C 
HETATM    4  C   UNL     1      41.626 -13.842   5.678  1.00  0.00     0.144 C 
HETATM    5  C   UNL     1      43.063 -14.181   5.890  1.00  0.00     0.277 C 
HETATM    6  O   UNL     1      43.993 -13.561   5.386  1.00  0.00    -0.266 OA
HETATM    7  N   UNL     1      43.271 -15.348   6.554  1.00  0.00    -0.300 N 
HETATM    8  H   UNL     1      44.230 -15.615   6.715  1.00  0.00     0.171 HD
ENDROOT
BRANCH   1   9
HETATM    9  S   UNL     1      43.001 -17.852   6.973  1.00  0.00    -0.087 SA
BRANCH   9  10
HETATM   10  C   UNL     1      44.526 -17.959   5.999  1.00  0.00     0.121 C 
BRANCH  10  11
HETATM   11  C   UNL     1      44.238 -18.495   4.609  1.00  0.00    -0.037 A 
HETATM   12  C   UNL     1      44.371 -19.873   4.268  1.00  0.00    -0.019 A 
HETATM   13  C   UNL     1      44.102 -20.273   2.932  1.00  0.00    -0.025 A 
HETATM   14  C   UNL     1      44.763 -20.883   5.180  1.00  0.00     0.013 A 
HETATM   15  C   UNL     1      44.216 -21.624   2.562  1.00  0.00     0.012 A 
HETATM   16  C   UNL     1      43.730 -19.319   1.975  1.00  0.00     0.012 A 
HETATM   17  C   UNL     1      44.595 -22.593   3.487  1.00  0.00     0.001 A 
HETATM   18  C   UNL     1      44.871 -22.222   4.795  1.00  0.00     0.001 A 
HETATM   19  C   UNL     1      43.617 -17.975   2.311  1.00  0.00     0.001 A 
HETATM   20  C   UNL     1      43.869 -17.566   3.616  1.00  0.00     0.009 A 
ENDBRANCH  10  11
ENDBRANCH   9  10
ENDBRANCH   1   9
BRANCH   3  21
HETATM   21  N   UNL     1      39.441 -14.711   5.300  1.00  0.00    -0.285 NA
HETATM   22  H   UNL     1      38.948 -15.577   5.517  1.00  0.00     0.125 HD
HETATM   23  H   UNL     1      39.348 -14.524   4.303  1.00  0.00     0.125 HD
ENDBRANCH   3  21
BRANCH   4  24
HETATM   24  N   UNL     1      41.177 -12.545   5.503  1.00  0.00    -0.314 N 
HETATM   25  C   UNL     1      40.275 -11.874   6.308  1.00  0.00     0.280 C 
HETATM   26  O   UNL     1      39.708 -12.360   7.281  1.00  0.00    -0.265 OA
HETATM   27  H   UNL     1      41.338 -12.133   4.590  1.00  0.00     0.169 HD
BRANCH  25  28
HETATM   28  C   UNL     1      39.977 -10.531   5.848  1.00  0.00     0.144 A 
HETATM   29  O   UNL     1      38.814  -9.918   6.239  1.00  0.00    -0.298 OA
HETATM   30  C   UNL     1      38.822  -8.668   5.699  1.00  0.00     0.122 A 
HETATM   31 BR   UNL     1      37.474  -7.407   5.961  1.00  0.00    -0.023 Br
HETATM   32  C   UNL     1      39.960  -8.473   4.950  1.00  0.00     0.048 A 
HETATM   33  C   UNL     1      40.706  -9.672   5.047  1.00  0.00     0.046 A 
ENDBRANCH  25  28
ENDBRANCH   4  24
TORSDOF 6
ENDMDL
MODEL 6
REMARK VINA RESULT:      -8.7      3.767      9.042
REMARK  6 active torsions:
REMARK  status: ('A' for Active; 'I' for Inactive)
REMARK    1  A    between atoms: C_5  and  C_6 
REMARK    2  A    between atoms: C_6  and  S_7 
REMARK    3  A    between atoms: S_7  and  C_8 
REMARK    4  A    between atoms: C_10  and  N_11 
REMARK    5  A    between atoms: C_12  and  N_13 
REMARK       I    between atoms: N_13  and  C_14 
REMARK    6  A    between atoms: C_14  and  C_15 
ROOT
HETATM    1  C   UNL     1      41.075 -13.029   5.893  1.00  0.00     0.171 C 
HETATM    2  N   UNL     1      40.365 -14.087   6.096  1.00  0.00    -0.210 NA
HETATM    3  C   UNL     1      40.981 -15.306   5.916  1.00  0.00     0.136 C 
HETATM    4  C   UNL     1      42.309 -15.429   5.666  1.00  0.00     0.144 C 
HETATM    5  C   UNL     1      43.106 -14.175   5.805  1.00  0.00     0.277 C 
HETATM    6  O   UNL     1      44.260 -14.141   6.217  1.00  0.00    -0.266 OA
HETATM    7  N   UNL     1      42.397 -13.034   5.600  1.00  0.00    -0.300 N 
HETATM    8  H   UNL     1      42.899 -12.164   5.688  1.00  0.00     0.171 HD
ENDROOT
BRANCH   1   9
HETATM    9  S   UNL     1      40.466 -11.410   5.986  1.00  0.00    -0.087 SA
BRANCH   9  10
HETATM   10  C   UNL     1      41.737 -10.605   6.997  1.00  0.00     0.121 C 
BRANCH  10  11
HETATM   11  C   UNL     1      41.346 -10.622   8.463  1.00  0.00    -0.037 A 
HETATM   12  C   UNL     1      42.303 -10.689   9.518  1.00  0.00    -0.019 A 
HETATM   13  C   UNL     1      41.836 -10.725  10.859  1.00  0.00    -0.025 A 
HETATM   14  C   UNL     1      43.704 -10.728   9.319  1.00  0.00     0.013 A 
HETATM   15  C   UNL     1      42.750 -10.784  11.925  1.00  0.00     0.012 A 
HETATM   16  C   UNL     1      40.460 -10.711  11.124  1.00  0.00     0.012 A 
HETATM   17  C   UNL     1      44.124 -10.811  11.693  1.00  0.00     0.001 A 
HETATM   18  C   UNL     1      44.600 -10.786  10.390  1.00  0.00     0.001 A 
HETATM   19  C   UNL     1      39.533 -10.661  10.090  1.00  0.00     0.001 A 
HETATM   20  C   UNL     1      39.971 -10.617   8.771  1.00  0.00     0.009 A 
ENDBRANCH  10  11
ENDBRANCH   9  10
ENDBRANCH   1   9
BRANCH   3  21
HETATM   21  N   UNL     1      40.171 -16.435   5.960  1.00  0.00    -0.285 NA
HETATM   22  H   UNL     1      40.620 -17.153   5.392  1.00  0.00     0.125 HD
HETATM   23  H   UNL     1      39.254 -16.233   5.566  1.00  0.00     0.125 HD
ENDBRANCH   3  21
BRANCH   4  24
HETATM   24  N   UNL     1      42.875 -16.646   5.335  1.00  0.00    -0.314 N 
HETATM   25  C   UNL     1      43.299 -17.039   4.079  1.00  0.00     0.280 C 
HETATM   26  O   UNL     1      43.191 -16.364   3.061  1.00  0.00    -0.265 OA
HETATM   27  H   UNL     1      42.758 -17.394   6.010  1.00  0.00     0.169 HD
BRANCH  25  28
HETATM   28  C   UNL     1      43.822 -18.391   4.041  1.00  0.00     0.144 A 
HETATM   29  O   UNL     1      43.611 -19.174   2.935  1.00  0.00    -0.298 OA
HETATM   30  C   UNL     1      44.245 -20.359   3.160  1.00  0.00     0.122 A 
HETATM   31 BR   UNL     1      44.293 -21.767   1.938  1.00  0.00    -0.023 Br
HETATM   32  C   UNL     1      44.841 -20.361   4.400  1.00  0.00     0.048 A 
HETATM   33  C   UNL     1      44.571 -19.092   4.968  1.00  0.00     0.046 A 
ENDBRANCH  25  28
ENDBRANCH   4  24
TORSDOF 6
ENDMDL
MODEL 7
REMARK VINA RESULT:      -8.7      5.717      7.338
REMARK  6 active torsions:
REMARK  status: ('A' for Active; 'I' for Inactive)
REMARK    1  A    between atoms: C_5  and  C_6 
REMARK    2  A    between atoms: C_6  and  S_7 
REMARK    3  A    between atoms: S_7  and  C_8 
REMARK    4  A    between atoms: C_10  and  N_11 
REMARK    5  A    between atoms: C_12  and  N_13 
REMARK       I    between atoms: N_13  and  C_14 
REMARK    6  A    between atoms: C_14  and  C_15 
ROOT
HETATM    1  C   UNL     1      41.688 -15.923   0.786  1.00  0.00     0.171 C 
HETATM    2  N   UNL     1      41.980 -14.862   1.460  1.00  0.00    -0.210 NA
HETATM    3  C   UNL     1      41.985 -13.663   0.781  1.00  0.00     0.136 C 
HETATM    4  C   UNL     1      41.577 -13.547  -0.508  1.00  0.00     0.144 C 
HETATM    5  C   UNL     1      40.924 -14.757  -1.085  1.00  0.00     0.277 C 
HETATM    6  O   UNL     1      40.006 -14.716  -1.898  1.00  0.00    -0.266 OA
HETATM    7  N   UNL     1      41.307 -15.928  -0.513  1.00  0.00    -0.300 N 
HETATM    8  H   UNL     1      40.886 -16.771  -0.873  1.00  0.00     0.171 HD
ENDROOT
BRANCH   1   9
HETATM    9  S   UNL     1      41.707 -17.529   1.435  1.00  0.00    -0.087 SA
BRANCH   9  10
HETATM   10  C   UNL     1      43.475 -17.925   1.361  1.00  0.00     0.121 C 
BRANCH  10  11
HETATM   11  C   UNL     1      43.794 -19.119   2.240  1.00  0.00    -0.037 A 
HETATM   12  C   UNL     1      44.014 -19.009   3.645  1.00  0.00    -0.019 A 
HETATM   13  C   UNL     1      44.333 -20.182   4.378  1.00  0.00    -0.025 A 
HETATM   14  C   UNL     1      43.942 -17.794   4.367  1.00  0.00     0.013 A 
HETATM   15  C   UNL     1      44.549 -20.113   5.765  1.00  0.00     0.012 A 
HETATM   16  C   UNL     1      44.440 -21.415   3.719  1.00  0.00     0.012 A 
HETATM   17  C   UNL     1      44.461 -18.901   6.446  1.00  0.00     0.001 A 
HETATM   18  C   UNL     1      44.160 -17.741   5.746  1.00  0.00     0.001 A 
HETATM   19  C   UNL     1      44.239 -21.512   2.347  1.00  0.00     0.001 A 
HETATM   20  C   UNL     1      43.920 -20.375   1.614  1.00  0.00     0.009 A 
ENDBRANCH  10  11
ENDBRANCH   9  10
ENDBRANCH   1   9
BRANCH   3  21
HETATM   21  N   UNL     1      42.471 -12.554   1.464  1.00  0.00    -0.285 NA
HETATM   22  H   UNL     1      42.124 -12.611   2.421  1.00  0.00     0.125 HD
HETATM   23  H   UNL     1      42.124 -11.695   1.042  1.00  0.00     0.125 HD
ENDBRANCH   3  21
BRANCH   4  24
HETATM   24  N   UNL     1      41.738 -12.369  -1.215  1.00  0.00    -0.314 N 
HETATM   25  C   UNL     1      42.522 -12.189  -2.340  1.00  0.00     0.280 C 
HETATM   26  O   UNL     1      43.226 -13.054  -2.849  1.00  0.00    -0.265 OA
HETATM   27  H   UNL     1      41.449 -11.519  -0.743  1.00  0.00     0.169 HD
BRANCH  25  28
HETATM   28  C   UNL     1      42.512 -10.827  -2.839  1.00  0.00     0.144 A 
HETATM   29  O   UNL     1      42.486 -10.596  -4.191  1.00  0.00    -0.298 OA
HETATM   30  C   UNL     1      42.437  -9.246  -4.362  1.00  0.00     0.122 A 
HETATM   31 BR   UNL     1      42.350  -8.405  -6.025  1.00  0.00    -0.023 Br
HETATM   32  C   UNL     1      42.453  -8.603  -3.146  1.00  0.00     0.048 A 
HETATM   33  C   UNL     1      42.499  -9.621  -2.164  1.00  0.00     0.046 A 
ENDBRANCH  25  28
ENDBRANCH   4  24
TORSDOF 6
ENDMDL
MODEL 8
REMARK VINA RESULT:      -8.6      3.180      4.092
REMARK  6 active torsions:
REMARK  status: ('A' for Active; 'I' for Inactive)
REMARK    1  A    between atoms: C_5  and  C_6 
REMARK    2  A    between atoms: C_6  and  S_7 
REMARK    3  A    between atoms: S_7  and  C_8 
REMARK    4  A    between atoms: C_10  and  N_11 
REMARK    5  A    between atoms: C_12  and  N_13 
REMARK       I    between atoms: N_13  and  C_14 
REMARK    6  A    between atoms: C_14  and  C_15 
ROOT
HETATM    1  C   UNL     1      41.157 -15.744   2.496  1.00  0.00     0.171 C 
HETATM    2  N   UNL     1      41.962 -14.792   2.162  1.00  0.00    -0.210 NA
HETATM    3  C   UNL     1      41.777 -13.567   2.765  1.00  0.00     0.136 C 
HETATM    4  C   UNL     1      40.885 -13.370   3.768  1.00  0.00     0.144 C 
HETATM    5  C   UNL     1      40.261 -14.605   4.325  1.00  0.00     0.277 C 
HETATM    6  O   UNL     1      39.957 -14.746   5.504  1.00  0.00    -0.266 OA
HETATM    7  N   UNL     1      40.205 -15.646   3.453  1.00  0.00    -0.300 N 
HETATM    8  H   UNL     1      39.793 -16.502   3.791  1.00  0.00     0.171 HD
ENDROOT
BRANCH   1   9
HETATM    9  S   UNL     1      41.172 -17.327   1.793  1.00  0.00    -0.087 SA
BRANCH   9  10
HETATM   10  C   UNL     1      42.950 -17.611   1.584  1.00  0.00     0.121 C 
BRANCH  10  11
HETATM   11  C   UNL     1      43.533 -18.282   2.813  1.00  0.00    -0.037 A 
HETATM   12  C   UNL     1      43.865 -19.669   2.854  1.00  0.00    -0.019 A 
HETATM   13  C   UNL     1      44.382 -20.210   4.060  1.00  0.00    -0.025 A 
HETATM   14  C   UNL     1      43.706 -20.556   1.762  1.00  0.00     0.013 A 
HETATM   15  C   UNL     1      44.727 -21.571   4.135  1.00  0.00     0.012 A 
HETATM   16  C   UNL     1      44.544 -19.390   5.185  1.00  0.00     0.012 A 
HETATM   17  C   UNL     1      44.566 -22.414   3.037  1.00  0.00     0.001 A 
HETATM   18  C   UNL     1      44.054 -21.906   1.852  1.00  0.00     0.001 A 
HETATM   19  C   UNL     1      44.205 -18.042   5.143  1.00  0.00     0.001 A 
HETATM   20  C   UNL     1      43.704 -17.494   3.968  1.00  0.00     0.009 A 
ENDBRANCH  10  11
ENDBRANCH   9  10
ENDBRANCH   1   9
BRANCH   3  21
HETATM   21  N   UNL     1      42.526 -12.504   2.276  1.00  0.00    -0.285 NA
HETATM   22  H   UNL     1      42.901 -12.787   1.370  1.00  0.00     0.125 HD
HETATM   23  H   UNL     1      43.304 -12.297   2.900  1.00  0.00     0.125 HD
ENDBRANCH   3  21
BRANCH   4  24
HETATM   24  N   UNL     1      40.606 -12.104   4.250  1.00  0.00    -0.314 N 
HETATM   25  C   UNL     1      41.153 -11.515   5.376  1.00  0.00     0.280 C 
HETATM   26  O   UNL     1      41.944 -12.062   6.137  1.00  0.00    -0.265 OA
HETATM   27  H   UNL     1      39.768 -11.661   3.889  1.00  0.00     0.169 HD
BRANCH  25  28
HETATM   28  C   UNL     1      40.637 -10.187   5.643  1.00  0.00     0.144 A 
HETATM   29  O   UNL     1      39.319  -9.904   5.395  1.00  0.00    -0.298 OA
HETATM   30  C   UNL     1      39.110  -8.614   5.777  1.00  0.00     0.122 A 
HETATM   31 BR   UNL     1      37.461  -7.747   5.678  1.00  0.00    -0.023 Br
HETATM   32  C   UNL     1      40.275  -8.053   6.245  1.00  0.00     0.048 A 
HETATM   33  C   UNL     1      41.260  -9.067   6.162  1.00  0.00     0.046 A 
ENDBRANCH  25  28
ENDBRANCH   4  24
TORSDOF 6
ENDMDL
MODEL 9
REMARK VINA RESULT:      -8.6      5.835      8.306
REMARK  6 active torsions:
REMARK  status: ('A' for Active; 'I' for Inactive)
REMARK    1  A    between atoms: C_5  and  C_6 
REMARK    2  A    between atoms: C_6  and  S_7 
REMARK    3  A    between atoms: S_7  and  C_8 
REMARK    4  A    between atoms: C_10  and  N_11 
REMARK    5  A    between atoms: C_12  and  N_13 
REMARK       I    between atoms: N_13  and  C_14 
REMARK    6  A    between atoms: C_14  and  C_15 
ROOT
HETATM    1  C   UNL     1      42.030 -14.426   2.111  1.00  0.00     0.171 C 
HETATM    2  N   UNL     1      42.063 -13.372   1.368  1.00  0.00    -0.210 NA
HETATM    3  C   UNL     1      41.079 -13.241   0.413  1.00  0.00     0.136 C 
HETATM    4  C   UNL     1      40.030 -14.096   0.317  1.00  0.00     0.144 C 
HETATM    5  C   UNL     1      39.889 -15.068   1.440  1.00  0.00     0.277 C 
HETATM    6  O   UNL     1      38.812 -15.462   1.873  1.00  0.00    -0.266 OA
HETATM    7  N   UNL     1      41.054 -15.364   2.074  1.00  0.00    -0.300 N 
HETATM    8  H   UNL     1      41.002 -16.015   2.842  1.00  0.00     0.171 HD
ENDROOT
BRANCH   1   9
HETATM    9  S   UNL     1      43.220 -14.814   3.310  1.00  0.00    -0.087 SA
BRANCH   9  10
HETATM   10  C   UNL     1      42.362 -16.094   4.266  1.00  0.00     0.121 C 
BRANCH  10  11
HETATM   11  C   UNL     1      43.322 -17.200   4.663  1.00  0.00    -0.037 A 
HETATM   12  C   UNL     1      43.535 -18.362   3.865  1.00  0.00    -0.019 A 
HETATM   13  C   UNL     1      44.435 -19.354   4.335  1.00  0.00    -0.025 A 
HETATM   14  C   UNL     1      42.899 -18.602   2.623  1.00  0.00     0.013 A 
HETATM   15  C   UNL     1      44.676 -20.510   3.572  1.00  0.00     0.012 A 
HETATM   16  C   UNL     1      45.083 -19.189   5.567  1.00  0.00     0.012 A 
HETATM   17  C   UNL     1      44.039 -20.709   2.349  1.00  0.00     0.001 A 
HETATM   18  C   UNL     1      43.149 -19.756   1.877  1.00  0.00     0.001 A 
HETATM   19  C   UNL     1      44.858 -18.059   6.347  1.00  0.00     0.001 A 
HETATM   20  C   UNL     1      43.986 -17.074   5.899  1.00  0.00     0.009 A 
ENDBRANCH  10  11
ENDBRANCH   9  10
ENDBRANCH   1   9
BRANCH   3  21
HETATM   21  N   UNL     1      41.219 -12.201  -0.498  1.00  0.00    -0.285 NA
HETATM   22  H   UNL     1      40.696 -12.459  -1.336  1.00  0.00     0.125 HD
HETATM   23  H   UNL     1      42.197 -12.076  -0.751  1.00  0.00     0.125 HD
ENDBRANCH   3  21
BRANCH   4  24
HETATM   24  N   UNL     1      39.142 -14.038  -0.742  1.00  0.00    -0.314 N 
HETATM   25  C   UNL     1      39.325 -14.590  -1.997  1.00  0.00     0.280 C 
HETATM   26  O   UNL     1      40.337 -15.181  -2.361  1.00  0.00    -0.265 OA
HETATM   27  H   UNL     1      38.406 -13.344  -0.674  1.00  0.00     0.169 HD
BRANCH  25  28
HETATM   28  C   UNL     1      38.227 -14.333  -2.908  1.00  0.00     0.144 A 
HETATM   29  O   UNL     1      37.702 -13.070  -3.006  1.00  0.00    -0.298 OA
HETATM   30  C   UNL     1      36.729 -13.116  -3.957  1.00  0.00     0.122 A 
HETATM   31 BR   UNL     1      35.724 -11.641  -4.498  1.00  0.00    -0.023 Br
HETATM   32  C   UNL     1      36.602 -14.391  -4.457  1.00  0.00     0.048 A 
HETATM   33  C   UNL     1      37.569 -15.176  -3.784  1.00  0.00     0.046 A 
ENDBRANCH  25  28
ENDBRANCH   4  24
TORSDOF 6
ENDMDL
MODEL 10
REMARK VINA RESULT:      -8.6      2.638      2.919
REMARK  6 active torsions:
REMARK  status: ('A' for Active; 'I' for Inactive)
REMARK    1  A    between atoms: C_5  and  C_6 
REMARK    2  A    between atoms: C_6  and  S_7 
REMARK    3  A    between atoms: S_7  and  C_8 
REMARK    4  A    between atoms: C_10  and  N_11 
REMARK    5  A    between atoms: C_12  and  N_13 
REMARK       I    between atoms: N_13  and  C_14 
REMARK    6  A    between atoms: C_14  and  C_15 
ROOT
HETATM    1  C   UNL     1      41.346 -15.859   2.827  1.00  0.00     0.171 C 
HETATM    2  N   UNL     1      40.715 -16.211   3.896  1.00  0.00    -0.210 NA
HETATM    3  C   UNL     1      40.534 -15.251   4.868  1.00  0.00     0.136 C 
HETATM    4  C   UNL     1      40.874 -13.950   4.688  1.00  0.00     0.144 C 
HETATM    5  C   UNL     1      41.263 -13.575   3.298  1.00  0.00     0.277 C 
HETATM    6  O   UNL     1      41.020 -12.486   2.790  1.00  0.00    -0.266 OA
HETATM    7  N   UNL     1      41.766 -14.600   2.560  1.00  0.00    -0.300 N 
HETATM    8  H   UNL     1      42.039 -14.389   1.613  1.00  0.00     0.171 HD
ENDROOT
BRANCH   1   9
HETATM    9  S   UNL     1      41.746 -16.935   1.529  1.00  0.00    -0.087 SA
BRANCH   9  10
HETATM   10  C   UNL     1      43.526 -17.164   1.788  1.00  0.00     0.121 C 
BRANCH  10  11
HETATM   11  C   UNL     1      43.802 -18.489   2.472  1.00  0.00    -0.037 A 
HETATM   12  C   UNL     1      43.966 -18.612   3.883  1.00  0.00    -0.019 A 
HETATM   13  C   UNL     1      44.248 -19.893   4.427  1.00  0.00    -0.025 A 
HETATM   14  C   UNL     1      43.872 -17.530   4.791  1.00  0.00     0.013 A 
HETATM   15  C   UNL     1      44.408 -20.054   5.814  1.00  0.00     0.012 A 
HETATM   16  C   UNL     1      44.375 -21.003   3.580  1.00  0.00     0.012 A 
HETATM   17  C   UNL     1      44.299 -18.968   6.680  1.00  0.00     0.001 A 
HETATM   18  C   UNL     1      44.033 -17.706   6.168  1.00  0.00     0.001 A 
HETATM   19  C   UNL     1      44.229 -20.873   2.204  1.00  0.00     0.001 A 
HETATM   20  C   UNL     1      43.945 -19.628   1.654  1.00  0.00     0.009 A 
ENDBRANCH  10  11
ENDBRANCH   9  10
ENDBRANCH   1   9
BRANCH   3  21
HETATM   21  N   UNL     1      40.015 -15.676   6.085  1.00  0.00    -0.285 NA
HETATM   22  H   UNL     1      39.033 -15.907   5.932  1.00  0.00     0.125 HD
HETATM   23  H   UNL     1      40.071 -14.932   6.777  1.00  0.00     0.125 HD
ENDBRANCH   3  21
BRANCH   4  24
HETATM   24  N   UNL     1      40.829 -13.039   5.728  1.00  0.00    -0.314 N 
HETATM   25  C   UNL     1      39.760 -12.229   6.063  1.00  0.00     0.280 C 
HETATM   26  O   UNL     1      38.701 -12.177   5.447  1.00  0.00    -0.265 OA
HETATM   27  H   UNL     1      41.721 -12.775   6.131  1.00  0.00     0.169 HD
BRANCH  25  28
HETATM   28  C   UNL     1      40.028 -11.354   7.188  1.00  0.00     0.144 A 
HETATM   29  O   UNL     1      38.991 -10.894   7.958  1.00  0.00    -0.298 OA
HETATM   30  C   UNL     1      39.536 -10.142   8.953  1.00  0.00     0.122 A 
HETATM   31 BR   UNL     1      38.548  -9.312  10.300  1.00  0.00    -0.023 Br
HETATM   32  C   UNL     1      40.905 -10.090   8.825  1.00  0.00     0.048 A 
HETATM   33  C   UNL     1      41.224 -10.873   7.689  1.00  0.00     0.046 A 
ENDBRANCH  25  28
ENDBRANCH   4  24
TORSDOF 6
ENDMDL
