MODEL 1
REMARK VINA RESULT:      -8.4      0.000      0.000
REMARK  7 active torsions:
REMARK  status: ('A' for Active; 'I' for Inactive)
REMARK    1  A    between atoms: C_7  and  C_8 
REMARK    2  A    between atoms: C_8  and  C_9 
REMARK    3  A    between atoms: C_9  and  C_10 
REMARK    4  A    between atoms: C_10  and  O_11 
REMARK    5  A    between atoms: C_13  and  C_14 
REMARK    6  A    between atoms: C_22  and  C_23 
REMARK       I    between atoms: C_23  and  N_24 
REMARK    7  A    between atoms: N_24  and  C_25 
ROOT
HETATM    1  C   UNL     1      41.828 -14.142   0.848  1.00  0.00     0.070 C 
HETATM    2  C   UNL     1      41.585 -13.842   2.307  1.00  0.00     0.037 C 
HETATM    3  N   UNL     1      41.413 -12.497   2.628  1.00  0.00    -0.192 N 
HETATM    4  C   UNL     1      40.995 -12.079   3.837  1.00  0.00     0.726 A 
HETATM    5  N   UNL     1      40.929 -12.976   4.864  1.00  0.00    -0.083 N 
HETATM    6  N   UNL     1      40.353 -12.436   5.957  1.00  0.00    -0.140 NA
HETATM    7  C   UNL     1      40.139 -11.181   5.531  1.00  0.00     0.166 A 
HETATM    8  N   UNL     1      40.541 -10.923   4.240  1.00  0.00    -0.046 NA
HETATM    9  C   UNL     1      41.242 -14.405   4.730  1.00  0.00     0.204 C 
HETATM   10  C   UNL     1      41.486 -14.791   3.276  1.00  0.00     0.062 C 
HETATM   11  H   UNL     1      41.386 -11.834   1.857  1.00  0.00     0.184 HD
ENDROOT
BRANCH  10  12
HETATM   12  C   UNL     1      41.657 -16.235   2.941  1.00  0.00     0.256 C 
HETATM   13  N   UNL     1      42.960 -16.683   3.011  1.00  0.00    -0.323 N 
HETATM   14  H   UNL     1      43.701 -16.017   3.175  1.00  0.00     0.169 HD
HETATM   15  O   UNL     1      40.678 -16.903   2.625  1.00  0.00    -0.267 OA
BRANCH  13  16
HETATM   16  C   UNL     1      43.404 -18.020   2.905  1.00  0.00     0.035 A 
HETATM   17  C   UNL     1      43.250 -18.804   1.758  1.00  0.00     0.032 A 
HETATM   18  C   UNL     1      43.666 -20.139   1.754  1.00  0.00     0.044 A 
HETATM   19  C   UNL     1      44.246 -20.684   2.893  1.00  0.00     0.116 A 
HETATM   20  F   UNL     1      44.641 -21.963   2.887  1.00  0.00    -0.206 F 
HETATM   21  C   UNL     1      44.417 -19.919   4.038  1.00  0.00     0.044 A 
HETATM   22  C   UNL     1      43.990 -18.590   4.046  1.00  0.00     0.032 A 
ENDBRANCH  13  16
ENDBRANCH  10  12
BRANCH   9  23
HETATM   23  C   UNL     1      42.408 -14.764   5.650  1.00  0.00    -0.005 A 
HETATM   24  C   UNL     1      42.401 -15.912   6.472  1.00  0.00     0.064 A 
HETATM   25 CL   UNL     1      41.059 -17.015   6.428  1.00  0.00    -0.082 Cl
HETATM   26  C   UNL     1      43.492 -16.175   7.321  1.00  0.00     0.056 A 
HETATM   27 CL   UNL     1      43.549 -17.557   8.363  1.00  0.00    -0.083 Cl
HETATM   28  C   UNL     1      44.590 -15.312   7.352  1.00  0.00     0.026 A 
HETATM   29  C   UNL     1      44.612 -14.184   6.539  1.00  0.00     0.002 A 
HETATM   30  C   UNL     1      43.535 -13.912   5.698  1.00  0.00     0.011 A 
ENDBRANCH   9  23
BRANCH   7  31
HETATM   31  C   UNL     1      39.415 -10.178   6.350  1.00  0.00     0.085 C 
BRANCH  31  32
HETATM   32  C   UNL     1      39.947 -10.091   7.782  1.00  0.00     0.034 C 
BRANCH  32  33
HETATM   33  C   UNL     1      38.983 -10.662   8.816  1.00  0.00     0.164 C 
BRANCH  33  34
HETATM   34  O   UNL     1      39.153 -12.072   8.904  1.00  0.00    -0.401 OA
HETATM   35  H   UNL     1      38.324 -12.447   9.245  1.00  0.00     0.209 HD
ENDBRANCH  33  34
ENDBRANCH  32  33
ENDBRANCH  31  32
ENDBRANCH   7  31
TORSDOF 7
ENDMDL
MODEL 2
REMARK VINA RESULT:      -8.1      1.380      1.640
REMARK  7 active torsions:
REMARK  status: ('A' for Active; 'I' for Inactive)
REMARK    1  A    between atoms: C_7  and  C_8 
REMARK    2  A    between atoms: C_8  and  C_9 
REMARK    3  A    between atoms: C_9  and  C_10 
REMARK    4  A    between atoms: C_10  and  O_11 
REMARK    5  A    between atoms: C_13  and  C_14 
REMARK    6  A    between atoms: C_22  and  C_23 
REMARK       I    between atoms: C_23  and  N_24 
REMARK    7  A    between atoms: N_24  and  C_25 
ROOT
HETATM    1  C   UNL     1      41.946 -14.660   0.427  1.00  0.00     0.070 C 
HETATM    2  C   UNL     1      41.638 -14.209   1.835  1.00  0.00     0.037 C 
HETATM    3  N   UNL     1      41.450 -12.840   2.004  1.00  0.00    -0.192 N 
HETATM    4  C   UNL     1      40.979 -12.299   3.143  1.00  0.00     0.726 A 
HETATM    5  N   UNL     1      40.869 -13.083   4.255  1.00  0.00    -0.083 N 
HETATM    6  N   UNL     1      40.244 -12.435   5.258  1.00  0.00    -0.140 NA
HETATM    7  C   UNL     1      40.047 -11.233   4.693  1.00  0.00     0.166 A 
HETATM    8  N   UNL     1      40.504 -11.109   3.401  1.00  0.00    -0.046 NA
HETATM    9  C   UNL     1      41.190 -14.516   4.287  1.00  0.00     0.204 C 
HETATM   10  C   UNL     1      41.498 -15.051   2.893  1.00  0.00     0.062 C 
HETATM   11  H   UNL     1      41.455 -12.262   1.166  1.00  0.00     0.184 HD
ENDROOT
BRANCH  10  12
HETATM   12  C   UNL     1      41.686 -16.522   2.720  1.00  0.00     0.256 C 
HETATM   13  N   UNL     1      42.997 -16.941   2.815  1.00  0.00    -0.323 N 
HETATM   14  H   UNL     1      43.731 -16.251   2.887  1.00  0.00     0.169 HD
HETATM   15  O   UNL     1      40.713 -17.236   2.502  1.00  0.00    -0.267 OA
BRANCH  13  16
HETATM   16  C   UNL     1      43.462 -18.275   2.852  1.00  0.00     0.035 A 
HETATM   17  C   UNL     1      43.322 -19.178   1.795  1.00  0.00     0.032 A 
HETATM   18  C   UNL     1      43.757 -20.500   1.933  1.00  0.00     0.044 A 
HETATM   19  C   UNL     1      44.342 -20.912   3.124  1.00  0.00     0.116 A 
HETATM   20  F   UNL     1      44.755 -22.179   3.254  1.00  0.00    -0.206 F 
HETATM   21  C   UNL     1      44.499 -20.027   4.181  1.00  0.00     0.044 A 
HETATM   22  C   UNL     1      44.053 -18.711   4.048  1.00  0.00     0.032 A 
ENDBRANCH  13  16
ENDBRANCH  10  12
BRANCH   9  23
HETATM   23  C   UNL     1      42.315 -14.768   5.289  1.00  0.00    -0.005 A 
HETATM   24  C   UNL     1      42.276 -15.825   6.224  1.00  0.00     0.064 A 
HETATM   25 CL   UNL     1      40.941 -16.937   6.236  1.00  0.00    -0.082 Cl
HETATM   26  C   UNL     1      43.328 -15.990   7.144  1.00  0.00     0.056 A 
HETATM   27 CL   UNL     1      43.344 -17.256   8.325  1.00  0.00    -0.083 Cl
HETATM   28  C   UNL     1      44.421 -15.119   7.133  1.00  0.00     0.026 A 
HETATM   29  C   UNL     1      44.476 -14.081   6.208  1.00  0.00     0.002 A 
HETATM   30  C   UNL     1      43.435 -13.907   5.297  1.00  0.00     0.011 A 
ENDBRANCH   9  23
BRANCH   7  31
HETATM   31  C   UNL     1      39.286 -10.154   5.369  1.00  0.00     0.085 C 
BRANCH  31  32
HETATM   32  C   UNL     1      38.707  -9.135   4.386  1.00  0.00     0.034 C 
BRANCH  32  33
HETATM   33  C   UNL     1      37.437  -9.622   3.696  1.00  0.00     0.164 C 
BRANCH  33  34
HETATM   34  O   UNL     1      36.308  -9.348   4.518  1.00  0.00    -0.401 OA
HETATM   35  H   UNL     1      35.645 -10.037   4.345  1.00  0.00     0.209 HD
ENDBRANCH  33  34
ENDBRANCH  32  33
ENDBRANCH  31  32
ENDBRANCH   7  31
TORSDOF 7
ENDMDL
MODEL 3
REMARK VINA RESULT:      -7.8      2.551      4.300
REMARK  7 active torsions:
REMARK  status: ('A' for Active; 'I' for Inactive)
REMARK    1  A    between atoms: C_7  and  C_8 
REMARK    2  A    between atoms: C_8  and  C_9 
REMARK    3  A    between atoms: C_9  and  C_10 
REMARK    4  A    between atoms: C_10  and  O_11 
REMARK    5  A    between atoms: C_13  and  C_14 
REMARK    6  A    between atoms: C_22  and  C_23 
REMARK       I    between atoms: C_23  and  N_24 
REMARK    7  A    between atoms: N_24  and  C_25 
ROOT
HETATM    1  C   UNL     1      40.450 -16.857   6.346  1.00  0.00     0.070 C 
HETATM    2  C   UNL     1      40.626 -15.596   5.535  1.00  0.00     0.037 C 
HETATM    3  N   UNL     1      40.317 -14.406   6.190  1.00  0.00    -0.192 N 
HETATM    4  C   UNL     1      40.605 -13.193   5.683  1.00  0.00     0.726 A 
HETATM    5  N   UNL     1      41.028 -13.098   4.389  1.00  0.00    -0.083 N 
HETATM    6  N   UNL     1      41.415 -11.842   4.086  1.00  0.00    -0.140 NA
HETATM    7  C   UNL     1      41.148 -11.214   5.241  1.00  0.00     0.166 A 
HETATM    8  N   UNL     1      40.630 -12.011   6.237  1.00  0.00    -0.046 NA
HETATM    9  C   UNL     1      41.243 -14.252   3.505  1.00  0.00     0.204 C 
HETATM   10  C   UNL     1      41.097 -15.568   4.259  1.00  0.00     0.062 C 
HETATM   11  H   UNL     1      40.076 -14.468   7.177  1.00  0.00     0.184 HD
ENDROOT
BRANCH  10  12
HETATM   12  C   UNL     1      41.442 -16.836   3.552  1.00  0.00     0.256 C 
HETATM   13  N   UNL     1      42.735 -17.269   3.763  1.00  0.00    -0.323 N 
HETATM   14  H   UNL     1      43.375 -16.679   4.273  1.00  0.00     0.169 HD
HETATM   15  O   UNL     1      40.600 -17.386   2.849  1.00  0.00    -0.267 OA
BRANCH  13  16
HETATM   16  C   UNL     1      43.293 -18.503   3.359  1.00  0.00     0.035 A 
HETATM   17  C   UNL     1      43.052 -19.098   2.117  1.00  0.00     0.032 A 
HETATM   18  C   UNL     1      43.597 -20.351   1.818  1.00  0.00     0.044 A 
HETATM   19  C   UNL     1      44.391 -21.000   2.755  1.00  0.00     0.116 A 
HETATM   20  F   UNL     1      44.908 -22.200   2.466  1.00  0.00    -0.206 F 
HETATM   21  C   UNL     1      44.649 -20.421   3.990  1.00  0.00     0.044 A 
HETATM   22  C   UNL     1      44.094 -19.177   4.294  1.00  0.00     0.032 A 
ENDBRANCH  13  16
ENDBRANCH  10  12
BRANCH   9  23
HETATM   23  C   UNL     1      40.320 -14.149   2.292  1.00  0.00    -0.005 A 
HETATM   24  C   UNL     1      40.745 -14.471   0.985  1.00  0.00     0.064 A 
HETATM   25 CL   UNL     1      42.355 -15.061   0.707  1.00  0.00    -0.082 Cl
HETATM   26  C   UNL     1      39.858 -14.328  -0.098  1.00  0.00     0.056 A 
HETATM   27 CL   UNL     1      40.312 -14.694  -1.728  1.00  0.00    -0.083 Cl
HETATM   28  C   UNL     1      38.553 -13.877   0.110  1.00  0.00     0.026 A 
HETATM   29  C   UNL     1      38.119 -13.567   1.395  1.00  0.00     0.002 A 
HETATM   30  C   UNL     1      38.992 -13.701   2.474  1.00  0.00     0.011 A 
ENDBRANCH   9  23
BRANCH   7  31
HETATM   31  C   UNL     1      41.496  -9.789   5.469  1.00  0.00     0.085 C 
BRANCH  31  32
HETATM   32  C   UNL     1      41.175  -9.324   6.890  1.00  0.00     0.034 C 
BRANCH  32  33
HETATM   33  C   UNL     1      39.800  -8.676   7.013  1.00  0.00     0.164 C 
BRANCH  33  34
HETATM   34  O   UNL     1      38.838  -9.659   7.380  1.00  0.00    -0.401 OA
HETATM   35  H   UNL     1      39.301 -10.349   7.885  1.00  0.00     0.209 HD
ENDBRANCH  33  34
ENDBRANCH  32  33
ENDBRANCH  31  32
ENDBRANCH   7  31
TORSDOF 7
ENDMDL
MODEL 4
REMARK VINA RESULT:      -7.6      3.836      8.261
REMARK  7 active torsions:
REMARK  status: ('A' for Active; 'I' for Inactive)
REMARK    1  A    between atoms: C_7  and  C_8 
REMARK    2  A    between atoms: C_8  and  C_9 
REMARK    3  A    between atoms: C_9  and  C_10 
REMARK    4  A    between atoms: C_10  and  O_11 
REMARK    5  A    between atoms: C_13  and  C_14 
REMARK    6  A    between atoms: C_22  and  C_23 
REMARK       I    between atoms: C_23  and  N_24 
REMARK    7  A    between atoms: N_24  and  C_25 
ROOT
HETATM    1  C   UNL     1      44.962 -13.970   6.987  1.00  0.00     0.070 C 
HETATM    2  C   UNL     1      44.352 -15.222   6.404  1.00  0.00     0.037 C 
HETATM    3  N   UNL     1      44.947 -16.420   6.790  1.00  0.00    -0.192 N 
HETATM    4  C   UNL     1      44.410 -17.625   6.523  1.00  0.00     0.726 A 
HETATM    5  N   UNL     1      43.350 -17.705   5.666  1.00  0.00    -0.083 N 
HETATM    6  N   UNL     1      42.840 -18.952   5.625  1.00  0.00    -0.140 NA
HETATM    7  C   UNL     1      43.681 -19.593   6.452  1.00  0.00     0.166 A 
HETATM    8  N   UNL     1      44.670 -18.811   7.005  1.00  0.00    -0.046 NA
HETATM    9  C   UNL     1      42.710 -16.542   5.038  1.00  0.00     0.204 C 
HETATM   10  C   UNL     1      43.264 -15.233   5.589  1.00  0.00     0.062 C 
HETATM   11  H   UNL     1      45.687 -16.370   7.487  1.00  0.00     0.184 HD
ENDROOT
BRANCH  10  12
HETATM   12  C   UNL     1      42.612 -13.955   5.179  1.00  0.00     0.256 C 
HETATM   13  N   UNL     1      41.540 -13.587   5.967  1.00  0.00    -0.323 N 
HETATM   14  H   UNL     1      41.208 -14.225   6.676  1.00  0.00     0.169 HD
HETATM   15  O   UNL     1      43.038 -13.342   4.206  1.00  0.00    -0.267 OA
BRANCH  13  16
HETATM   16  C   UNL     1      40.834 -12.364   5.922  1.00  0.00     0.035 A 
HETATM   17  C   UNL     1      41.116 -11.270   6.745  1.00  0.00     0.032 A 
HETATM   18  C   UNL     1      40.331 -10.115   6.677  1.00  0.00     0.044 A 
HETATM   19  C   UNL     1      39.273 -10.051   5.779  1.00  0.00     0.116 A 
HETATM   20  F   UNL     1      38.521  -8.945   5.719  1.00  0.00    -0.206 F 
HETATM   21  C   UNL     1      38.983 -11.123   4.947  1.00  0.00     0.044 A 
HETATM   22  C   UNL     1      39.758 -12.282   5.023  1.00  0.00     0.032 A 
ENDBRANCH  13  16
ENDBRANCH  10  12
BRANCH   9  23
HETATM   23  C   UNL     1      42.824 -16.650   3.518  1.00  0.00    -0.005 A 
HETATM   24  C   UNL     1      41.799 -16.223   2.647  1.00  0.00     0.064 A 
HETATM   25 CL   UNL     1      40.356 -15.492   3.282  1.00  0.00    -0.082 Cl
HETATM   26  C   UNL     1      41.949 -16.376   1.257  1.00  0.00     0.056 A 
HETATM   27 CL   UNL     1      40.731 -15.884   0.129  1.00  0.00    -0.083 Cl
HETATM   28  C   UNL     1      43.112 -16.941   0.728  1.00  0.00     0.026 A 
HETATM   29  C   UNL     1      44.134 -17.355   1.576  1.00  0.00     0.002 A 
HETATM   30  C   UNL     1      43.992 -17.212   2.955  1.00  0.00     0.011 A 
ENDBRANCH   9  23
BRANCH   7  31
HETATM   31  C   UNL     1      43.488 -21.013   6.836  1.00  0.00     0.085 C 
BRANCH  31  32
HETATM   32  C   UNL     1      44.561 -21.933   6.250  1.00  0.00     0.034 C 
BRANCH  32  33
HETATM   33  C   UNL     1      44.760 -21.743   4.750  1.00  0.00     0.164 C 
BRANCH  33  34
HETATM   34  O   UNL     1      44.800 -23.012   4.107  1.00  0.00    -0.401 OA
HETATM   35  H   UNL     1      44.407 -23.662   4.714  1.00  0.00     0.209 HD
ENDBRANCH  33  34
ENDBRANCH  32  33
ENDBRANCH  31  32
ENDBRANCH   7  31
TORSDOF 7
ENDMDL
MODEL 5
REMARK VINA RESULT:      -7.2      3.221      5.000
REMARK  7 active torsions:
REMARK  status: ('A' for Active; 'I' for Inactive)
REMARK    1  A    between atoms: C_7  and  C_8 
REMARK    2  A    between atoms: C_8  and  C_9 
REMARK    3  A    between atoms: C_9  and  C_10 
REMARK    4  A    between atoms: C_10  and  O_11 
REMARK    5  A    between atoms: C_13  and  C_14 
REMARK    6  A    between atoms: C_22  and  C_23 
REMARK       I    between atoms: C_23  and  N_24 
REMARK    7  A    between atoms: N_24  and  C_25 
ROOT
HETATM    1  C   UNL     1      40.243 -16.024   5.984  1.00  0.00     0.070 C 
HETATM    2  C   UNL     1      40.323 -14.879   5.004  1.00  0.00     0.037 C 
HETATM    3  N   UNL     1      39.958 -13.630   5.501  1.00  0.00    -0.192 N 
HETATM    4  C   UNL     1      40.159 -12.484   4.825  1.00  0.00     0.726 A 
HETATM    5  N   UNL     1      40.546 -12.543   3.517  1.00  0.00    -0.083 N 
HETATM    6  N   UNL     1      40.848 -11.321   3.034  1.00  0.00    -0.140 NA
HETATM    7  C   UNL     1      40.571 -10.556   4.102  1.00  0.00     0.166 A 
HETATM    8  N   UNL     1      40.126 -11.237   5.212  1.00  0.00    -0.046 NA
HETATM    9  C   UNL     1      40.809 -13.793   2.792  1.00  0.00     0.204 C 
HETATM   10  C   UNL     1      40.762 -15.000   3.722  1.00  0.00     0.062 C 
HETATM   11  H   UNL     1      39.744 -13.569   6.494  1.00  0.00     0.184 HD
ENDROOT
BRANCH  10  12
HETATM   12  C   UNL     1      41.166 -16.331   3.184  1.00  0.00     0.256 C 
HETATM   13  N   UNL     1      42.451 -16.711   3.516  1.00  0.00    -0.323 N 
HETATM   14  H   UNL     1      43.051 -16.053   3.993  1.00  0.00     0.169 HD
HETATM   15  O   UNL     1      40.377 -16.974   2.500  1.00  0.00    -0.267 OA
BRANCH  13  16
HETATM   16  C   UNL     1      43.050 -17.970   3.287  1.00  0.00     0.035 A 
HETATM   17  C   UNL     1      43.723 -18.703   4.269  1.00  0.00     0.032 A 
HETATM   18  C   UNL     1      44.339 -19.916   3.945  1.00  0.00     0.044 A 
HETATM   19  C   UNL     1      44.271 -20.399   2.645  1.00  0.00     0.116 A 
HETATM   20  F   UNL     1      44.865 -21.559   2.338  1.00  0.00    -0.206 F 
HETATM   21  C   UNL     1      43.599 -19.691   1.659  1.00  0.00     0.044 A 
HETATM   22  C   UNL     1      42.995 -18.473   1.978  1.00  0.00     0.032 A 
ENDBRANCH  13  16
ENDBRANCH  10  12
BRANCH   9  23
HETATM   23  C   UNL     1      39.854 -13.911   1.606  1.00  0.00    -0.005 A 
HETATM   24  C   UNL     1      40.308 -14.058   0.277  1.00  0.00     0.064 A 
HETATM   25 CL   UNL     1      42.008 -14.167  -0.062  1.00  0.00    -0.082 Cl
HETATM   26  C   UNL     1      39.380 -14.132  -0.778  1.00  0.00     0.056 A 
HETATM   27 CL   UNL     1      39.863 -14.303  -2.432  1.00  0.00    -0.083 Cl
HETATM   28  C   UNL     1      38.009 -14.069  -0.522  1.00  0.00     0.026 A 
HETATM   29  C   UNL     1      37.549 -13.935   0.785  1.00  0.00     0.002 A 
HETATM   30  C   UNL     1      38.461 -13.857   1.836  1.00  0.00     0.011 A 
ENDBRANCH   9  23
BRANCH   7  31
HETATM   31  C   UNL     1      40.836  -9.096   4.123  1.00  0.00     0.085 C 
BRANCH  31  32
HETATM   32  C   UNL     1      41.718  -8.674   5.299  1.00  0.00     0.034 C 
BRANCH  32  33
HETATM   33  C   UNL     1      42.305  -7.276   5.137  1.00  0.00     0.164 C 
BRANCH  33  34
HETATM   34  O   UNL     1      43.268  -7.278   4.088  1.00  0.00    -0.401 OA
HETATM   35  H   UNL     1      43.747  -8.122   4.131  1.00  0.00     0.209 HD
ENDBRANCH  33  34
ENDBRANCH  32  33
ENDBRANCH  31  32
ENDBRANCH   7  31
TORSDOF 7
ENDMDL
MODEL 6
REMARK VINA RESULT:      -7.1      4.494      8.214
REMARK  7 active torsions:
REMARK  status: ('A' for Active; 'I' for Inactive)
REMARK    1  A    between atoms: C_7  and  C_8 
REMARK    2  A    between atoms: C_8  and  C_9 
REMARK    3  A    between atoms: C_9  and  C_10 
REMARK    4  A    between atoms: C_10  and  O_11 
REMARK    5  A    between atoms: C_13  and  C_14 
REMARK    6  A    between atoms: C_22  and  C_23 
REMARK       I    between atoms: C_23  and  N_24 
REMARK    7  A    between atoms: N_24  and  C_25 
ROOT
HETATM    1  C   UNL     1      40.272 -14.946  -1.775  1.00  0.00     0.070 C 
HETATM    2  C   UNL     1      40.936 -15.244  -0.452  1.00  0.00     0.037 C 
HETATM    3  N   UNL     1      40.959 -16.584  -0.075  1.00  0.00    -0.192 N 
HETATM    4  C   UNL     1      41.678 -17.041   0.967  1.00  0.00     0.726 A 
HETATM    5  N   UNL     1      42.249 -16.144   1.824  1.00  0.00    -0.083 N 
HETATM    6  N   UNL     1      43.053 -16.756   2.717  1.00  0.00    -0.140 NA
HETATM    7  C   UNL     1      42.879 -18.040   2.370  1.00  0.00     0.166 A 
HETATM    8  N   UNL     1      42.025 -18.252   1.311  1.00  0.00    -0.046 NA
HETATM    9  C   UNL     1      42.173 -14.686   1.661  1.00  0.00     0.204 C 
HETATM   10  C   UNL     1      41.526 -14.305   0.334  1.00  0.00     0.062 C 
HETATM   11  H   UNL     1      40.604 -17.263  -0.746  1.00  0.00     0.184 HD
ENDROOT
BRANCH  10  12
HETATM   12  C   UNL     1      41.517 -12.867  -0.067  1.00  0.00     0.256 C 
HETATM   13  N   UNL     1      42.591 -12.489  -0.845  1.00  0.00    -0.323 N 
HETATM   14  H   UNL     1      43.341 -13.146  -1.005  1.00  0.00     0.169 HD
HETATM   15  O   UNL     1      40.605 -12.139   0.312  1.00  0.00    -0.267 OA
BRANCH  13  16
HETATM   16  C   UNL     1      42.770 -11.249  -1.499  1.00  0.00     0.035 A 
HETATM   17  C   UNL     1      43.345 -10.126  -0.897  1.00  0.00     0.032 A 
HETATM   18  C   UNL     1      43.432  -8.918  -1.595  1.00  0.00     0.044 A 
HETATM   19  C   UNL     1      42.956  -8.838  -2.898  1.00  0.00     0.116 A 
HETATM   20  F   UNL     1      43.039  -7.679  -3.563  1.00  0.00    -0.206 F 
HETATM   21  C   UNL     1      42.392  -9.944  -3.516  1.00  0.00     0.044 A 
HETATM   22  C   UNL     1      42.292 -11.147  -2.815  1.00  0.00     0.032 A 
ENDBRANCH  13  16
ENDBRANCH  10  12
BRANCH   9  23
HETATM   23  C   UNL     1      41.472 -14.070   2.870  1.00  0.00    -0.005 A 
HETATM   24  C   UNL     1      42.180 -13.572   3.986  1.00  0.00     0.064 A 
HETATM   25 CL   UNL     1      43.917 -13.593   4.003  1.00  0.00    -0.082 Cl
HETATM   26  C   UNL     1      41.478 -13.042   5.084  1.00  0.00     0.056 A 
HETATM   27 CL   UNL     1      42.277 -12.423   6.489  1.00  0.00    -0.083 Cl
HETATM   28  C   UNL     1      40.082 -12.995   5.077  1.00  0.00     0.026 A 
HETATM   29  C   UNL     1      39.374 -13.472   3.978  1.00  0.00     0.002 A 
HETATM   30  C   UNL     1      40.061 -14.004   2.888  1.00  0.00     0.011 A 
ENDBRANCH   9  23
BRANCH   7  31
HETATM   31  C   UNL     1      43.643 -19.144   3.003  1.00  0.00     0.085 C 
BRANCH  31  32
HETATM   32  C   UNL     1      43.754 -20.376   2.104  1.00  0.00     0.034 C 
BRANCH  32  33
HETATM   33  C   UNL     1      44.485 -21.538   2.766  1.00  0.00     0.164 C 
BRANCH  33  34
HETATM   34  O   UNL     1      44.549 -22.641   1.867  1.00  0.00    -0.401 OA
HETATM   35  H   UNL     1      43.739 -23.165   1.988  1.00  0.00     0.209 HD
ENDBRANCH  33  34
ENDBRANCH  32  33
ENDBRANCH  31  32
ENDBRANCH   7  31
TORSDOF 7
ENDMDL
MODEL 7
REMARK VINA RESULT:      -7.0      3.770      6.022
REMARK  7 active torsions:
REMARK  status: ('A' for Active; 'I' for Inactive)
REMARK    1  A    between atoms: C_7  and  C_8 
REMARK    2  A    between atoms: C_8  and  C_9 
REMARK    3  A    between atoms: C_9  and  C_10 
REMARK    4  A    between atoms: C_10  and  O_11 
REMARK    5  A    between atoms: C_13  and  C_14 
REMARK    6  A    between atoms: C_22  and  C_23 
REMARK       I    between atoms: C_23  and  N_24 
REMARK    7  A    between atoms: N_24  and  C_25 
ROOT
HETATM    1  C   UNL     1      41.812 -17.920   3.427  1.00  0.00     0.070 C 
HETATM    2  C   UNL     1      42.155 -16.571   4.012  1.00  0.00     0.037 C 
HETATM    3  N   UNL     1      42.920 -16.593   5.176  1.00  0.00    -0.192 N 
HETATM    4  C   UNL     1      43.474 -15.489   5.711  1.00  0.00     0.726 A 
HETATM    5  N   UNL     1      43.115 -14.264   5.226  1.00  0.00    -0.083 N 
HETATM    6  N   UNL     1      43.866 -13.281   5.761  1.00  0.00    -0.140 NA
HETATM    7  C   UNL     1      44.633 -13.986   6.607  1.00  0.00     0.166 A 
HETATM    8  N   UNL     1      44.404 -15.343   6.616  1.00  0.00    -0.046 NA
HETATM    9  C   UNL     1      42.184 -14.062   4.108  1.00  0.00     0.204 C 
HETATM   10  C   UNL     1      41.802 -15.383   3.452  1.00  0.00     0.062 C 
HETATM   11  H   UNL     1      43.254 -17.499   5.496  1.00  0.00     0.184 HD
ENDROOT
BRANCH  10  12
HETATM   12  C   UNL     1      40.992 -15.349   2.199  1.00  0.00     0.256 C 
HETATM   13  N   UNL     1      41.652 -14.815   1.112  1.00  0.00    -0.323 N 
HETATM   14  H   UNL     1      42.564 -14.401   1.243  1.00  0.00     0.169 HD
HETATM   15  O   UNL     1      39.839 -15.766   2.211  1.00  0.00    -0.267 OA
BRANCH  13  16
HETATM   16  C   UNL     1      41.204 -14.796  -0.228  1.00  0.00     0.035 A 
HETATM   17  C   UNL     1      41.299 -15.888  -1.097  1.00  0.00     0.032 A 
HETATM   18  C   UNL     1      40.884 -15.769  -2.427  1.00  0.00     0.044 A 
HETATM   19  C   UNL     1      40.365 -14.564  -2.883  1.00  0.00     0.116 A 
HETATM   20  F   UNL     1      39.973 -14.453  -4.158  1.00  0.00    -0.206 F 
HETATM   21  C   UNL     1      40.254 -13.472  -2.034  1.00  0.00     0.044 A 
HETATM   22  C   UNL     1      40.680 -13.586  -0.709  1.00  0.00     0.032 A 
ENDBRANCH  13  16
ENDBRANCH  10  12
BRANCH   9  23
HETATM   23  C   UNL     1      40.976 -13.256   4.585  1.00  0.00    -0.005 A 
HETATM   24  C   UNL     1      40.490 -12.131   3.885  1.00  0.00     0.064 A 
HETATM   25 CL   UNL     1      41.230 -11.640   2.391  1.00  0.00    -0.082 Cl
HETATM   26  C   UNL     1      39.391 -11.410   4.388  1.00  0.00     0.056 A 
HETATM   27 CL   UNL     1      38.747 -10.016   3.590  1.00  0.00    -0.083 Cl
HETATM   28  C   UNL     1      38.769 -11.805   5.575  1.00  0.00     0.026 A 
HETATM   29  C   UNL     1      39.233 -12.919   6.268  1.00  0.00     0.002 A 
HETATM   30  C   UNL     1      40.323 -13.636   5.779  1.00  0.00     0.011 A 
ENDBRANCH   9  23
BRANCH   7  31
HETATM   31  C   UNL     1      45.730 -13.364   7.390  1.00  0.00     0.085 C 
BRANCH  31  32
HETATM   32  C   UNL     1      45.216 -12.430   8.487  1.00  0.00     0.034 C 
BRANCH  32  33
HETATM   33  C   UNL     1      46.283 -11.476   9.012  1.00  0.00     0.164 C 
BRANCH  33  34
HETATM   34  O   UNL     1      47.116 -11.051   7.940  1.00  0.00    -0.401 OA
HETATM   35  H   UNL     1      47.673 -11.805   7.683  1.00  0.00     0.209 HD
ENDBRANCH  33  34
ENDBRANCH  32  33
ENDBRANCH  31  32
ENDBRANCH   7  31
TORSDOF 7
ENDMDL
MODEL 8
REMARK VINA RESULT:      -6.7      3.734      7.612
REMARK  7 active torsions:
REMARK  status: ('A' for Active; 'I' for Inactive)
REMARK    1  A    between atoms: C_7  and  C_8 
REMARK    2  A    between atoms: C_8  and  C_9 
REMARK    3  A    between atoms: C_9  and  C_10 
REMARK    4  A    between atoms: C_10  and  O_11 
REMARK    5  A    between atoms: C_13  and  C_14 
REMARK    6  A    between atoms: C_22  and  C_23 
REMARK       I    between atoms: C_23  and  N_24 
REMARK    7  A    between atoms: N_24  and  C_25 
ROOT
HETATM    1  C   UNL     1      38.351 -10.843   4.128  1.00  0.00     0.070 C 
HETATM    2  C   UNL     1      39.484 -11.516   3.390  1.00  0.00     0.037 C 
HETATM    3  N   UNL     1      39.455 -11.400   2.002  1.00  0.00    -0.192 N 
HETATM    4  C   UNL     1      40.482 -11.767   1.213  1.00  0.00     0.726 A 
HETATM    5  N   UNL     1      41.518 -12.470   1.757  1.00  0.00    -0.083 N 
HETATM    6  N   UNL     1      42.527 -12.626   0.875  1.00  0.00    -0.140 NA
HETATM    7  C   UNL     1      42.005 -12.029  -0.208  1.00  0.00     0.166 A 
HETATM    8  N   UNL     1      40.742 -11.508  -0.040  1.00  0.00    -0.046 NA
HETATM    9  C   UNL     1      41.618 -12.823   3.179  1.00  0.00     0.204 C 
HETATM   10  C   UNL     1      40.512 -12.164   3.997  1.00  0.00     0.062 C 
HETATM   11  H   UNL     1      38.728 -10.813   1.599  1.00  0.00     0.184 HD
ENDROOT
BRANCH  10  12
HETATM   12  C   UNL     1      40.559 -12.284   5.484  1.00  0.00     0.256 C 
HETATM   13  N   UNL     1      41.155 -11.214   6.120  1.00  0.00    -0.323 N 
HETATM   14  H   UNL     1      41.598 -10.495   5.566  1.00  0.00     0.169 HD
HETATM   15  O   UNL     1      40.099 -13.283   6.026  1.00  0.00    -0.267 OA
BRANCH  13  16
HETATM   16  C   UNL     1      41.202 -10.973   7.512  1.00  0.00     0.035 A 
HETATM   17  C   UNL     1      42.387 -10.831   8.239  1.00  0.00     0.032 A 
HETATM   18  C   UNL     1      42.348 -10.653   9.625  1.00  0.00     0.044 A 
HETATM   19  C   UNL     1      41.124 -10.604  10.280  1.00  0.00     0.116 A 
HETATM   20  F   UNL     1      41.090 -10.436  11.608  1.00  0.00    -0.206 F 
HETATM   21  C   UNL     1      39.936 -10.733   9.574  1.00  0.00     0.044 A 
HETATM   22  C   UNL     1      39.975 -10.925   8.192  1.00  0.00     0.032 A 
ENDBRANCH  13  16
ENDBRANCH  10  12
BRANCH   9  23
HETATM   23  C   UNL     1      41.654 -14.342   3.331  1.00  0.00    -0.005 A 
HETATM   24  C   UNL     1      42.625 -15.004   4.115  1.00  0.00     0.064 A 
HETATM   25 CL   UNL     1      43.809 -14.091   4.999  1.00  0.00    -0.082 Cl
HETATM   26  C   UNL     1      42.626 -16.409   4.193  1.00  0.00     0.056 A 
HETATM   27 CL   UNL     1      43.790 -17.288   5.125  1.00  0.00    -0.083 Cl
HETATM   28  C   UNL     1      41.667 -17.157   3.507  1.00  0.00     0.026 A 
HETATM   29  C   UNL     1      40.699 -16.516   2.741  1.00  0.00     0.002 A 
HETATM   30  C   UNL     1      40.692 -15.125   2.654  1.00  0.00     0.011 A 
ENDBRANCH   9  23
BRANCH   7  31
HETATM   31  C   UNL     1      42.779 -11.839  -1.459  1.00  0.00     0.085 C 
BRANCH  31  32
HETATM   32  C   UNL     1      42.053 -12.384  -2.690  1.00  0.00     0.034 C 
BRANCH  32  33
HETATM   33  C   UNL     1      41.653 -13.849  -2.552  1.00  0.00     0.164 C 
BRANCH  33  34
HETATM   34  O   UNL     1      42.289 -14.618  -3.567  1.00  0.00    -0.401 OA
HETATM   35  H   UNL     1      42.036 -14.237  -4.425  1.00  0.00     0.209 HD
ENDBRANCH  33  34
ENDBRANCH  32  33
ENDBRANCH  31  32
ENDBRANCH   7  31
TORSDOF 7
ENDMDL
MODEL 9
REMARK VINA RESULT:      -6.6      3.376      6.040
REMARK  7 active torsions:
REMARK  status: ('A' for Active; 'I' for Inactive)
REMARK    1  A    between atoms: C_7  and  C_8 
REMARK    2  A    between atoms: C_8  and  C_9 
REMARK    3  A    between atoms: C_9  and  C_10 
REMARK    4  A    between atoms: C_10  and  O_11 
REMARK    5  A    between atoms: C_13  and  C_14 
REMARK    6  A    between atoms: C_22  and  C_23 
REMARK       I    between atoms: C_23  and  N_24 
REMARK    7  A    between atoms: N_24  and  C_25 
ROOT
HETATM    1  C   UNL     1      43.375 -17.918   0.987  1.00  0.00     0.070 C 
HETATM    2  C   UNL     1      42.352 -16.807   0.995  1.00  0.00     0.037 C 
HETATM    3  N   UNL     1      42.157 -16.155  -0.220  1.00  0.00    -0.192 N 
HETATM    4  C   UNL     1      41.152 -15.286  -0.433  1.00  0.00     0.726 A 
HETATM    5  N   UNL     1      40.408 -14.857   0.629  1.00  0.00    -0.083 N 
HETATM    6  N   UNL     1      39.356 -14.115   0.228  1.00  0.00    -0.140 NA
HETATM    7  C   UNL     1      39.557 -14.094  -1.099  1.00  0.00     0.166 A 
HETATM    8  N   UNL     1      40.663 -14.786  -1.536  1.00  0.00    -0.046 NA
HETATM    9  C   UNL     1      40.598 -15.323   2.009  1.00  0.00     0.204 C 
HETATM   10  C   UNL     1      41.610 -16.461   2.081  1.00  0.00     0.062 C 
HETATM   11  H   UNL     1      42.653 -16.522  -1.029  1.00  0.00     0.184 HD
ENDROOT
BRANCH  10  12
HETATM   12  C   UNL     1      41.803 -17.161   3.384  1.00  0.00     0.256 C 
HETATM   13  N   UNL     1      42.928 -16.766   4.079  1.00  0.00    -0.323 N 
HETATM   14  H   UNL     1      43.582 -16.134   3.640  1.00  0.00     0.169 HD
HETATM   15  O   UNL     1      40.996 -18.014   3.739  1.00  0.00    -0.267 OA
BRANCH  13  16
HETATM   16  C   UNL     1      43.283 -17.132   5.397  1.00  0.00     0.035 A 
HETATM   17  C   UNL     1      42.879 -16.430   6.536  1.00  0.00     0.032 A 
HETATM   18  C   UNL     1      43.323 -16.824   7.802  1.00  0.00     0.044 A 
HETATM   19  C   UNL     1      44.159 -17.925   7.928  1.00  0.00     0.116 A 
HETATM   20  F   UNL     1      44.585 -18.298   9.142  1.00  0.00    -0.206 F 
HETATM   21  C   UNL     1      44.563 -18.641   6.810  1.00  0.00     0.044 A 
HETATM   22  C   UNL     1      44.132 -18.240   5.545  1.00  0.00     0.032 A 
ENDBRANCH  13  16
ENDBRANCH  10  12
BRANCH   9  23
HETATM   23  C   UNL     1      40.960 -14.140   2.905  1.00  0.00    -0.005 A 
HETATM   24  C   UNL     1      40.506 -14.030   4.237  1.00  0.00     0.064 A 
HETATM   25 CL   UNL     1      39.541 -15.291   4.942  1.00  0.00    -0.082 Cl
HETATM   26  C   UNL     1      40.847 -12.901   5.006  1.00  0.00     0.056 A 
HETATM   27 CL   UNL     1      40.319 -12.694   6.641  1.00  0.00    -0.083 Cl
HETATM   28  C   UNL     1      41.642 -11.889   4.462  1.00  0.00     0.026 A 
HETATM   29  C   UNL     1      42.104 -11.992   3.154  1.00  0.00     0.002 A 
HETATM   30  C   UNL     1      41.767 -13.103   2.384  1.00  0.00     0.011 A 
ENDBRANCH   9  23
BRANCH   7  31
HETATM   31  C   UNL     1      38.593 -13.469  -2.037  1.00  0.00     0.085 C 
BRANCH  31  32
HETATM   32  C   UNL     1      38.683 -14.049  -3.449  1.00  0.00     0.034 C 
BRANCH  32  33
HETATM   33  C   UNL     1      37.783 -15.262  -3.659  1.00  0.00     0.164 C 
BRANCH  33  34
HETATM   34  O   UNL     1      38.527 -16.456  -3.444  1.00  0.00    -0.401 OA
HETATM   35  H   UNL     1      38.775 -16.808  -4.315  1.00  0.00     0.209 HD
ENDBRANCH  33  34
ENDBRANCH  32  33
ENDBRANCH  31  32
ENDBRANCH   7  31
TORSDOF 7
ENDMDL
MODEL 10
REMARK VINA RESULT:      -6.4      4.662      7.722
REMARK  7 active torsions:
REMARK  status: ('A' for Active; 'I' for Inactive)
REMARK    1  A    between atoms: C_7  and  C_8 
REMARK    2  A    between atoms: C_8  and  C_9 
REMARK    3  A    between atoms: C_9  and  C_10 
REMARK    4  A    between atoms: C_10  and  O_11 
REMARK    5  A    between atoms: C_13  and  C_14 
REMARK    6  A    between atoms: C_22  and  C_23 
REMARK       I    between atoms: C_23  and  N_24 
REMARK    7  A    between atoms: N_24  and  C_25 
ROOT
HETATM    1  C   UNL     1      42.452 -17.132   0.711  1.00  0.00     0.070 C 
HETATM    2  C   UNL     1      41.554 -16.043   0.177  1.00  0.00     0.037 C 
HETATM    3  N   UNL     1      41.372 -16.031  -1.204  1.00  0.00    -0.192 N 
HETATM    4  C   UNL     1      40.455 -15.259  -1.817  1.00  0.00     0.726 A 
HETATM    5  N   UNL     1      39.812 -14.295  -1.097  1.00  0.00    -0.083 N 
HETATM    6  N   UNL     1      38.826 -13.717  -1.814  1.00  0.00    -0.140 NA
HETATM    7  C   UNL     1      38.966 -14.354  -2.987  1.00  0.00     0.166 A 
HETATM    8  N   UNL     1      39.971 -15.294  -3.029  1.00  0.00    -0.046 NA
HETATM    9  C   UNL     1      40.017 -14.064   0.339  1.00  0.00     0.204 C 
HETATM   10  C   UNL     1      40.906 -15.137   0.956  1.00  0.00     0.062 C 
HETATM   11  H   UNL     1      41.787 -16.794  -1.735  1.00  0.00     0.184 HD
ENDROOT
BRANCH  10  12
HETATM   12  C   UNL     1      41.085 -15.148   2.438  1.00  0.00     0.256 C 
HETATM   13  N   UNL     1      42.396 -15.031   2.851  1.00  0.00    -0.323 N 
HETATM   14  H   UNL     1      43.134 -15.049   2.162  1.00  0.00     0.169 HD
HETATM   15  O   UNL     1      40.105 -15.268   3.166  1.00  0.00    -0.267 OA
BRANCH  13  16
HETATM   16  C   UNL     1      42.856 -14.853   4.176  1.00  0.00     0.035 A 
HETATM   17  C   UNL     1      42.955 -13.609   4.806  1.00  0.00     0.032 A 
HETATM   18  C   UNL     1      43.475 -13.514   6.100  1.00  0.00     0.044 A 
HETATM   19  C   UNL     1      43.884 -14.662   6.766  1.00  0.00     0.116 A 
HETATM   20  F   UNL     1      44.385 -14.567   8.004  1.00  0.00    -0.206 F 
HETATM   21  C   UNL     1      43.784 -15.907   6.161  1.00  0.00     0.044 A 
HETATM   22  C   UNL     1      43.277 -16.002   4.863  1.00  0.00     0.032 A 
ENDBRANCH  13  16
ENDBRANCH  10  12
BRANCH   9  23
HETATM   23  C   UNL     1      40.543 -12.647   0.562  1.00  0.00    -0.005 A 
HETATM   24  C   UNL     1      39.872 -11.707   1.373  1.00  0.00     0.064 A 
HETATM   25 CL   UNL     1      38.417 -12.152   2.212  1.00  0.00    -0.082 Cl
HETATM   26  C   UNL     1      40.390 -10.406   1.517  1.00  0.00     0.056 A 
HETATM   27 CL   UNL     1      39.617  -9.198   2.487  1.00  0.00    -0.083 Cl
HETATM   28  C   UNL     1      41.571 -10.038   0.869  1.00  0.00     0.026 A 
HETATM   29  C   UNL     1      42.247 -10.960   0.076  1.00  0.00     0.002 A 
HETATM   30  C   UNL     1      41.740 -12.249  -0.076  1.00  0.00     0.011 A 
ENDBRANCH   9  23
BRANCH   7  31
HETATM   31  C   UNL     1      38.029 -14.146  -4.119  1.00  0.00     0.085 C 
BRANCH  31  32
HETATM   32  C   UNL     1      36.645 -14.741  -3.857  1.00  0.00     0.034 C 
BRANCH  32  33
HETATM   33  C   UNL     1      35.597 -14.292  -4.869  1.00  0.00     0.164 C 
BRANCH  33  34
HETATM   34  O   UNL     1      36.156 -14.308  -6.178  1.00  0.00    -0.401 OA
HETATM   35  H   UNL     1      36.953 -13.753  -6.164  1.00  0.00     0.209 HD
ENDBRANCH  33  34
ENDBRANCH  32  33
ENDBRANCH  31  32
ENDBRANCH   7  31
TORSDOF 7
ENDMDL
