MODEL 1
REMARK VINA RESULT:      -8.4      0.000      0.000
REMARK  2 active torsions:
REMARK  status: ('A' for Active; 'I' for Inactive)
REMARK    1  A    between atoms: C_4  and  C_5 
REMARK    2  A    between atoms: C_10  and  C_11 
ROOT
HETATM    1  C   UNL     1      42.894 -17.651   4.902  1.00  0.00     0.202 C 
HETATM    2  N   UNL     1      43.828 -17.118   5.879  1.00  0.00    -0.331 N 
HETATM    3  C   UNL     1      45.004 -17.906   6.192  1.00  0.00     0.155 C 
HETATM    4  C   UNL     1      43.796 -15.778   6.234  1.00  0.00     0.256 C 
HETATM    5  O   UNL     1      44.718 -15.200   6.805  1.00  0.00    -0.267 OA
HETATM    6  C   UNL     1      42.561 -15.037   5.894  1.00  0.00     0.053 A 
HETATM    7  C   UNL     1      41.485 -15.753   5.360  1.00  0.00     0.026 A 
HETATM    8  N   UNL     1      41.560 -17.144   5.196  1.00  0.00    -0.266 NA
HETATM    9  C   UNL     1      42.470 -13.659   6.130  1.00  0.00     0.019 A 
HETATM   10  C   UNL     1      41.279 -12.990   5.855  1.00  0.00     0.001 A 
HETATM   11  C   UNL     1      40.185 -13.700   5.365  1.00  0.00     0.002 A 
HETATM   12  C   UNL     1      40.281 -15.077   5.136  1.00  0.00     0.024 A 
HETATM   13  H   UNL     1      40.882 -17.497   4.525  1.00  0.00     0.130 HD
ENDROOT
BRANCH   1  14
HETATM   14  C   UNL     1      43.385 -17.428   3.495  1.00  0.00     0.029 A 
HETATM   15  C   UNL     1      43.939 -18.405   2.618  1.00  0.00     0.121 A 
HETATM   16  N   UNL     1      44.275 -17.886   1.429  1.00  0.00    -0.172 NA
HETATM   17  N   UNL     1      43.926 -16.596   1.527  1.00  0.00    -0.288 N 
HETATM   18  H   UNL     1      44.081 -15.991   0.726  1.00  0.00     0.188 HD
HETATM   19  C   UNL     1      43.391 -16.271   2.734  1.00  0.00     0.122 A 
BRANCH  15  20
HETATM   20  C   UNL     1      44.143 -19.855   2.923  1.00  0.00     0.106 A 
HETATM   21  O   UNL     1      44.610 -20.346   4.111  1.00  0.00    -0.313 OA
HETATM   22  C   UNL     1      44.674 -21.702   4.000  1.00  0.00     0.050 A 
HETATM   23  C   UNL     1      45.179 -22.442   5.175  1.00  0.00     0.076 C 
HETATM   24  C   UNL     1      44.237 -22.095   2.755  1.00  0.00     0.035 A 
HETATM   25  C   UNL     1      43.894 -20.909   2.063  1.00  0.00     0.042 A 
ENDBRANCH  15  20
ENDBRANCH   1  14
TORSDOF 2
ENDMDL
MODEL 2
REMARK VINA RESULT:      -8.3      2.116      3.679
REMARK  2 active torsions:
REMARK  status: ('A' for Active; 'I' for Inactive)
REMARK    1  A    between atoms: C_4  and  C_5 
REMARK    2  A    between atoms: C_10  and  C_11 
ROOT
HETATM    1  C   UNL     1      41.941 -18.163   5.090  1.00  0.00     0.202 C 
HETATM    2  N   UNL     1      41.075 -17.016   5.308  1.00  0.00    -0.331 N 
HETATM    3  C   UNL     1      40.499 -16.844   6.627  1.00  0.00     0.155 C 
HETATM    4  C   UNL     1      41.075 -15.949   4.423  1.00  0.00     0.256 C 
HETATM    5  O   UNL     1      40.613 -14.842   4.689  1.00  0.00    -0.267 OA
HETATM    6  C   UNL     1      41.669 -16.198   3.091  1.00  0.00     0.053 A 
HETATM    7  C   UNL     1      42.069 -17.501   2.778  1.00  0.00     0.026 A 
HETATM    8  N   UNL     1      41.869 -18.550   3.687  1.00  0.00    -0.266 NA
HETATM    9  C   UNL     1      41.797 -15.157   2.162  1.00  0.00     0.019 A 
HETATM   10  C   UNL     1      42.307 -15.424   0.894  1.00  0.00     0.001 A 
HETATM   11  C   UNL     1      42.668 -16.727   0.554  1.00  0.00     0.002 A 
HETATM   12  C   UNL     1      42.532 -17.762   1.485  1.00  0.00     0.024 A 
HETATM   13  H   UNL     1      42.469 -19.350   3.501  1.00  0.00     0.130 HD
ENDROOT
BRANCH   1  14
HETATM   14  C   UNL     1      43.325 -17.916   5.632  1.00  0.00     0.029 A 
HETATM   15  C   UNL     1      44.465 -18.757   5.481  1.00  0.00     0.121 A 
HETATM   16  N   UNL     1      45.552 -18.250   6.081  1.00  0.00    -0.172 NA
HETATM   17  N   UNL     1      45.127 -17.088   6.595  1.00  0.00    -0.288 N 
HETATM   18  H   UNL     1      45.793 -16.511   7.099  1.00  0.00     0.188 HD
HETATM   19  C   UNL     1      43.811 -16.840   6.357  1.00  0.00     0.122 A 
BRANCH  15  20
HETATM   20  C   UNL     1      44.514 -20.060   4.748  1.00  0.00     0.106 A 
HETATM   21  O   UNL     1      44.354 -20.203   3.397  1.00  0.00    -0.313 OA
HETATM   22  C   UNL     1      44.446 -21.531   3.110  1.00  0.00     0.050 A 
HETATM   23  C   UNL     1      44.279 -21.918   1.694  1.00  0.00     0.076 C 
HETATM   24  C   UNL     1      44.680 -22.249   4.262  1.00  0.00     0.035 A 
HETATM   25  C   UNL     1      44.727 -21.303   5.314  1.00  0.00     0.042 A 
ENDBRANCH  15  20
ENDBRANCH   1  14
TORSDOF 2
ENDMDL
MODEL 3
REMARK VINA RESULT:      -8.1      2.228      4.911
REMARK  2 active torsions:
REMARK  status: ('A' for Active; 'I' for Inactive)
REMARK    1  A    between atoms: C_4  and  C_5 
REMARK    2  A    between atoms: C_10  and  C_11 
ROOT
HETATM    1  C   UNL     1      41.466 -16.128   5.092  1.00  0.00     0.202 C 
HETATM    2  N   UNL     1      40.806 -15.358   4.052  1.00  0.00    -0.331 N 
HETATM    3  C   UNL     1      39.911 -14.293   4.462  1.00  0.00     0.155 C 
HETATM    4  C   UNL     1      41.267 -15.390   2.745  1.00  0.00     0.256 C 
HETATM    5  O   UNL     1      40.964 -14.557   1.893  1.00  0.00    -0.267 OA
HETATM    6  C   UNL     1      42.168 -16.509   2.392  1.00  0.00     0.053 A 
HETATM    7  C   UNL     1      42.389 -17.506   3.348  1.00  0.00     0.026 A 
HETATM    8  N   UNL     1      41.738 -17.468   4.588  1.00  0.00    -0.266 NA
HETATM    9  C   UNL     1      42.756 -16.577   1.123  1.00  0.00     0.019 A 
HETATM   10  C   UNL     1      43.556 -17.668   0.791  1.00  0.00     0.001 A 
HETATM   11  C   UNL     1      43.749 -18.690   1.719  1.00  0.00     0.002 A 
HETATM   12  C   UNL     1      43.154 -18.619   2.983  1.00  0.00     0.024 A 
HETATM   13  H   UNL     1      42.204 -18.033   5.295  1.00  0.00     0.130 HD
ENDROOT
BRANCH   1  14
HETATM   14  C   UNL     1      42.650 -15.387   5.657  1.00  0.00     0.029 A 
HETATM   15  C   UNL     1      43.671 -15.919   6.497  1.00  0.00     0.121 A 
HETATM   16  N   UNL     1      44.588 -14.998   6.824  1.00  0.00    -0.172 NA
HETATM   17  N   UNL     1      44.179 -13.891   6.190  1.00  0.00    -0.288 N 
HETATM   18  H   UNL     1      44.735 -13.047   6.285  1.00  0.00     0.188 HD
HETATM   19  C   UNL     1      43.032 -14.067   5.481  1.00  0.00     0.122 A 
BRANCH  15  20
HETATM   20  C   UNL     1      43.770 -17.329   6.986  1.00  0.00     0.106 A 
HETATM   21  O   UNL     1      43.888 -18.429   6.182  1.00  0.00    -0.313 OA
HETATM   22  C   UNL     1      43.933 -19.526   6.988  1.00  0.00     0.050 A 
HETATM   23  C   UNL     1      44.039 -20.838   6.319  1.00  0.00     0.076 C 
HETATM   24  C   UNL     1      43.861 -19.144   8.310  1.00  0.00     0.035 A 
HETATM   25  C   UNL     1      43.758 -17.732   8.309  1.00  0.00     0.042 A 
ENDBRANCH  15  20
ENDBRANCH   1  14
TORSDOF 2
ENDMDL
MODEL 4
REMARK VINA RESULT:      -7.9      3.263      6.017
REMARK  2 active torsions:
REMARK  status: ('A' for Active; 'I' for Inactive)
REMARK    1  A    between atoms: C_4  and  C_5 
REMARK    2  A    between atoms: C_10  and  C_11 
ROOT
HETATM    1  C   UNL     1      41.289 -16.472   3.597  1.00  0.00     0.202 C 
HETATM    2  N   UNL     1      41.833 -17.631   2.912  1.00  0.00    -0.331 N 
HETATM    3  C   UNL     1      41.589 -17.753   1.488  1.00  0.00     0.155 C 
HETATM    4  C   UNL     1      42.830 -18.398   3.496  1.00  0.00     0.256 C 
HETATM    5  O   UNL     1      43.537 -19.188   2.875  1.00  0.00    -0.267 OA
HETATM    6  C   UNL     1      43.019 -18.232   4.954  1.00  0.00     0.053 A 
HETATM    7  C   UNL     1      42.115 -17.421   5.650  1.00  0.00     0.026 A 
HETATM    8  N   UNL     1      41.034 -16.822   4.989  1.00  0.00    -0.266 NA
HETATM    9  C   UNL     1      44.058 -18.895   5.618  1.00  0.00     0.019 A 
HETATM   10  C   UNL     1      44.185 -18.769   7.000  1.00  0.00     0.001 A 
HETATM   11  C   UNL     1      43.265 -18.000   7.710  1.00  0.00     0.002 A 
HETATM   12  C   UNL     1      42.225 -17.345   7.042  1.00  0.00     0.024 A 
HETATM   13  H   UNL     1      40.654 -16.027   5.498  1.00  0.00     0.130 HD
ENDROOT
BRANCH   1  14
HETATM   14  C   UNL     1      42.142 -15.251   3.373  1.00  0.00     0.029 A 
HETATM   15  C   UNL     1      41.931 -14.226   2.406  1.00  0.00     0.121 A 
HETATM   16  N   UNL     1      42.870 -13.271   2.467  1.00  0.00    -0.172 NA
HETATM   17  N   UNL     1      43.667 -13.661   3.471  1.00  0.00    -0.288 N 
HETATM   18  H   UNL     1      44.461 -13.077   3.713  1.00  0.00     0.188 HD
HETATM   19  C   UNL     1      43.279 -14.832   4.045  1.00  0.00     0.122 A 
BRANCH  15  20
HETATM   20  C   UNL     1      40.812 -14.158   1.417  1.00  0.00     0.106 A 
HETATM   21  O   UNL     1      39.485 -14.079   1.741  1.00  0.00    -0.313 OA
HETATM   22  C   UNL     1      38.777 -14.054   0.578  1.00  0.00     0.050 A 
HETATM   23  C   UNL     1      37.306 -13.990   0.697  1.00  0.00     0.076 C 
HETATM   24  C   UNL     1      39.635 -14.100  -0.498  1.00  0.00     0.035 A 
HETATM   25  C   UNL     1      40.942 -14.165   0.040  1.00  0.00     0.042 A 
ENDBRANCH  15  20
ENDBRANCH   1  14
TORSDOF 2
ENDMDL
MODEL 5
REMARK VINA RESULT:      -7.9      2.747      6.180
REMARK  2 active torsions:
REMARK  status: ('A' for Active; 'I' for Inactive)
REMARK    1  A    between atoms: C_4  and  C_5 
REMARK    2  A    between atoms: C_10  and  C_11 
ROOT
HETATM    1  C   UNL     1      43.238 -14.984   4.756  1.00  0.00     0.202 C 
HETATM    2  N   UNL     1      43.773 -15.995   5.652  1.00  0.00    -0.331 N 
HETATM    3  C   UNL     1      43.958 -15.636   7.044  1.00  0.00     0.155 C 
HETATM    4  C   UNL     1      43.777 -17.333   5.290  1.00  0.00     0.256 C 
HETATM    5  O   UNL     1      43.926 -18.256   6.088  1.00  0.00    -0.267 OA
HETATM    6  C   UNL     1      43.593 -17.627   3.852  1.00  0.00     0.053 A 
HETATM    7  C   UNL     1      43.554 -16.553   2.957  1.00  0.00     0.026 A 
HETATM    8  N   UNL     1      43.731 -15.237   3.408  1.00  0.00    -0.266 NA
HETATM    9  C   UNL     1      43.493 -18.950   3.402  1.00  0.00     0.019 A 
HETATM   10  C   UNL     1      43.377 -19.207   2.038  1.00  0.00     0.001 A 
HETATM   11  C   UNL     1      43.381 -18.148   1.132  1.00  0.00     0.002 A 
HETATM   12  C   UNL     1      43.488 -16.829   1.588  1.00  0.00     0.024 A 
HETATM   13  H   UNL     1      43.369 -14.546   2.755  1.00  0.00     0.130 HD
ENDROOT
BRANCH   1  14
HETATM   14  C   UNL     1      41.742 -14.864   4.896  1.00  0.00     0.029 A 
HETATM   15  C   UNL     1      40.845 -14.239   3.982  1.00  0.00     0.121 A 
HETATM   16  N   UNL     1      39.572 -14.306   4.396  1.00  0.00    -0.172 NA
HETATM   17  N   UNL     1      39.640 -14.981   5.551  1.00  0.00    -0.288 N 
HETATM   18  H   UNL     1      38.778 -15.166   6.055  1.00  0.00     0.188 HD
HETATM   19  C   UNL     1      40.907 -15.338   5.895  1.00  0.00     0.122 A 
BRANCH  15  20
HETATM   20  C   UNL     1      41.214 -13.575   2.693  1.00  0.00     0.106 A 
HETATM   21  O   UNL     1      41.267 -14.202   1.478  1.00  0.00    -0.313 OA
HETATM   22  C   UNL     1      41.654 -13.278   0.555  1.00  0.00     0.050 A 
HETATM   23  C   UNL     1      41.799 -13.750  -0.837  1.00  0.00     0.076 C 
HETATM   24  C   UNL     1      41.837 -12.054   1.159  1.00  0.00     0.035 A 
HETATM   25  C   UNL     1      41.551 -12.244   2.533  1.00  0.00     0.042 A 
ENDBRANCH  15  20
ENDBRANCH   1  14
TORSDOF 2
ENDMDL
MODEL 6
REMARK VINA RESULT:      -7.9      3.651      6.400
REMARK  2 active torsions:
REMARK  status: ('A' for Active; 'I' for Inactive)
REMARK    1  A    between atoms: C_4  and  C_5 
REMARK    2  A    between atoms: C_10  and  C_11 
ROOT
HETATM    1  C   UNL     1      42.837 -14.983   2.355  1.00  0.00     0.202 C 
HETATM    2  N   UNL     1      43.251 -14.863   3.742  1.00  0.00    -0.331 N 
HETATM    3  C   UNL     1      43.125 -13.565   4.377  1.00  0.00     0.155 C 
HETATM    4  C   UNL     1      43.423 -15.989   4.532  1.00  0.00     0.256 C 
HETATM    5  O   UNL     1      43.473 -15.962   5.759  1.00  0.00    -0.267 OA
HETATM    6  C   UNL     1      43.555 -17.279   3.818  1.00  0.00     0.053 A 
HETATM    7  C   UNL     1      43.622 -17.258   2.421  1.00  0.00     0.026 A 
HETATM    8  N   UNL     1      43.609 -16.044   1.721  1.00  0.00    -0.266 NA
HETATM    9  C   UNL     1      43.642 -18.481   4.531  1.00  0.00     0.019 A 
HETATM   10  C   UNL     1      43.823 -19.679   3.843  1.00  0.00     0.001 A 
HETATM   11  C   UNL     1      43.935 -19.667   2.454  1.00  0.00     0.002 A 
HETATM   12  C   UNL     1      43.853 -18.462   1.748  1.00  0.00     0.024 A 
HETATM   13  H   UNL     1      43.339 -16.155   0.747  1.00  0.00     0.130 HD
ENDROOT
BRANCH   1  14
HETATM   14  C   UNL     1      41.340 -15.101   2.237  1.00  0.00     0.029 A 
HETATM   15  C   UNL     1      40.551 -14.851   1.077  1.00  0.00     0.121 A 
HETATM   16  N   UNL     1      39.244 -15.052   1.300  1.00  0.00    -0.172 NA
HETATM   17  N   UNL     1      39.189 -15.446   2.580  1.00  0.00    -0.288 N 
HETATM   18  H   UNL     1      38.283 -15.668   2.978  1.00  0.00     0.188 HD
HETATM   19  C   UNL     1      40.407 -15.493   3.184  1.00  0.00     0.122 A 
BRANCH  15  20
HETATM   20  C   UNL     1      41.057 -14.419  -0.262  1.00  0.00     0.106 A 
HETATM   21  O   UNL     1      41.775 -13.278  -0.497  1.00  0.00    -0.313 OA
HETATM   22  C   UNL     1      42.037 -13.223  -1.832  1.00  0.00     0.050 A 
HETATM   23  C   UNL     1      42.792 -12.048  -2.313  1.00  0.00     0.076 C 
HETATM   24  C   UNL     1      41.510 -14.328  -2.463  1.00  0.00     0.035 A 
HETATM   25  C   UNL     1      40.882 -15.098  -1.454  1.00  0.00     0.042 A 
ENDBRANCH  15  20
ENDBRANCH   1  14
TORSDOF 2
ENDMDL
MODEL 7
REMARK VINA RESULT:      -7.8      2.388      2.955
REMARK  2 active torsions:
REMARK  status: ('A' for Active; 'I' for Inactive)
REMARK    1  A    between atoms: C_4  and  C_5 
REMARK    2  A    between atoms: C_10  and  C_11 
ROOT
HETATM    1  C   UNL     1      41.797 -16.524   3.869  1.00  0.00     0.202 C 
HETATM    2  N   UNL     1      42.259 -15.278   4.455  1.00  0.00    -0.331 N 
HETATM    3  C   UNL     1      43.351 -15.340   5.406  1.00  0.00     0.155 C 
HETATM    4  C   UNL     1      41.926 -14.059   3.884  1.00  0.00     0.256 C 
HETATM    5  O   UNL     1      42.510 -13.006   4.133  1.00  0.00    -0.267 OA
HETATM    6  C   UNL     1      40.795 -14.065   2.930  1.00  0.00     0.053 A 
HETATM    7  C   UNL     1      40.074 -15.253   2.768  1.00  0.00     0.026 A 
HETATM    8  N   UNL     1      40.387 -16.392   3.524  1.00  0.00    -0.266 NA
HETATM    9  C   UNL     1      40.443 -12.902   2.235  1.00  0.00     0.019 A 
HETATM   10  C   UNL     1      39.340 -12.914   1.384  1.00  0.00     0.001 A 
HETATM   11  C   UNL     1      38.587 -14.079   1.247  1.00  0.00     0.002 A 
HETATM   12  C   UNL     1      38.940 -15.236   1.949  1.00  0.00     0.024 A 
HETATM   13  H   UNL     1      40.035 -17.249   3.106  1.00  0.00     0.130 HD
ENDROOT
BRANCH   1  14
HETATM   14  C   UNL     1      42.705 -16.976   2.755  1.00  0.00     0.029 A 
HETATM   15  C   UNL     1      43.648 -18.044   2.800  1.00  0.00     0.121 A 
HETATM   16  N   UNL     1      44.299 -18.194   1.638  1.00  0.00    -0.172 NA
HETATM   17  N   UNL     1      43.772 -17.251   0.845  1.00  0.00    -0.288 N 
HETATM   18  H   UNL     1      44.111 -17.178  -0.109  1.00  0.00     0.188 HD
HETATM   19  C   UNL     1      42.819 -16.499   1.459  1.00  0.00     0.122 A 
BRANCH  15  20
HETATM   20  C   UNL     1      43.924 -18.933   3.970  1.00  0.00     0.106 A 
HETATM   21  O   UNL     1      43.603 -18.640   5.268  1.00  0.00    -0.313 OA
HETATM   22  C   UNL     1      44.025 -19.678   6.041  1.00  0.00     0.050 A 
HETATM   23  C   UNL     1      43.797 -19.559   7.496  1.00  0.00     0.076 C 
HETATM   24  C   UNL     1      44.602 -20.650   5.254  1.00  0.00     0.035 A 
HETATM   25  C   UNL     1      44.535 -20.172   3.923  1.00  0.00     0.042 A 
ENDBRANCH  15  20
ENDBRANCH   1  14
TORSDOF 2
ENDMDL
MODEL 8
REMARK VINA RESULT:      -7.6      2.497      6.918
REMARK  2 active torsions:
REMARK  status: ('A' for Active; 'I' for Inactive)
REMARK    1  A    between atoms: C_4  and  C_5 
REMARK    2  A    between atoms: C_10  and  C_11 
ROOT
HETATM    1  C   UNL     1      41.234 -16.180   4.061  1.00  0.00     0.202 C 
HETATM    2  N   UNL     1      40.725 -16.590   2.764  1.00  0.00    -0.331 N 
HETATM    3  C   UNL     1      39.689 -15.779   2.155  1.00  0.00     0.155 C 
HETATM    4  C   UNL     1      41.426 -17.494   1.980  1.00  0.00     0.256 C 
HETATM    5  O   UNL     1      41.226 -17.654   0.778  1.00  0.00    -0.267 OA
HETATM    6  C   UNL     1      42.462 -18.296   2.667  1.00  0.00     0.053 A 
HETATM    7  C   UNL     1      42.575 -18.180   4.056  1.00  0.00     0.026 A 
HETATM    8  N   UNL     1      41.700 -17.359   4.781  1.00  0.00    -0.266 NA
HETATM    9  C   UNL     1      43.283 -19.170   1.942  1.00  0.00     0.019 A 
HETATM   10  C   UNL     1      44.214 -19.958   2.615  1.00  0.00     0.001 A 
HETATM   11  C   UNL     1      44.306 -19.884   4.004  1.00  0.00     0.002 A 
HETATM   12  C   UNL     1      43.479 -19.014   4.722  1.00  0.00     0.024 A 
HETATM   13  H   UNL     1      42.066 -17.104   5.694  1.00  0.00     0.130 HD
ENDROOT
BRANCH   1  14
HETATM   14  C   UNL     1      42.229 -15.056   3.931  1.00  0.00     0.029 A 
HETATM   15  C   UNL     1      42.080 -13.723   4.411  1.00  0.00     0.121 A 
HETATM   16  N   UNL     1      43.150 -12.964   4.138  1.00  0.00    -0.172 NA
HETATM   17  N   UNL     1      43.989 -13.798   3.508  1.00  0.00    -0.288 N 
HETATM   18  H   UNL     1      44.890 -13.440   3.206  1.00  0.00     0.188 HD
HETATM   19  C   UNL     1      43.490 -15.055   3.359  1.00  0.00     0.122 A 
BRANCH  15  20
HETATM   20  C   UNL     1      40.899 -13.172   5.145  1.00  0.00     0.106 A 
HETATM   21  O   UNL     1      40.952 -12.574   6.375  1.00  0.00    -0.313 OA
HETATM   22  C   UNL     1      39.681 -12.223   6.717  1.00  0.00     0.050 A 
HETATM   23  C   UNL     1      39.503 -11.574   8.032  1.00  0.00     0.076 C 
HETATM   24  C   UNL     1      38.807 -12.574   5.712  1.00  0.00     0.035 A 
HETATM   25  C   UNL     1      39.589 -13.182   4.701  1.00  0.00     0.042 A 
ENDBRANCH  15  20
ENDBRANCH   1  14
TORSDOF 2
ENDMDL
MODEL 9
REMARK VINA RESULT:      -7.5      3.324      6.728
REMARK  2 active torsions:
REMARK  status: ('A' for Active; 'I' for Inactive)
REMARK    1  A    between atoms: C_4  and  C_5 
REMARK    2  A    between atoms: C_10  and  C_11 
ROOT
HETATM    1  C   UNL     1      42.832 -15.449   2.455  1.00  0.00     0.202 C 
HETATM    2  N   UNL     1      43.160 -15.168   3.842  1.00  0.00    -0.331 N 
HETATM    3  C   UNL     1      42.899 -13.832   4.343  1.00  0.00     0.155 C 
HETATM    4  C   UNL     1      43.376 -16.199   4.743  1.00  0.00     0.256 C 
HETATM    5  O   UNL     1      43.357 -16.055   5.963  1.00  0.00    -0.267 OA
HETATM    6  C   UNL     1      43.646 -17.533   4.164  1.00  0.00     0.053 A 
HETATM    7  C   UNL     1      43.786 -17.636   2.776  1.00  0.00     0.026 A 
HETATM    8  N   UNL     1      43.717 -16.497   1.962  1.00  0.00    -0.266 NA
HETATM    9  C   UNL     1      43.787 -18.654   4.992  1.00  0.00     0.019 A 
HETATM   10  C   UNL     1      44.097 -19.891   4.432  1.00  0.00     0.001 A 
HETATM   11  C   UNL     1      44.282 -19.998   3.054  1.00  0.00     0.002 A 
HETATM   12  C   UNL     1      44.146 -18.874   2.233  1.00  0.00     0.024 A 
HETATM   13  H   UNL     1      43.509 -16.719   0.992  1.00  0.00     0.130 HD
ENDROOT
BRANCH   1  14
HETATM   14  C   UNL     1      41.356 -15.700   2.280  1.00  0.00     0.029 A 
HETATM   15  C   UNL     1      40.386 -14.784   1.780  1.00  0.00     0.121 A 
HETATM   16  N   UNL     1      39.157 -15.318   1.745  1.00  0.00    -0.172 NA
HETATM   17  N   UNL     1      39.331 -16.567   2.196  1.00  0.00    -0.288 N 
HETATM   18  H   UNL     1      38.522 -17.178   2.250  1.00  0.00     0.188 HD
HETATM   19  C   UNL     1      40.620 -16.847   2.528  1.00  0.00     0.122 A 
BRANCH  15  20
HETATM   20  C   UNL     1      40.643 -13.382   1.326  1.00  0.00     0.106 A 
HETATM   21  O   UNL     1      40.423 -12.263   2.082  1.00  0.00    -0.313 OA
HETATM   22  C   UNL     1      40.757 -11.182   1.324  1.00  0.00     0.050 A 
HETATM   23  C   UNL     1      40.575  -9.854   1.944  1.00  0.00     0.076 C 
HETATM   24  C   UNL     1      41.207 -11.592   0.088  1.00  0.00     0.035 A 
HETATM   25  C   UNL     1      41.136 -13.006   0.091  1.00  0.00     0.042 A 
ENDBRANCH  15  20
ENDBRANCH   1  14
TORSDOF 2
ENDMDL
MODEL 10
REMARK VINA RESULT:      -7.4      3.976      7.108
REMARK  2 active torsions:
REMARK  status: ('A' for Active; 'I' for Inactive)
REMARK    1  A    between atoms: C_4  and  C_5 
REMARK    2  A    between atoms: C_10  and  C_11 
ROOT
HETATM    1  C   UNL     1      40.785 -15.935   2.131  1.00  0.00     0.202 C 
HETATM    2  N   UNL     1      41.572 -16.627   1.124  1.00  0.00    -0.331 N 
HETATM    3  C   UNL     1      41.402 -16.230  -0.260  1.00  0.00     0.155 C 
HETATM    4  C   UNL     1      42.683 -17.375   1.483  1.00  0.00     0.256 C 
HETATM    5  O   UNL     1      43.553 -17.729   0.691  1.00  0.00    -0.267 OA
HETATM    6  C   UNL     1      42.788 -17.754   2.910  1.00  0.00     0.053 A 
HETATM    7  C   UNL     1      41.719 -17.444   3.757  1.00  0.00     0.026 A 
HETATM    8  N   UNL     1      40.561 -16.833   3.256  1.00  0.00    -0.266 NA
HETATM    9  C   UNL     1      43.918 -18.431   3.385  1.00  0.00     0.019 A 
HETATM   10  C   UNL     1      43.973 -18.829   4.719  1.00  0.00     0.001 A 
HETATM   11  C   UNL     1      42.896 -18.566   5.563  1.00  0.00     0.002 A 
HETATM   12  C   UNL     1      41.768 -17.894   5.080  1.00  0.00     0.024 A 
HETATM   13  H   UNL     1      40.014 -16.375   3.981  1.00  0.00     0.130 HD
ENDROOT
BRANCH   1  14
HETATM   14  C   UNL     1      41.384 -14.594   2.469  1.00  0.00     0.029 A 
HETATM   15  C   UNL     1      40.864 -13.314   2.122  1.00  0.00     0.121 A 
HETATM   16  N   UNL     1      41.633 -12.315   2.578  1.00  0.00    -0.172 NA
HETATM   17  N   UNL     1      42.624 -12.938   3.229  1.00  0.00    -0.288 N 
HETATM   18  H   UNL     1      43.339 -12.372   3.676  1.00  0.00     0.188 HD
HETATM   19  C   UNL     1      42.524 -14.294   3.196  1.00  0.00     0.122 A 
BRANCH  15  20
HETATM   20  C   UNL     1      39.613 -13.045   1.347  1.00  0.00     0.106 A 
HETATM   21  O   UNL     1      39.485 -13.193  -0.007  1.00  0.00    -0.313 OA
HETATM   22  C   UNL     1      38.213 -12.839  -0.341  1.00  0.00     0.050 A 
HETATM   23  C   UNL     1      37.860 -12.904  -1.774  1.00  0.00     0.076 C 
HETATM   24  C   UNL     1      37.510 -12.480   0.788  1.00  0.00     0.035 A 
HETATM   25  C   UNL     1      38.409 -12.615   1.873  1.00  0.00     0.042 A 
ENDBRANCH  15  20
ENDBRANCH   1  14
TORSDOF 2
ENDMDL
