MODEL 1
REMARK VINA RESULT:      -8.4      0.000      0.000
REMARK  9 active torsions:
REMARK  status: ('A' for Active; 'I' for Inactive)
REMARK    1  A    between atoms: C_3  and  N_4 
REMARK       I    between atoms: N_4  and  C_5 
REMARK    2  A    between atoms: C_5  and  C_6 
REMARK    3  A    between atoms: C_13  and  C_14 
REMARK    4  A    between atoms: C_14  and  O_15 
REMARK    5  A    between atoms: O_15  and  C_16 
REMARK    6  A    between atoms: C_16  and  C_17 
REMARK       I    between atoms: C_17  and  N_18 
REMARK    7  A    between atoms: N_18  and  C_19 
REMARK    8  A    between atoms: C_19  and  C_20 
REMARK    9  A    between atoms: C_22  and  O_23 
ROOT
HETATM    1  C   UNL     1      40.828 -15.547   3.446  1.00  0.00     0.293 C 
HETATM    2  O   UNL     1      40.776 -14.374   3.110  1.00  0.00    -0.259 OA
ENDROOT
BRANCH   1   3
HETATM    3  C   UNL     1      41.508 -16.014   4.681  1.00  0.00     0.041 A 
HETATM    4  C   UNL     1      42.181 -15.058   5.454  1.00  0.00     0.047 A 
HETATM    5  C   UNL     1      42.843 -15.412   6.635  1.00  0.00     0.042 A 
HETATM    6  C   UNL     1      42.844 -16.765   7.036  1.00  0.00    -0.035 A 
HETATM    7  C   UNL     1      43.549 -17.243   8.280  1.00  0.00     0.050 C 
HETATM    8  C   UNL     1      42.179 -17.721   6.246  1.00  0.00     0.010 A 
HETATM    9  C   UNL     1      41.507 -17.349   5.080  1.00  0.00     0.018 A 
BRANCH   5  10
HETATM   10  N   UNL     1      43.521 -14.456   7.424  1.00  0.00    -0.321 N 
HETATM   11  C   UNL     1      44.775 -13.906   7.208  1.00  0.00     0.279 C 
HETATM   12  O   UNL     1      45.483 -14.120   6.229  1.00  0.00    -0.265 OA
HETATM   13  H   UNL     1      43.032 -14.070   8.224  1.00  0.00     0.169 HD
BRANCH  11  14
HETATM   14  C   UNL     1      45.174 -12.981   8.253  1.00  0.00     0.142 A 
HETATM   15  O   UNL     1      44.546 -13.022   9.473  1.00  0.00    -0.317 OA
HETATM   16  C   UNL     1      45.116 -12.063  10.247  1.00  0.00     0.143 A 
HETATM   17  C   UNL     1      46.094 -11.396   9.549  1.00  0.00     0.027 A 
HETATM   18  C   UNL     1      46.133 -11.986   8.263  1.00  0.00     0.045 A 
ENDBRANCH  11  14
ENDBRANCH   5  10
ENDBRANCH   1   3
BRANCH   1  19
HETATM   19  O   UNL     1      40.233 -16.573   2.793  1.00  0.00    -0.308 OA
BRANCH  19  20
HETATM   20  C   UNL     1      40.652 -16.759   1.438  1.00  0.00     0.281 C 
BRANCH  20  21
HETATM   21  C   UNL     1      42.151 -17.029   1.259  1.00  0.00     0.242 C 
HETATM   22  N   UNL     1      42.598 -18.184   1.859  1.00  0.00    -0.355 N 
HETATM   23  H   UNL     1      41.943 -18.716   2.431  1.00  0.00     0.162 HD
HETATM   24  O   UNL     1      42.874 -16.286   0.599  1.00  0.00    -0.271 OA
BRANCH  22  25
HETATM   25  C   UNL     1      43.993 -18.543   1.914  1.00  0.00     0.161 C 
BRANCH  25  26
HETATM   26  C   UNL     1      44.202 -19.891   2.559  1.00  0.00    -0.038 A 
HETATM   27  C   UNL     1      44.355 -20.010   3.953  1.00  0.00     0.045 A 
HETATM   28  C   UNL     1      44.546 -21.264   4.542  1.00  0.00     0.068 A 
HETATM   29  C   UNL     1      44.571 -22.403   3.734  1.00  0.00     0.037 A 
HETATM   30  C   UNL     1      44.428 -22.298   2.352  1.00  0.00     0.003 A 
HETATM   31  C   UNL     1      44.249 -21.047   1.767  1.00  0.00     0.009 A 
BRANCH  28  32
HETATM   32  O   UNL     1      44.709 -21.510   5.878  1.00  0.00    -0.356 OA
HETATM   33  C   UNL     1      43.772 -20.902   6.757  1.00  0.00     0.210 C 
ENDBRANCH  28  32
ENDBRANCH  25  26
ENDBRANCH  22  25
ENDBRANCH  20  21
ENDBRANCH  19  20
ENDBRANCH   1  19
TORSDOF 9
ENDMDL
MODEL 2
REMARK VINA RESULT:      -8.2      2.426      8.641
REMARK  9 active torsions:
REMARK  status: ('A' for Active; 'I' for Inactive)
REMARK    1  A    between atoms: C_3  and  N_4 
REMARK       I    between atoms: N_4  and  C_5 
REMARK    2  A    between atoms: C_5  and  C_6 
REMARK    3  A    between atoms: C_13  and  C_14 
REMARK    4  A    between atoms: C_14  and  O_15 
REMARK    5  A    between atoms: O_15  and  C_16 
REMARK    6  A    between atoms: C_16  and  C_17 
REMARK       I    between atoms: C_17  and  N_18 
REMARK    7  A    between atoms: N_18  and  C_19 
REMARK    8  A    between atoms: C_19  and  C_20 
REMARK    9  A    between atoms: C_22  and  O_23 
ROOT
HETATM    1  C   UNL     1      40.789 -14.282   5.105  1.00  0.00     0.293 C 
HETATM    2  O   UNL     1      39.893 -14.664   4.367  1.00  0.00    -0.259 OA
ENDROOT
BRANCH   1   3
HETATM    3  C   UNL     1      41.940 -15.133   5.500  1.00  0.00     0.041 A 
HETATM    4  C   UNL     1      42.135 -16.331   4.799  1.00  0.00     0.047 A 
HETATM    5  C   UNL     1      43.199 -17.188   5.103  1.00  0.00     0.042 A 
HETATM    6  C   UNL     1      44.075 -16.841   6.153  1.00  0.00    -0.035 A 
HETATM    7  C   UNL     1      45.233 -17.712   6.568  1.00  0.00     0.050 C 
HETATM    8  C   UNL     1      43.862 -15.644   6.864  1.00  0.00     0.010 A 
HETATM    9  C   UNL     1      42.808 -14.790   6.535  1.00  0.00     0.018 A 
BRANCH   5  10
HETATM   10  N   UNL     1      43.407 -18.396   4.400  1.00  0.00    -0.321 N 
HETATM   11  C   UNL     1      43.878 -18.559   3.107  1.00  0.00     0.279 C 
HETATM   12  O   UNL     1      44.263 -17.655   2.373  1.00  0.00    -0.265 OA
HETATM   13  H   UNL     1      43.251 -19.265   4.897  1.00  0.00     0.169 HD
BRANCH  11  14
HETATM   14  C   UNL     1      43.925 -19.951   2.694  1.00  0.00     0.142 A 
HETATM   15  O   UNL     1      44.824 -20.804   3.286  1.00  0.00    -0.317 OA
HETATM   16  C   UNL     1      44.646 -22.025   2.718  1.00  0.00     0.143 A 
HETATM   17  C   UNL     1      43.656 -21.976   1.765  1.00  0.00     0.027 A 
HETATM   18  C   UNL     1      43.190 -20.640   1.749  1.00  0.00     0.045 A 
ENDBRANCH  11  14
ENDBRANCH   5  10
ENDBRANCH   1   3
BRANCH   1  19
HETATM   19  O   UNL     1      40.902 -13.033   5.614  1.00  0.00    -0.308 OA
BRANCH  19  20
HETATM   20  C   UNL     1      39.711 -12.505   6.206  1.00  0.00     0.281 C 
BRANCH  20  21
HETATM   21  C   UNL     1      39.941 -11.363   7.203  1.00  0.00     0.242 C 
HETATM   22  N   UNL     1      41.122 -11.445   7.904  1.00  0.00    -0.355 N 
HETATM   23  H   UNL     1      41.701 -12.274   7.778  1.00  0.00     0.162 HD
HETATM   24  O   UNL     1      39.144 -10.435   7.327  1.00  0.00    -0.271 OA
BRANCH  22  25
HETATM   25  C   UNL     1      41.456 -10.540   8.975  1.00  0.00     0.161 C 
BRANCH  25  26
HETATM   26  C   UNL     1      42.838 -10.804   9.523  1.00  0.00    -0.038 A 
HETATM   27  C   UNL     1      43.735 -11.650   8.846  1.00  0.00     0.045 A 
HETATM   28  C   UNL     1      45.013 -11.886   9.360  1.00  0.00     0.068 A 
HETATM   29  C   UNL     1      45.399 -11.265  10.550  1.00  0.00     0.037 A 
HETATM   30  C   UNL     1      44.517 -10.431  11.234  1.00  0.00     0.003 A 
HETATM   31  C   UNL     1      43.240 -10.205  10.725  1.00  0.00     0.009 A 
BRANCH  28  32
HETATM   32  O   UNL     1      45.972 -12.686   8.800  1.00  0.00    -0.356 OA
HETATM   33  C   UNL     1      46.942 -12.042   7.984  1.00  0.00     0.210 C 
ENDBRANCH  28  32
ENDBRANCH  25  26
ENDBRANCH  22  25
ENDBRANCH  20  21
ENDBRANCH  19  20
ENDBRANCH   1  19
TORSDOF 9
ENDMDL
MODEL 3
REMARK VINA RESULT:      -8.1      3.199     10.222
REMARK  9 active torsions:
REMARK  status: ('A' for Active; 'I' for Inactive)
REMARK    1  A    between atoms: C_3  and  N_4 
REMARK       I    between atoms: N_4  and  C_5 
REMARK    2  A    between atoms: C_5  and  C_6 
REMARK    3  A    between atoms: C_13  and  C_14 
REMARK    4  A    between atoms: C_14  and  O_15 
REMARK    5  A    between atoms: O_15  and  C_16 
REMARK    6  A    between atoms: C_16  and  C_17 
REMARK       I    between atoms: C_17  and  N_18 
REMARK    7  A    between atoms: N_18  and  C_19 
REMARK    8  A    between atoms: C_19  and  C_20 
REMARK    9  A    between atoms: C_22  and  O_23 
ROOT
HETATM    1  C   UNL     1      44.969 -13.908   7.002  1.00  0.00     0.293 C 
HETATM    2  O   UNL     1      45.933 -13.518   6.360  1.00  0.00    -0.259 OA
ENDROOT
BRANCH   1   3
HETATM    3  C   UNL     1      43.935 -14.820   6.449  1.00  0.00     0.041 A 
HETATM    4  C   UNL     1      44.311 -16.145   6.184  1.00  0.00     0.047 A 
HETATM    5  C   UNL     1      43.397 -17.070   5.668  1.00  0.00     0.042 A 
HETATM    6  C   UNL     1      42.079 -16.647   5.393  1.00  0.00    -0.035 A 
HETATM    7  C   UNL     1      41.034 -17.566   4.815  1.00  0.00     0.050 C 
HETATM    8  C   UNL     1      41.715 -15.311   5.648  1.00  0.00     0.010 A 
HETATM    9  C   UNL     1      42.632 -14.405   6.181  1.00  0.00     0.018 A 
BRANCH   5  10
HETATM   10  N   UNL     1      43.763 -18.408   5.400  1.00  0.00    -0.321 N 
HETATM   11  C   UNL     1      44.127 -18.966   4.184  1.00  0.00     0.279 C 
HETATM   12  O   UNL     1      44.256 -18.350   3.132  1.00  0.00    -0.265 OA
HETATM   13  H   UNL     1      43.827 -19.047   6.184  1.00  0.00     0.169 HD
BRANCH  11  14
HETATM   14  C   UNL     1      44.400 -20.390   4.275  1.00  0.00     0.142 A 
HETATM   15  O   UNL     1      44.401 -21.154   3.135  1.00  0.00    -0.317 OA
HETATM   16  C   UNL     1      44.686 -22.428   3.510  1.00  0.00     0.143 A 
HETATM   17  C   UNL     1      44.861 -22.504   4.871  1.00  0.00     0.027 A 
HETATM   18  C   UNL     1      44.677 -21.191   5.366  1.00  0.00     0.045 A 
ENDBRANCH  11  14
ENDBRANCH   5  10
ENDBRANCH   1   3
BRANCH   1  19
HETATM   19  O   UNL     1      44.732 -13.627   8.305  1.00  0.00    -0.308 OA
BRANCH  19  20
HETATM   20  C   UNL     1      44.850 -12.246   8.662  1.00  0.00     0.281 C 
BRANCH  20  21
HETATM   21  C   UNL     1      44.872 -11.972  10.171  1.00  0.00     0.242 C 
HETATM   22  N   UNL     1      43.845 -12.561  10.873  1.00  0.00    -0.355 N 
HETATM   23  H   UNL     1      43.121 -13.050  10.349  1.00  0.00     0.162 HD
HETATM   24  O   UNL     1      45.762 -11.311  10.701  1.00  0.00    -0.271 OA
BRANCH  22  25
HETATM   25  C   UNL     1      43.621 -12.316  12.276  1.00  0.00     0.161 C 
BRANCH  25  26
HETATM   26  C   UNL     1      42.777 -11.085  12.503  1.00  0.00    -0.038 A 
HETATM   27  C   UNL     1      41.385 -11.114  12.298  1.00  0.00     0.045 A 
HETATM   28  C   UNL     1      40.612  -9.969  12.514  1.00  0.00     0.068 A 
HETATM   29  C   UNL     1      41.233  -8.794  12.946  1.00  0.00     0.037 A 
HETATM   30  C   UNL     1      42.611  -8.751  13.145  1.00  0.00     0.003 A 
HETATM   31  C   UNL     1      43.381  -9.890  12.919  1.00  0.00     0.009 A 
BRANCH  28  32
HETATM   32  O   UNL     1      39.257  -9.869  12.349  1.00  0.00    -0.356 OA
HETATM   33  C   UNL     1      38.690  -8.576  12.512  1.00  0.00     0.210 C 
ENDBRANCH  28  32
ENDBRANCH  25  26
ENDBRANCH  22  25
ENDBRANCH  20  21
ENDBRANCH  19  20
ENDBRANCH   1  19
TORSDOF 9
ENDMDL
MODEL 4
REMARK VINA RESULT:      -8.1      2.630      9.488
REMARK  9 active torsions:
REMARK  status: ('A' for Active; 'I' for Inactive)
REMARK    1  A    between atoms: C_3  and  N_4 
REMARK       I    between atoms: N_4  and  C_5 
REMARK    2  A    between atoms: C_5  and  C_6 
REMARK    3  A    between atoms: C_13  and  C_14 
REMARK    4  A    between atoms: C_14  and  O_15 
REMARK    5  A    between atoms: O_15  and  C_16 
REMARK    6  A    between atoms: C_16  and  C_17 
REMARK       I    between atoms: C_17  and  N_18 
REMARK    7  A    between atoms: N_18  and  C_19 
REMARK    8  A    between atoms: C_19  and  C_20 
REMARK    9  A    between atoms: C_22  and  O_23 
ROOT
HETATM    1  C   UNL     1      42.747 -13.503   5.759  1.00  0.00     0.293 C 
HETATM    2  O   UNL     1      42.185 -12.565   6.306  1.00  0.00    -0.259 OA
ENDROOT
BRANCH   1   3
HETATM    3  C   UNL     1      42.079 -14.396   4.779  1.00  0.00     0.041 A 
HETATM    4  C   UNL     1      42.632 -15.669   4.576  1.00  0.00     0.047 A 
HETATM    5  C   UNL     1      42.061 -16.575   3.675  1.00  0.00     0.042 A 
HETATM    6  C   UNL     1      40.919 -16.182   2.946  1.00  0.00    -0.035 A 
HETATM    7  C   UNL     1      40.250 -17.081   1.937  1.00  0.00     0.050 C 
HETATM    8  C   UNL     1      40.380 -14.897   3.144  1.00  0.00     0.010 A 
HETATM    9  C   UNL     1      40.949 -14.012   4.061  1.00  0.00     0.018 A 
BRANCH   5  10
HETATM   10  N   UNL     1      42.608 -17.861   3.465  1.00  0.00    -0.321 N 
HETATM   11  C   UNL     1      43.616 -18.226   2.587  1.00  0.00     0.279 C 
HETATM   12  O   UNL     1      44.258 -17.453   1.883  1.00  0.00    -0.265 OA
HETATM   13  H   UNL     1      42.276 -18.617   4.052  1.00  0.00     0.169 HD
BRANCH  11  14
HETATM   14  C   UNL     1      43.894 -19.651   2.608  1.00  0.00     0.142 A 
HETATM   15  O   UNL     1      43.391 -20.455   1.615  1.00  0.00    -0.317 OA
HETATM   16  C   UNL     1      43.806 -21.721   1.880  1.00  0.00     0.143 A 
HETATM   17  C   UNL     1      44.561 -21.753   3.028  1.00  0.00     0.027 A 
HETATM   18  C   UNL     1      44.619 -20.420   3.499  1.00  0.00     0.045 A 
ENDBRANCH  11  14
ENDBRANCH   5  10
ENDBRANCH   1   3
BRANCH   1  19
HETATM   19  O   UNL     1      44.053 -13.827   5.911  1.00  0.00    -0.308 OA
BRANCH  19  20
HETATM   20  C   UNL     1      44.452 -14.138   7.250  1.00  0.00     0.281 C 
BRANCH  20  21
HETATM   21  C   UNL     1      45.069 -12.968   8.025  1.00  0.00     0.242 C 
HETATM   22  N   UNL     1      44.189 -12.298   8.844  1.00  0.00    -0.355 N 
HETATM   23  H   UNL     1      43.206 -12.563   8.815  1.00  0.00     0.162 HD
HETATM   24  O   UNL     1      46.263 -12.686   7.942  1.00  0.00    -0.271 OA
BRANCH  22  25
HETATM   25  C   UNL     1      44.547 -11.094   9.552  1.00  0.00     0.161 C 
BRANCH  25  26
HETATM   26  C   UNL     1      43.585 -10.797  10.677  1.00  0.00    -0.038 A 
HETATM   27  C   UNL     1      42.199 -10.971  10.508  1.00  0.00     0.045 A 
HETATM   28  C   UNL     1      41.316 -10.695  11.556  1.00  0.00     0.068 A 
HETATM   29  C   UNL     1      41.823 -10.255  12.782  1.00  0.00     0.037 A 
HETATM   30  C   UNL     1      43.193 -10.072  12.959  1.00  0.00     0.003 A 
HETATM   31  C   UNL     1      44.070 -10.337  11.909  1.00  0.00     0.009 A 
BRANCH  28  32
HETATM   32  O   UNL     1      39.954 -10.821  11.517  1.00  0.00    -0.356 OA
HETATM   33  C   UNL     1      39.246  -9.850  10.758  1.00  0.00     0.210 C 
ENDBRANCH  28  32
ENDBRANCH  25  26
ENDBRANCH  22  25
ENDBRANCH  20  21
ENDBRANCH  19  20
ENDBRANCH   1  19
TORSDOF 9
ENDMDL
MODEL 5
REMARK VINA RESULT:      -7.8      3.212      6.883
REMARK  9 active torsions:
REMARK  status: ('A' for Active; 'I' for Inactive)
REMARK    1  A    between atoms: C_3  and  N_4 
REMARK       I    between atoms: N_4  and  C_5 
REMARK    2  A    between atoms: C_5  and  C_6 
REMARK    3  A    between atoms: C_13  and  C_14 
REMARK    4  A    between atoms: C_14  and  O_15 
REMARK    5  A    between atoms: O_15  and  C_16 
REMARK    6  A    between atoms: C_16  and  C_17 
REMARK       I    between atoms: C_17  and  N_18 
REMARK    7  A    between atoms: N_18  and  C_19 
REMARK    8  A    between atoms: C_19  and  C_20 
REMARK    9  A    between atoms: C_22  and  O_23 
ROOT
HETATM    1  C   UNL     1      43.662 -13.960   5.090  1.00  0.00     0.293 C 
HETATM    2  O   UNL     1      44.780 -13.701   4.672  1.00  0.00    -0.259 OA
ENDROOT
BRANCH   1   3
HETATM    3  C   UNL     1      42.490 -14.180   4.205  1.00  0.00     0.041 A 
HETATM    4  C   UNL     1      42.626 -13.848   2.849  1.00  0.00     0.047 A 
HETATM    5  C   UNL     1      41.573 -14.030   1.946  1.00  0.00     0.042 A 
HETATM    6  C   UNL     1      40.347 -14.538   2.423  1.00  0.00    -0.035 A 
HETATM    7  C   UNL     1      39.150 -14.746   1.530  1.00  0.00     0.050 C 
HETATM    8  C   UNL     1      40.213 -14.854   3.788  1.00  0.00     0.010 A 
HETATM    9  C   UNL     1      41.279 -14.686   4.673  1.00  0.00     0.018 A 
BRANCH   5  10
HETATM   10  N   UNL     1      41.701 -13.702   0.578  1.00  0.00    -0.321 N 
HETATM   11  C   UNL     1      42.068 -12.487   0.022  1.00  0.00     0.279 C 
HETATM   12  O   UNL     1      42.416 -11.494   0.654  1.00  0.00    -0.265 OA
HETATM   13  H   UNL     1      41.564 -14.442  -0.101  1.00  0.00     0.169 HD
BRANCH  11  14
HETATM   14  C   UNL     1      42.053 -12.501  -1.430  1.00  0.00     0.142 A 
HETATM   15  O   UNL     1      41.413 -13.520  -2.091  1.00  0.00    -0.317 OA
HETATM   16  C   UNL     1      41.553 -13.279  -3.421  1.00  0.00     0.143 A 
HETATM   17  C   UNL     1      42.277 -12.130  -3.632  1.00  0.00     0.027 A 
HETATM   18  C   UNL     1      42.601 -11.628  -2.349  1.00  0.00     0.045 A 
ENDBRANCH  11  14
ENDBRANCH   5  10
ENDBRANCH   1   3
BRANCH   1  19
HETATM   19  O   UNL     1      43.338 -14.144   6.391  1.00  0.00    -0.308 OA
BRANCH  19  20
HETATM   20  C   UNL     1      44.229 -14.987   7.129  1.00  0.00     0.281 C 
BRANCH  20  21
HETATM   21  C   UNL     1      43.853 -16.474   7.132  1.00  0.00     0.242 C 
HETATM   22  N   UNL     1      44.726 -17.285   6.444  1.00  0.00    -0.355 N 
HETATM   23  H   UNL     1      45.488 -16.847   5.928  1.00  0.00     0.162 HD
HETATM   24  O   UNL     1      42.870 -16.897   7.737  1.00  0.00    -0.271 OA
BRANCH  22  25
HETATM   25  C   UNL     1      44.476 -18.688   6.224  1.00  0.00     0.161 C 
BRANCH  25  26
HETATM   26  C   UNL     1      44.097 -18.973   4.791  1.00  0.00    -0.038 A 
HETATM   27  C   UNL     1      43.207 -18.132   4.097  1.00  0.00     0.045 A 
HETATM   28  C   UNL     1      42.864 -18.403   2.770  1.00  0.00     0.068 A 
HETATM   29  C   UNL     1      43.420 -19.514   2.131  1.00  0.00     0.037 A 
HETATM   30  C   UNL     1      44.296 -20.359   2.810  1.00  0.00     0.003 A 
HETATM   31  C   UNL     1      44.629 -20.092   4.136  1.00  0.00     0.009 A 
BRANCH  28  32
HETATM   32  O   UNL     1      42.013 -17.667   1.991  1.00  0.00    -0.356 OA
HETATM   33  C   UNL     1      42.527 -17.202   0.750  1.00  0.00     0.210 C 
ENDBRANCH  28  32
ENDBRANCH  25  26
ENDBRANCH  22  25
ENDBRANCH  20  21
ENDBRANCH  19  20
ENDBRANCH   1  19
TORSDOF 9
ENDMDL
MODEL 6
REMARK VINA RESULT:      -7.7      2.980      4.065
REMARK  9 active torsions:
REMARK  status: ('A' for Active; 'I' for Inactive)
REMARK    1  A    between atoms: C_3  and  N_4 
REMARK       I    between atoms: N_4  and  C_5 
REMARK    2  A    between atoms: C_5  and  C_6 
REMARK    3  A    between atoms: C_13  and  C_14 
REMARK    4  A    between atoms: C_14  and  O_15 
REMARK    5  A    between atoms: O_15  and  C_16 
REMARK    6  A    between atoms: C_16  and  C_17 
REMARK       I    between atoms: C_17  and  N_18 
REMARK    7  A    between atoms: N_18  and  C_19 
REMARK    8  A    between atoms: C_19  and  C_20 
REMARK    9  A    between atoms: C_22  and  O_23 
ROOT
HETATM    1  C   UNL     1      42.402 -13.510   4.401  1.00  0.00     0.293 C 
HETATM    2  O   UNL     1      43.363 -13.538   3.645  1.00  0.00    -0.259 OA
ENDROOT
BRANCH   1   3
HETATM    3  C   UNL     1      41.945 -12.280   5.095  1.00  0.00     0.041 A 
HETATM    4  C   UNL     1      42.090 -12.227   6.489  1.00  0.00     0.047 A 
HETATM    5  C   UNL     1      41.690 -11.103   7.220  1.00  0.00     0.042 A 
HETATM    6  C   UNL     1      41.112 -10.014   6.534  1.00  0.00    -0.035 A 
HETATM    7  C   UNL     1      40.630  -8.772   7.239  1.00  0.00     0.050 C 
HETATM    8  C   UNL     1      40.955 -10.082   5.136  1.00  0.00     0.010 A 
HETATM    9  C   UNL     1      41.376 -11.203   4.419  1.00  0.00     0.018 A 
BRANCH   5  10
HETATM   10  N   UNL     1      41.836 -11.037   8.624  1.00  0.00    -0.321 N 
HETATM   11  C   UNL     1      43.008 -10.940   9.356  1.00  0.00     0.279 C 
HETATM   12  O   UNL     1      44.134 -10.825   8.881  1.00  0.00    -0.265 OA
HETATM   13  H   UNL     1      40.993 -11.001   9.185  1.00  0.00     0.169 HD
BRANCH  11  14
HETATM   14  C   UNL     1      42.780 -10.938  10.790  1.00  0.00     0.142 A 
HETATM   15  O   UNL     1      41.551 -11.302  11.283  1.00  0.00    -0.317 OA
HETATM   16  C   UNL     1      41.623 -11.213  12.636  1.00  0.00     0.143 A 
HETATM   17  C   UNL     1      42.871 -10.791  13.028  1.00  0.00     0.027 A 
HETATM   18  C   UNL     1      43.618 -10.613  11.840  1.00  0.00     0.045 A 
ENDBRANCH  11  14
ENDBRANCH   5  10
ENDBRANCH   1   3
BRANCH   1  19
HETATM   19  O   UNL     1      41.588 -14.558   4.666  1.00  0.00    -0.308 OA
BRANCH  19  20
HETATM   20  C   UNL     1      40.469 -14.700   3.785  1.00  0.00     0.281 C 
BRANCH  20  21
HETATM   21  C   UNL     1      40.567 -15.873   2.804  1.00  0.00     0.242 C 
HETATM   22  N   UNL     1      41.669 -16.677   2.984  1.00  0.00    -0.355 N 
HETATM   23  H   UNL     1      42.362 -16.399   3.677  1.00  0.00     0.162 HD
HETATM   24  O   UNL     1      39.705 -16.088   1.954  1.00  0.00    -0.271 OA
BRANCH  22  25
HETATM   25  C   UNL     1      42.005 -17.751   2.083  1.00  0.00     0.161 C 
BRANCH  25  26
HETATM   26  C   UNL     1      42.974 -18.727   2.707  1.00  0.00    -0.038 A 
HETATM   27  C   UNL     1      43.411 -18.562   4.034  1.00  0.00     0.045 A 
HETATM   28  C   UNL     1      44.306 -19.472   4.604  1.00  0.00     0.068 A 
HETATM   29  C   UNL     1      44.756 -20.557   3.847  1.00  0.00     0.037 A 
HETATM   30  C   UNL     1      44.336 -20.726   2.530  1.00  0.00     0.003 A 
HETATM   31  C   UNL     1      43.453 -19.812   1.960  1.00  0.00     0.009 A 
BRANCH  28  32
HETATM   32  O   UNL     1      44.806 -19.421   5.877  1.00  0.00    -0.356 OA
HETATM   33  C   UNL     1      45.144 -18.135   6.378  1.00  0.00     0.210 C 
ENDBRANCH  28  32
ENDBRANCH  25  26
ENDBRANCH  22  25
ENDBRANCH  20  21
ENDBRANCH  19  20
ENDBRANCH   1  19
TORSDOF 9
ENDMDL
MODEL 7
REMARK VINA RESULT:      -7.7      2.769      8.936
REMARK  9 active torsions:
REMARK  status: ('A' for Active; 'I' for Inactive)
REMARK    1  A    between atoms: C_3  and  N_4 
REMARK       I    between atoms: N_4  and  C_5 
REMARK    2  A    between atoms: C_5  and  C_6 
REMARK    3  A    between atoms: C_13  and  C_14 
REMARK    4  A    between atoms: C_14  and  O_15 
REMARK    5  A    between atoms: O_15  and  C_16 
REMARK    6  A    between atoms: C_16  and  C_17 
REMARK       I    between atoms: C_17  and  N_18 
REMARK    7  A    between atoms: N_18  and  C_19 
REMARK    8  A    between atoms: C_19  and  C_20 
REMARK    9  A    between atoms: C_22  and  O_23 
ROOT
HETATM    1  C   UNL     1      40.576 -14.789   5.195  1.00  0.00     0.293 C 
HETATM    2  O   UNL     1      40.157 -14.713   4.049  1.00  0.00    -0.259 OA
ENDROOT
BRANCH   1   3
HETATM    3  C   UNL     1      41.803 -15.537   5.567  1.00  0.00     0.041 A 
HETATM    4  C   UNL     1      42.071 -16.732   4.883  1.00  0.00     0.047 A 
HETATM    5  C   UNL     1      43.209 -17.494   5.168  1.00  0.00     0.042 A 
HETATM    6  C   UNL     1      44.088 -17.055   6.181  1.00  0.00    -0.035 A 
HETATM    7  C   UNL     1      45.325 -17.822   6.573  1.00  0.00     0.050 C 
HETATM    8  C   UNL     1      43.803 -15.863   6.874  1.00  0.00     0.010 A 
HETATM    9  C   UNL     1      42.674 -15.103   6.565  1.00  0.00     0.018 A 
BRANCH   5  10
HETATM   10  N   UNL     1      43.491 -18.697   4.482  1.00  0.00    -0.321 N 
HETATM   11  C   UNL     1      43.940 -18.851   3.180  1.00  0.00     0.279 C 
HETATM   12  O   UNL     1      44.236 -17.935   2.419  1.00  0.00    -0.265 OA
HETATM   13  H   UNL     1      43.414 -19.565   4.999  1.00  0.00     0.169 HD
BRANCH  11  14
HETATM   14  C   UNL     1      44.082 -20.243   2.792  1.00  0.00     0.142 A 
HETATM   15  O   UNL     1      44.578 -21.151   3.694  1.00  0.00    -0.317 OA
HETATM   16  C   UNL     1      44.597 -22.359   3.073  1.00  0.00     0.143 A 
HETATM   17  C   UNL     1      44.130 -22.248   1.784  1.00  0.00     0.027 A 
HETATM   18  C   UNL     1      43.798 -20.885   1.602  1.00  0.00     0.045 A 
ENDBRANCH  11  14
ENDBRANCH   5  10
ENDBRANCH   1   3
BRANCH   1  19
HETATM   19  O   UNL     1      40.033 -14.167   6.267  1.00  0.00    -0.308 OA
BRANCH  19  20
HETATM   20  C   UNL     1      39.708 -12.787   6.072  1.00  0.00     0.281 C 
BRANCH  20  21
HETATM   21  C   UNL     1      40.785 -11.800   6.537  1.00  0.00     0.242 C 
HETATM   22  N   UNL     1      40.552 -11.239   7.771  1.00  0.00    -0.355 N 
HETATM   23  H   UNL     1      39.669 -11.447   8.237  1.00  0.00     0.162 HD
HETATM   24  O   UNL     1      41.790 -11.567   5.868  1.00  0.00    -0.271 OA
BRANCH  22  25
HETATM   25  C   UNL     1      41.380 -10.195   8.322  1.00  0.00     0.161 C 
BRANCH  25  26
HETATM   26  C   UNL     1      42.108 -10.651   9.563  1.00  0.00    -0.038 A 
HETATM   27  C   UNL     1      41.469 -10.654  10.817  1.00  0.00     0.045 A 
HETATM   28  C   UNL     1      42.150 -11.080  11.960  1.00  0.00     0.068 A 
HETATM   29  C   UNL     1      43.473 -11.515  11.847  1.00  0.00     0.037 A 
HETATM   30  C   UNL     1      44.119 -11.510  10.613  1.00  0.00     0.003 A 
HETATM   31  C   UNL     1      43.441 -11.074   9.477  1.00  0.00     0.009 A 
BRANCH  28  32
HETATM   32  O   UNL     1      41.643 -11.128  13.230  1.00  0.00    -0.356 OA
HETATM   33  C   UNL     1      42.331 -10.375  14.220  1.00  0.00     0.210 C 
ENDBRANCH  28  32
ENDBRANCH  25  26
ENDBRANCH  22  25
ENDBRANCH  20  21
ENDBRANCH  19  20
ENDBRANCH   1  19
TORSDOF 9
ENDMDL
MODEL 8
REMARK VINA RESULT:      -7.6      3.383      8.092
REMARK  9 active torsions:
REMARK  status: ('A' for Active; 'I' for Inactive)
REMARK    1  A    between atoms: C_3  and  N_4 
REMARK       I    between atoms: N_4  and  C_5 
REMARK    2  A    between atoms: C_5  and  C_6 
REMARK    3  A    between atoms: C_13  and  C_14 
REMARK    4  A    between atoms: C_14  and  O_15 
REMARK    5  A    between atoms: O_15  and  C_16 
REMARK    6  A    between atoms: C_16  and  C_17 
REMARK       I    between atoms: C_17  and  N_18 
REMARK    7  A    between atoms: N_18  and  C_19 
REMARK    8  A    between atoms: C_19  and  C_20 
REMARK    9  A    between atoms: C_22  and  O_23 
ROOT
HETATM    1  C   UNL     1      43.246 -17.900   1.824  1.00  0.00     0.293 C 
HETATM    2  O   UNL     1      44.373 -17.696   1.399  1.00  0.00    -0.259 OA
ENDROOT
BRANCH   1   3
HETATM    3  C   UNL     1      42.109 -16.972   1.598  1.00  0.00     0.041 A 
HETATM    4  C   UNL     1      42.226 -16.038   0.559  1.00  0.00     0.047 A 
HETATM    5  C   UNL     1      41.199 -15.131   0.276  1.00  0.00     0.042 A 
HETATM    6  C   UNL     1      40.034 -15.152   1.071  1.00  0.00    -0.035 A 
HETATM    7  C   UNL     1      38.886 -14.199   0.856  1.00  0.00     0.050 C 
HETATM    8  C   UNL     1      39.930 -16.082   2.123  1.00  0.00     0.010 A 
HETATM    9  C   UNL     1      40.955 -16.993   2.380  1.00  0.00     0.018 A 
BRANCH   5  10
HETATM   10  N   UNL     1      41.305 -14.188  -0.770  1.00  0.00    -0.321 N 
HETATM   11  C   UNL     1      41.228 -14.416  -2.136  1.00  0.00     0.279 C 
HETATM   12  O   UNL     1      40.980 -15.497  -2.661  1.00  0.00    -0.265 OA
HETATM   13  H   UNL     1      41.397 -13.210  -0.519  1.00  0.00     0.169 HD
BRANCH  11  14
HETATM   14  C   UNL     1      41.425 -13.212  -2.922  1.00  0.00     0.142 A 
HETATM   15  O   UNL     1      40.368 -12.669  -3.608  1.00  0.00    -0.317 OA
HETATM   16  C   UNL     1      40.832 -11.562  -4.243  1.00  0.00     0.143 A 
HETATM   17  C   UNL     1      42.171 -11.383  -3.988  1.00  0.00     0.027 A 
HETATM   18  C   UNL     1      42.555 -12.445  -3.137  1.00  0.00     0.045 A 
ENDBRANCH  11  14
ENDBRANCH   5  10
ENDBRANCH   1   3
BRANCH   1  19
HETATM   19  O   UNL     1      42.853 -19.007   2.495  1.00  0.00    -0.308 OA
BRANCH  19  20
HETATM   20  C   UNL     1      43.875 -19.650   3.263  1.00  0.00     0.281 C 
BRANCH  20  21
HETATM   21  C   UNL     1      44.055 -19.100   4.683  1.00  0.00     0.242 C 
HETATM   22  N   UNL     1      42.901 -18.622   5.260  1.00  0.00    -0.355 N 
HETATM   23  H   UNL     1      42.054 -18.590   4.694  1.00  0.00     0.162 HD
HETATM   24  O   UNL     1      45.140 -19.126   5.261  1.00  0.00    -0.271 OA
BRANCH  22  25
HETATM   25  C   UNL     1      42.889 -17.949   6.535  1.00  0.00     0.161 C 
BRANCH  25  26
HETATM   26  C   UNL     1      43.060 -16.457   6.384  1.00  0.00    -0.038 A 
HETATM   27  C   UNL     1      44.148 -15.790   6.978  1.00  0.00     0.045 A 
HETATM   28  C   UNL     1      44.299 -14.408   6.831  1.00  0.00     0.068 A 
HETATM   29  C   UNL     1      43.365 -13.693   6.078  1.00  0.00     0.037 A 
HETATM   30  C   UNL     1      42.279 -14.340   5.492  1.00  0.00     0.003 A 
HETATM   31  C   UNL     1      42.125 -15.716   5.649  1.00  0.00     0.009 A 
BRANCH  28  32
HETATM   32  O   UNL     1      45.307 -13.647   7.357  1.00  0.00    -0.356 OA
HETATM   33  C   UNL     1      44.963 -12.799   8.445  1.00  0.00     0.210 C 
ENDBRANCH  28  32
ENDBRANCH  25  26
ENDBRANCH  22  25
ENDBRANCH  20  21
ENDBRANCH  19  20
ENDBRANCH   1  19
TORSDOF 9
ENDMDL
MODEL 9
REMARK VINA RESULT:      -7.5      3.623      7.826
REMARK  9 active torsions:
REMARK  status: ('A' for Active; 'I' for Inactive)
REMARK    1  A    between atoms: C_3  and  N_4 
REMARK       I    between atoms: N_4  and  C_5 
REMARK    2  A    between atoms: C_5  and  C_6 
REMARK    3  A    between atoms: C_13  and  C_14 
REMARK    4  A    between atoms: C_14  and  O_15 
REMARK    5  A    between atoms: O_15  and  C_16 
REMARK    6  A    between atoms: C_16  and  C_17 
REMARK       I    between atoms: C_17  and  N_18 
REMARK    7  A    between atoms: N_18  and  C_19 
REMARK    8  A    between atoms: C_19  and  C_20 
REMARK    9  A    between atoms: C_22  and  O_23 
ROOT
HETATM    1  C   UNL     1      40.199 -14.623   3.857  1.00  0.00     0.293 C 
HETATM    2  O   UNL     1      39.766 -13.512   4.125  1.00  0.00    -0.259 OA
ENDROOT
BRANCH   1   3
HETATM    3  C   UNL     1      41.357 -15.237   4.553  1.00  0.00     0.041 A 
HETATM    4  C   UNL     1      41.774 -16.507   4.129  1.00  0.00     0.047 A 
HETATM    5  C   UNL     1      42.861 -17.154   4.727  1.00  0.00     0.042 A 
HETATM    6  C   UNL     1      43.532 -16.516   5.792  1.00  0.00    -0.035 A 
HETATM    7  C   UNL     1      44.697 -17.145   6.512  1.00  0.00     0.050 C 
HETATM    8  C   UNL     1      43.097 -15.248   6.223  1.00  0.00     0.010 A 
HETATM    9  C   UNL     1      42.024 -14.607   5.603  1.00  0.00     0.018 A 
BRANCH   5  10
HETATM   10  N   UNL     1      43.291 -18.431   4.305  1.00  0.00    -0.321 N 
HETATM   11  C   UNL     1      43.804 -18.794   3.069  1.00  0.00     0.279 C 
HETATM   12  O   UNL     1      44.033 -18.022   2.143  1.00  0.00    -0.265 OA
HETATM   13  H   UNL     1      43.285 -19.182   4.986  1.00  0.00     0.169 HD
BRANCH  11  14
HETATM   14  C   UNL     1      44.104 -20.211   2.975  1.00  0.00     0.142 A 
HETATM   15  O   UNL     1      44.547 -20.886   4.085  1.00  0.00    -0.317 OA
HETATM   16  C   UNL     1      44.741 -22.178   3.715  1.00  0.00     0.143 A 
HETATM   17  C   UNL     1      44.440 -22.350   2.385  1.00  0.00     0.027 A 
HETATM   18  C   UNL     1      44.029 -21.084   1.907  1.00  0.00     0.045 A 
ENDBRANCH  11  14
ENDBRANCH   5  10
ENDBRANCH   1   3
BRANCH   1  19
HETATM   19  O   UNL     1      39.663 -15.471   2.949  1.00  0.00    -0.308 OA
BRANCH  19  20
HETATM   20  C   UNL     1      39.309 -14.880   1.695  1.00  0.00     0.281 C 
BRANCH  20  21
HETATM   21  C   UNL     1      40.366 -15.027   0.594  1.00  0.00     0.242 C 
HETATM   22  N   UNL     1      39.956 -14.607  -0.650  1.00  0.00    -0.355 N 
HETATM   23  H   UNL     1      38.986 -14.317  -0.767  1.00  0.00     0.162 HD
HETATM   24  O   UNL     1      41.496 -15.452   0.827  1.00  0.00    -0.271 OA
BRANCH  22  25
HETATM   25  C   UNL     1      40.758 -14.785  -1.835  1.00  0.00     0.161 C 
BRANCH  25  26
HETATM   26  C   UNL     1      41.465 -13.512  -2.231  1.00  0.00    -0.038 A 
HETATM   27  C   UNL     1      42.203 -12.771  -1.290  1.00  0.00     0.045 A 
HETATM   28  C   UNL     1      42.856 -11.594  -1.666  1.00  0.00     0.068 A 
HETATM   29  C   UNL     1      42.780 -11.162  -2.993  1.00  0.00     0.037 A 
HETATM   30  C   UNL     1      42.046 -11.883  -3.933  1.00  0.00     0.003 A 
HETATM   31  C   UNL     1      41.387 -13.050  -3.553  1.00  0.00     0.009 A 
BRANCH  28  32
HETATM   32  O   UNL     1      43.600 -10.787  -0.848  1.00  0.00    -0.356 OA
HETATM   33  C   UNL     1      42.954  -9.628  -0.338  1.00  0.00     0.210 C 
ENDBRANCH  28  32
ENDBRANCH  25  26
ENDBRANCH  22  25
ENDBRANCH  20  21
ENDBRANCH  19  20
ENDBRANCH   1  19
TORSDOF 9
ENDMDL
MODEL 10
REMARK VINA RESULT:      -7.4      3.618     10.811
REMARK  9 active torsions:
REMARK  status: ('A' for Active; 'I' for Inactive)
REMARK    1  A    between atoms: C_3  and  N_4 
REMARK       I    between atoms: N_4  and  C_5 
REMARK    2  A    between atoms: C_5  and  C_6 
REMARK    3  A    between atoms: C_13  and  C_14 
REMARK    4  A    between atoms: C_14  and  O_15 
REMARK    5  A    between atoms: O_15  and  C_16 
REMARK    6  A    between atoms: C_16  and  C_17 
REMARK       I    between atoms: C_17  and  N_18 
REMARK    7  A    between atoms: N_18  and  C_19 
REMARK    8  A    between atoms: C_19  and  C_20 
REMARK    9  A    between atoms: C_22  and  O_23 
ROOT
HETATM    1  C   UNL     1      45.032 -13.654   7.000  1.00  0.00     0.293 C 
HETATM    2  O   UNL     1      46.153 -13.402   6.582  1.00  0.00    -0.259 OA
ENDROOT
BRANCH   1   3
HETATM    3  C   UNL     1      43.937 -14.167   6.138  1.00  0.00     0.041 A 
HETATM    4  C   UNL     1      44.142 -15.390   5.483  1.00  0.00     0.047 A 
HETATM    5  C   UNL     1      43.159 -15.946   4.657  1.00  0.00     0.042 A 
HETATM    6  C   UNL     1      41.949 -15.246   4.471  1.00  0.00    -0.035 A 
HETATM    7  C   UNL     1      40.843 -15.755   3.582  1.00  0.00     0.050 C 
HETATM    8  C   UNL     1      41.758 -14.011   5.119  1.00  0.00     0.010 A 
HETATM    9  C   UNL     1      42.740 -13.477   5.955  1.00  0.00     0.018 A 
BRANCH   5  10
HETATM   10  N   UNL     1      43.353 -17.179   3.996  1.00  0.00    -0.321 N 
HETATM   11  C   UNL     1      43.376 -18.450   4.549  1.00  0.00     0.279 C 
HETATM   12  O   UNL     1      43.157 -18.715   5.727  1.00  0.00    -0.265 OA
HETATM   13  H   UNL     1      43.435 -17.167   2.986  1.00  0.00     0.169 HD
BRANCH  11  14
HETATM   14  C   UNL     1      43.644 -19.488   3.570  1.00  0.00     0.142 A 
HETATM   15  O   UNL     1      44.528 -20.494   3.872  1.00  0.00    -0.317 OA
HETATM   16  C   UNL     1      44.580 -21.315   2.791  1.00  0.00     0.143 A 
HETATM   17  C   UNL     1      43.754 -20.856   1.793  1.00  0.00     0.027 A 
HETATM   18  C   UNL     1      43.149 -19.678   2.294  1.00  0.00     0.045 A 
ENDBRANCH  11  14
ENDBRANCH   5  10
ENDBRANCH   1   3
BRANCH   1  19
HETATM   19  O   UNL     1      44.643 -13.567   8.293  1.00  0.00    -0.308 OA
BRANCH  19  20
HETATM   20  C   UNL     1      44.537 -12.237   8.811  1.00  0.00     0.281 C 
BRANCH  20  21
HETATM   21  C   UNL     1      44.352 -12.152  10.331  1.00  0.00     0.242 C 
HETATM   22  N   UNL     1      44.130 -10.881  10.808  1.00  0.00    -0.355 N 
HETATM   23  H   UNL     1      44.185 -10.102  10.153  1.00  0.00     0.162 HD
HETATM   24  O   UNL     1      44.366 -13.151  11.047  1.00  0.00    -0.271 OA
BRANCH  22  25
HETATM   25  C   UNL     1      44.061 -10.579  12.216  1.00  0.00     0.161 C 
BRANCH  25  26
HETATM   26  C   UNL     1      43.092  -9.459  12.505  1.00  0.00    -0.038 A 
HETATM   27  C   UNL     1      42.895  -8.992  13.817  1.00  0.00     0.045 A 
HETATM   28  C   UNL     1      41.997  -7.953  14.074  1.00  0.00     0.068 A 
HETATM   29  C   UNL     1      41.301  -7.370  13.012  1.00  0.00     0.037 A 
HETATM   30  C   UNL     1      41.481  -7.828  11.709  1.00  0.00     0.003 A 
HETATM   31  C   UNL     1      42.369  -8.872  11.457  1.00  0.00     0.009 A 
BRANCH  28  32
HETATM   32  O   UNL     1      41.716  -7.414  15.301  1.00  0.00    -0.356 OA
HETATM   33  C   UNL     1      40.573  -7.924  15.974  1.00  0.00     0.210 C 
ENDBRANCH  28  32
ENDBRANCH  25  26
ENDBRANCH  22  25
ENDBRANCH  20  21
ENDBRANCH  19  20
ENDBRANCH   1  19
TORSDOF 9
ENDMDL
