MODEL 1
REMARK VINA RESULT:      -9.1      0.000      0.000
REMARK  7 active torsions:
REMARK  status: ('A' for Active; 'I' for Inactive)
REMARK    1  A    between atoms: C_2  and  O_3 
REMARK    2  A    between atoms: O_3  and  C_4 
REMARK    3  A    between atoms: C_4  and  C_5 
REMARK    4  A    between atoms: C_10  and  N_11 
REMARK       I    between atoms: N_11  and  C_12 
REMARK    5  A    between atoms: C_12  and  C_13 
REMARK    6  A    between atoms: C_13  and  N_14 
REMARK    7  A    between atoms: N_18  and  C_19 
ROOT
HETATM    1  N   UNL     1      42.967 -15.870   4.251  1.00  0.00    -0.323 N 
HETATM    2  C   UNL     1      41.659 -15.751   3.852  1.00  0.00     0.248 C 
HETATM    3  O   UNL     1      40.828 -16.647   3.711  1.00  0.00    -0.271 OA
HETATM    4  H   UNL     1      43.627 -15.126   4.014  1.00  0.00     0.169 HD
ENDROOT
BRANCH   1   5
HETATM    5  C   UNL     1      43.571 -17.019   4.756  1.00  0.00     0.080 A 
HETATM    6  C   UNL     1      43.971 -17.081   6.084  1.00  0.00     0.137 A 
HETATM    7  N   UNL     1      44.554 -18.308   6.280  1.00  0.00    -0.349 N 
HETATM    8  H   UNL     1      44.952 -18.617   7.159  1.00  0.00     0.166 HD
HETATM    9  C   UNL     1      44.467 -19.078   5.148  1.00  0.00     0.048 A 
HETATM   10  C   UNL     1      43.845 -18.296   4.158  1.00  0.00     0.023 A 
HETATM   11  C   UNL     1      44.881 -20.406   4.949  1.00  0.00     0.070 A 
HETATM   12  C   UNL     1      43.592 -18.899   2.903  1.00  0.00     0.055 A 
HETATM   13  C   UNL     1      43.993 -20.211   2.720  1.00  0.00     0.106 A 
HETATM   14  C   UNL     1      44.616 -20.932   3.702  1.00  0.00     0.107 A 
HETATM   15  O   UNL     1      43.811 -20.933   1.579  1.00  0.00    -0.323 OA
HETATM   16  O   UNL     1      44.911 -22.201   3.308  1.00  0.00    -0.323 OA
HETATM   17  C   UNL     1      44.398 -22.195   1.960  1.00  0.00     0.352 A 
BRANCH   6  18
HETATM   18  C   UNL     1      43.839 -16.072   7.107  1.00  0.00     0.312 C 
HETATM   19  O   UNL     1      43.657 -16.326   8.292  1.00  0.00    -0.258 OA
BRANCH  18  20
HETATM   20  O   UNL     1      43.961 -14.837   6.555  1.00  0.00    -0.317 OA
BRANCH  20  21
HETATM   21  C   UNL     1      45.133 -14.085   6.904  1.00  0.00     0.175 C 
HETATM   22  C   UNL     1      44.792 -13.146   8.045  1.00  0.00     0.034 C 
ENDBRANCH  20  21
ENDBRANCH  18  20
ENDBRANCH   6  18
ENDBRANCH   1   5
BRANCH   2  23
HETATM   23  C   UNL     1      41.219 -14.315   3.552  1.00  0.00     0.337 C 
BRANCH  23  24
HETATM   24  N   UNL     1      40.732 -14.210   2.109  1.00  0.00    -0.060 N 
HETATM   25  H   UNL     1      39.922 -14.852   2.063  1.00  0.00     0.280 HD
HETATM   26  C   UNL     1      40.168 -12.830   1.774  1.00  0.00     0.255 C 
HETATM   27  C   UNL     1      39.557 -12.831   0.359  1.00  0.00     0.150 C 
HETATM   28  N   UNL     1      40.485 -13.368  -0.650  1.00  0.00    -0.377 N 
HETATM   29  C   UNL     1      41.129 -14.658  -0.332  1.00  0.00     0.150 C 
HETATM   30  C   UNL     1      41.755 -14.648   1.080  1.00  0.00     0.255 C 
BRANCH  28  31
HETATM   31  C   UNL     1      41.193 -12.504  -1.487  1.00  0.00     0.037 A 
HETATM   32  C   UNL     1      40.948 -12.480  -2.881  1.00  0.00    -0.035 A 
HETATM   33  C   UNL     1      39.876 -13.320  -3.529  1.00  0.00     0.050 C 
HETATM   34  C   UNL     1      41.704 -11.638  -3.721  1.00  0.00     0.011 A 
HETATM   35  C   UNL     1      42.672 -10.788  -3.195  1.00  0.00     0.024 A 
HETATM   36  C   UNL     1      42.888 -10.775  -1.826  1.00  0.00     0.036 A 
HETATM   37 CL   UNL     1      44.074  -9.726  -1.153  1.00  0.00    -0.084 Cl
HETATM   38  C   UNL     1      42.159 -11.617  -0.982  1.00  0.00     0.053 A 
ENDBRANCH  28  31
ENDBRANCH  23  24
ENDBRANCH   2  23
TORSDOF 7
ENDMDL
MODEL 2
REMARK VINA RESULT:      -8.9      5.275      9.786
REMARK  7 active torsions:
REMARK  status: ('A' for Active; 'I' for Inactive)
REMARK    1  A    between atoms: C_2  and  O_3 
REMARK    2  A    between atoms: O_3  and  C_4 
REMARK    3  A    between atoms: C_4  and  C_5 
REMARK    4  A    between atoms: C_10  and  N_11 
REMARK       I    between atoms: N_11  and  C_12 
REMARK    5  A    between atoms: C_12  and  C_13 
REMARK    6  A    between atoms: C_13  and  N_14 
REMARK    7  A    between atoms: N_18  and  C_19 
ROOT
HETATM    1  N   UNL     1      43.231 -11.946   8.311  1.00  0.00    -0.323 N 
HETATM    2  C   UNL     1      44.583 -12.169   8.376  1.00  0.00     0.248 C 
HETATM    3  O   UNL     1      45.450 -11.426   8.833  1.00  0.00    -0.271 OA
HETATM    4  H   UNL     1      42.674 -12.468   7.631  1.00  0.00     0.169 HD
ENDROOT
BRANCH   1   5
HETATM    5  C   UNL     1      42.540 -10.901   8.921  1.00  0.00     0.080 A 
HETATM    6  C   UNL     1      41.804 -10.002   8.161  1.00  0.00     0.137 A 
HETATM    7  N   UNL     1      41.268  -9.078   9.024  1.00  0.00    -0.349 N 
HETATM    8  H   UNL     1      40.696  -8.294   8.736  1.00  0.00     0.166 HD
HETATM    9  C   UNL     1      41.558  -9.399  10.327  1.00  0.00     0.048 A 
HETATM   10  C   UNL     1      42.360 -10.553  10.303  1.00  0.00     0.023 A 
HETATM   11  C   UNL     1      41.148  -8.754  11.506  1.00  0.00     0.070 A 
HETATM   12  C   UNL     1      42.746 -11.114  11.545  1.00  0.00     0.055 A 
HETATM   13  C   UNL     1      42.330 -10.478  12.702  1.00  0.00     0.106 A 
HETATM   14  C   UNL     1      41.566  -9.343  12.682  1.00  0.00     0.107 A 
HETATM   15  O   UNL     1      42.606 -10.899  13.967  1.00  0.00    -0.323 OA
HETATM   16  O   UNL     1      41.265  -8.897  13.931  1.00  0.00    -0.323 OA
HETATM   17  C   UNL     1      41.927  -9.888  14.743  1.00  0.00     0.352 A 
BRANCH   6  18
HETATM   18  C   UNL     1      41.616  -9.981   6.731  1.00  0.00     0.312 C 
HETATM   19  O   UNL     1      41.817  -8.994   6.033  1.00  0.00    -0.258 OA
BRANCH  18  20
HETATM   20  O   UNL     1      41.205 -11.203   6.303  1.00  0.00    -0.317 OA
BRANCH  20  21
HETATM   21  C   UNL     1      39.818 -11.521   6.490  1.00  0.00     0.175 C 
HETATM   22  C   UNL     1      39.602 -12.988   6.169  1.00  0.00     0.034 C 
ENDBRANCH  20  21
ENDBRANCH  18  20
ENDBRANCH   6  18
ENDBRANCH   1   5
BRANCH   2  23
HETATM   23  C   UNL     1      45.029 -13.515   7.795  1.00  0.00     0.337 C 
BRANCH  23  24
HETATM   24  N   UNL     1      43.884 -14.147   7.009  1.00  0.00    -0.060 N 
HETATM   25  H   UNL     1      43.052 -13.590   7.271  1.00  0.00     0.280 HD
HETATM   26  C   UNL     1      44.029 -13.961   5.499  1.00  0.00     0.255 C 
HETATM   27  C   UNL     1      42.775 -14.484   4.771  1.00  0.00     0.150 C 
HETATM   28  N   UNL     1      42.422 -15.853   5.182  1.00  0.00    -0.377 N 
HETATM   29  C   UNL     1      42.358 -16.109   6.635  1.00  0.00     0.150 C 
HETATM   30  C   UNL     1      43.623 -15.599   7.358  1.00  0.00     0.255 C 
BRANCH  28  31
HETATM   31  C   UNL     1      42.748 -16.939   4.368  1.00  0.00     0.037 A 
HETATM   32  C   UNL     1      42.101 -17.134   3.124  1.00  0.00    -0.035 A 
HETATM   33  C   UNL     1      41.089 -16.159   2.576  1.00  0.00     0.050 C 
HETATM   34  C   UNL     1      42.405 -18.261   2.335  1.00  0.00     0.011 A 
HETATM   35  C   UNL     1      43.370 -19.178   2.740  1.00  0.00     0.024 A 
HETATM   36  C   UNL     1      44.037 -18.971   3.937  1.00  0.00     0.036 A 
HETATM   37 CL   UNL     1      45.240 -20.087   4.454  1.00  0.00    -0.084 Cl
HETATM   38  C   UNL     1      43.735 -17.867   4.740  1.00  0.00     0.053 A 
ENDBRANCH  28  31
ENDBRANCH  23  24
ENDBRANCH   2  23
TORSDOF 7
ENDMDL
MODEL 3
REMARK VINA RESULT:      -8.8      1.683      2.165
REMARK  7 active torsions:
REMARK  status: ('A' for Active; 'I' for Inactive)
REMARK    1  A    between atoms: C_2  and  O_3 
REMARK    2  A    between atoms: O_3  and  C_4 
REMARK    3  A    between atoms: C_4  and  C_5 
REMARK    4  A    between atoms: C_10  and  N_11 
REMARK       I    between atoms: N_11  and  C_12 
REMARK    5  A    between atoms: C_12  and  C_13 
REMARK    6  A    between atoms: C_13  and  N_14 
REMARK    7  A    between atoms: N_18  and  C_19 
ROOT
HETATM    1  N   UNL     1      43.196 -15.918   4.275  1.00  0.00    -0.323 N 
HETATM    2  C   UNL     1      41.891 -15.517   4.408  1.00  0.00     0.248 C 
HETATM    3  O   UNL     1      40.934 -16.178   4.808  1.00  0.00    -0.271 OA
HETATM    4  H   UNL     1      43.810 -15.404   3.640  1.00  0.00     0.169 HD
ENDROOT
BRANCH   1   5
HETATM    5  C   UNL     1      43.740 -17.112   4.742  1.00  0.00     0.080 A 
HETATM    6  C   UNL     1      44.144 -17.235   6.065  1.00  0.00     0.137 A 
HETATM    7  N   UNL     1      44.662 -18.498   6.221  1.00  0.00    -0.349 N 
HETATM    8  H   UNL     1      45.047 -18.852   7.087  1.00  0.00     0.166 HD
HETATM    9  C   UNL     1      44.526 -19.228   5.067  1.00  0.00     0.048 A 
HETATM   10  C   UNL     1      43.941 -18.384   4.106  1.00  0.00     0.023 A 
HETATM   11  C   UNL     1      44.866 -20.570   4.827  1.00  0.00     0.070 A 
HETATM   12  C   UNL     1      43.648 -18.936   2.835  1.00  0.00     0.055 A 
HETATM   13  C   UNL     1      43.977 -20.261   2.611  1.00  0.00     0.106 A 
HETATM   14  C   UNL     1      44.566 -21.044   3.566  1.00  0.00     0.107 A 
HETATM   15  O   UNL     1      43.749 -20.938   1.450  1.00  0.00    -0.323 OA
HETATM   16  O   UNL     1      44.789 -22.314   3.133  1.00  0.00    -0.323 OA
HETATM   17  C   UNL     1      44.269 -22.241   1.790  1.00  0.00     0.352 A 
BRANCH   6  18
HETATM   18  C   UNL     1      44.073 -16.251   7.118  1.00  0.00     0.312 C 
HETATM   19  O   UNL     1      43.415 -16.398   8.141  1.00  0.00    -0.258 OA
BRANCH  18  20
HETATM   20  O   UNL     1      44.845 -15.179   6.800  1.00  0.00    -0.317 OA
BRANCH  20  21
HETATM   21  C   UNL     1      44.298 -13.883   7.083  1.00  0.00     0.175 C 
HETATM   22  C   UNL     1      45.271 -13.121   7.962  1.00  0.00     0.034 C 
ENDBRANCH  20  21
ENDBRANCH  18  20
ENDBRANCH   6  18
ENDBRANCH   1   5
BRANCH   2  23
HETATM   23  C   UNL     1      41.632 -14.064   3.997  1.00  0.00     0.337 C 
BRANCH  23  24
HETATM   24  N   UNL     1      41.873 -13.897   2.499  1.00  0.00    -0.060 N 
HETATM   25  H   UNL     1      42.872 -14.137   2.370  1.00  0.00     0.280 HD
HETATM   26  C   UNL     1      41.105 -14.917   1.659  1.00  0.00     0.255 C 
HETATM   27  C   UNL     1      41.503 -14.798   0.175  1.00  0.00     0.150 C 
HETATM   28  N   UNL     1      41.411 -13.413  -0.318  1.00  0.00    -0.377 N 
HETATM   29  C   UNL     1      42.059 -12.376   0.507  1.00  0.00     0.150 C 
HETATM   30  C   UNL     1      41.645 -12.488   1.990  1.00  0.00     0.255 C 
BRANCH  28  31
HETATM   31  C   UNL     1      40.317 -13.011  -1.086  1.00  0.00     0.037 A 
HETATM   32  C   UNL     1      40.380 -13.018  -2.500  1.00  0.00    -0.035 A 
HETATM   33  C   UNL     1      41.586 -13.519  -3.255  1.00  0.00     0.050 C 
HETATM   34  C   UNL     1      39.286 -12.562  -3.262  1.00  0.00     0.011 A 
HETATM   35  C   UNL     1      38.113 -12.138  -2.645  1.00  0.00     0.024 A 
HETATM   36  C   UNL     1      38.028 -12.169  -1.262  1.00  0.00     0.036 A 
HETATM   37 CL   UNL     1      36.585 -11.658  -0.478  1.00  0.00    -0.084 Cl
HETATM   38  C   UNL     1      39.112 -12.602  -0.491  1.00  0.00     0.053 A 
ENDBRANCH  28  31
ENDBRANCH  23  24
ENDBRANCH   2  23
TORSDOF 7
ENDMDL
MODEL 4
REMARK VINA RESULT:      -8.7      4.053      8.168
REMARK  7 active torsions:
REMARK  status: ('A' for Active; 'I' for Inactive)
REMARK    1  A    between atoms: C_2  and  O_3 
REMARK    2  A    between atoms: O_3  and  C_4 
REMARK    3  A    between atoms: C_4  and  C_5 
REMARK    4  A    between atoms: C_10  and  N_11 
REMARK       I    between atoms: N_11  and  C_12 
REMARK    5  A    between atoms: C_12  and  C_13 
REMARK    6  A    between atoms: C_13  and  N_14 
REMARK    7  A    between atoms: N_18  and  C_19 
ROOT
HETATM    1  N   UNL     1      40.208 -14.103   4.556  1.00  0.00    -0.323 N 
HETATM    2  C   UNL     1      40.850 -12.891   4.596  1.00  0.00     0.248 C 
HETATM    3  O   UNL     1      42.062 -12.678   4.620  1.00  0.00    -0.271 OA
HETATM    4  H   UNL     1      39.236 -14.160   4.868  1.00  0.00     0.169 HD
ENDROOT
BRANCH   1   5
HETATM    5  C   UNL     1      40.807 -15.344   4.349  1.00  0.00     0.080 A 
HETATM    6  C   UNL     1      40.785 -15.938   3.094  1.00  0.00     0.137 A 
HETATM    7  N   UNL     1      41.417 -17.152   3.204  1.00  0.00    -0.349 N 
HETATM    8  H   UNL     1      41.531 -17.806   2.440  1.00  0.00     0.166 HD
HETATM    9  C   UNL     1      41.926 -17.326   4.467  1.00  0.00     0.048 A 
HETATM   10  C   UNL     1      41.563 -16.198   5.222  1.00  0.00     0.023 A 
HETATM   11  C   UNL     1      42.688 -18.393   4.971  1.00  0.00     0.070 A 
HETATM   12  C   UNL     1      42.025 -16.121   6.558  1.00  0.00     0.055 A 
HETATM   13  C   UNL     1      42.785 -17.171   7.044  1.00  0.00     0.106 A 
HETATM   14  C   UNL     1      43.099 -18.264   6.282  1.00  0.00     0.107 A 
HETATM   15  O   UNL     1      43.312 -17.241   8.298  1.00  0.00    -0.323 OA
HETATM   16  O   UNL     1      43.861 -19.166   6.957  1.00  0.00    -0.323 OA
HETATM   17  C   UNL     1      43.993 -18.512   8.235  1.00  0.00     0.352 A 
BRANCH   6  18
HETATM   18  C   UNL     1      40.209 -15.431   1.873  1.00  0.00     0.312 C 
HETATM   19  O   UNL     1      40.784 -15.450   0.791  1.00  0.00    -0.258 OA
BRANCH  18  20
HETATM   20  O   UNL     1      38.958 -14.958   2.115  1.00  0.00    -0.317 OA
BRANCH  20  21
HETATM   21  C   UNL     1      38.578 -13.756   1.428  1.00  0.00     0.175 C 
HETATM   22  C   UNL     1      37.272 -14.002   0.696  1.00  0.00     0.034 C 
ENDBRANCH  20  21
ENDBRANCH  18  20
ENDBRANCH   6  18
ENDBRANCH   1   5
BRANCH   2  23
HETATM   23  C   UNL     1      39.912 -11.680   4.615  1.00  0.00     0.337 C 
BRANCH  23  24
HETATM   24  N   UNL     1      40.077 -10.915   5.925  1.00  0.00    -0.060 N 
HETATM   25  H   UNL     1      39.244 -10.302   5.973  1.00  0.00     0.280 HD
HETATM   26  C   UNL     1      39.978 -11.818   7.154  1.00  0.00     0.255 C 
HETATM   27  C   UNL     1      40.000 -10.973   8.443  1.00  0.00     0.150 C 
HETATM   28  N   UNL     1      41.129 -10.030   8.473  1.00  0.00    -0.377 N 
HETATM   29  C   UNL     1      41.324  -9.197   7.270  1.00  0.00     0.150 C 
HETATM   30  C   UNL     1      41.319 -10.048   5.982  1.00  0.00     0.255 C 
BRANCH  28  31
HETATM   31  C   UNL     1      42.268 -10.319   9.226  1.00  0.00     0.037 A 
HETATM   32  C   UNL     1      42.443  -9.769  10.519  1.00  0.00    -0.035 A 
HETATM   33  C   UNL     1      41.395  -8.909  11.182  1.00  0.00     0.050 C 
HETATM   34  C   UNL     1      43.620 -10.029  11.249  1.00  0.00     0.011 A 
HETATM   35  C   UNL     1      44.610 -10.861  10.734  1.00  0.00     0.024 A 
HETATM   36  C   UNL     1      44.427 -11.437   9.486  1.00  0.00     0.036 A 
HETATM   37 CL   UNL     1      45.634 -12.474   8.834  1.00  0.00    -0.084 Cl
HETATM   38  C   UNL     1      43.273 -11.174   8.743  1.00  0.00     0.053 A 
ENDBRANCH  28  31
ENDBRANCH  23  24
ENDBRANCH   2  23
TORSDOF 7
ENDMDL
MODEL 5
REMARK VINA RESULT:      -8.6      2.629      3.845
REMARK  7 active torsions:
REMARK  status: ('A' for Active; 'I' for Inactive)
REMARK    1  A    between atoms: C_2  and  O_3 
REMARK    2  A    between atoms: O_3  and  C_4 
REMARK    3  A    between atoms: C_4  and  C_5 
REMARK    4  A    between atoms: C_10  and  N_11 
REMARK       I    between atoms: N_11  and  C_12 
REMARK    5  A    between atoms: C_12  and  C_13 
REMARK    6  A    between atoms: C_13  and  N_14 
REMARK    7  A    between atoms: N_18  and  C_19 
ROOT
HETATM    1  N   UNL     1      42.863 -16.381   1.483  1.00  0.00    -0.323 N 
HETATM    2  C   UNL     1      41.752 -16.714   0.751  1.00  0.00     0.248 C 
HETATM    3  O   UNL     1      41.010 -17.684   0.902  1.00  0.00    -0.271 OA
HETATM    4  H   UNL     1      43.563 -15.763   1.068  1.00  0.00     0.169 HD
ENDROOT
BRANCH   1   5
HETATM    5  C   UNL     1      43.273 -16.980   2.672  1.00  0.00     0.080 A 
HETATM    6  C   UNL     1      43.262 -16.267   3.863  1.00  0.00     0.137 A 
HETATM    7  N   UNL     1      43.743 -17.099   4.844  1.00  0.00    -0.349 N 
HETATM    8  H   UNL     1      43.859 -16.830   5.813  1.00  0.00     0.166 HD
HETATM    9  C   UNL     1      43.983 -18.355   4.347  1.00  0.00     0.048 A 
HETATM   10  C   UNL     1      43.693 -18.321   2.971  1.00  0.00     0.023 A 
HETATM   11  C   UNL     1      44.418 -19.505   5.027  1.00  0.00     0.070 A 
HETATM   12  C   UNL     1      43.814 -19.529   2.241  1.00  0.00     0.055 A 
HETATM   13  C   UNL     1      44.232 -20.659   2.921  1.00  0.00     0.106 A 
HETATM   14  C   UNL     1      44.526 -20.646   4.258  1.00  0.00     0.107 A 
HETATM   15  O   UNL     1      44.384 -21.894   2.366  1.00  0.00    -0.323 OA
HETATM   16  O   UNL     1      44.905 -21.868   4.719  1.00  0.00    -0.323 OA
HETATM   17  C   UNL     1      44.814 -22.656   3.515  1.00  0.00     0.352 A 
BRANCH   6  18
HETATM   18  C   UNL     1      42.849 -14.903   4.087  1.00  0.00     0.312 C 
HETATM   19  O   UNL     1      43.148 -13.973   3.347  1.00  0.00    -0.258 OA
BRANCH  18  20
HETATM   20  O   UNL     1      42.087 -14.830   5.209  1.00  0.00    -0.317 OA
BRANCH  20  21
HETATM   21  C   UNL     1      40.695 -15.151   5.068  1.00  0.00     0.175 C 
HETATM   22  C   UNL     1      39.894 -13.863   5.044  1.00  0.00     0.034 C 
ENDBRANCH  20  21
ENDBRANCH  18  20
ENDBRANCH   6  18
ENDBRANCH   1   5
BRANCH   2  23
HETATM   23  C   UNL     1      41.430 -15.740  -0.387  1.00  0.00     0.337 C 
BRANCH  23  24
HETATM   24  N   UNL     1      40.068 -15.094  -0.150  1.00  0.00    -0.060 N 
HETATM   25  H   UNL     1      39.390 -15.766  -0.551  1.00  0.00     0.280 HD
HETATM   26  C   UNL     1      39.707 -15.002   1.333  1.00  0.00     0.255 C 
HETATM   27  C   UNL     1      38.265 -14.484   1.502  1.00  0.00     0.150 C 
HETATM   28  N   UNL     1      38.023 -13.247   0.740  1.00  0.00    -0.377 N 
HETATM   29  C   UNL     1      38.439 -13.254  -0.676  1.00  0.00     0.150 C 
HETATM   30  C   UNL     1      39.889 -13.757  -0.840  1.00  0.00     0.255 C 
BRANCH  28  31
HETATM   31  C   UNL     1      38.022 -12.011   1.387  1.00  0.00     0.037 A 
HETATM   32  C   UNL     1      36.923 -11.127   1.263  1.00  0.00    -0.035 A 
HETATM   33  C   UNL     1      35.675 -11.489   0.497  1.00  0.00     0.050 C 
HETATM   34  C   UNL     1      36.957  -9.861   1.882  1.00  0.00     0.011 A 
HETATM   35  C   UNL     1      38.045  -9.473   2.656  1.00  0.00     0.024 A 
HETATM   36  C   UNL     1      39.107 -10.349   2.816  1.00  0.00     0.036 A 
HETATM   37 CL   UNL     1      40.460  -9.894   3.776  1.00  0.00    -0.084 Cl
HETATM   38  C   UNL     1      39.097 -11.602   2.195  1.00  0.00     0.053 A 
ENDBRANCH  28  31
ENDBRANCH  23  24
ENDBRANCH   2  23
TORSDOF 7
ENDMDL
MODEL 6
REMARK VINA RESULT:      -8.5      2.582      3.509
REMARK  7 active torsions:
REMARK  status: ('A' for Active; 'I' for Inactive)
REMARK    1  A    between atoms: C_2  and  O_3 
REMARK    2  A    between atoms: O_3  and  C_4 
REMARK    3  A    between atoms: C_4  and  C_5 
REMARK    4  A    between atoms: C_10  and  N_11 
REMARK       I    between atoms: N_11  and  C_12 
REMARK    5  A    between atoms: C_12  and  C_13 
REMARK    6  A    between atoms: C_13  and  N_14 
REMARK    7  A    between atoms: N_18  and  C_19 
ROOT
HETATM    1  N   UNL     1      42.744 -16.586   0.797  1.00  0.00    -0.323 N 
HETATM    2  C   UNL     1      41.424 -16.537   0.426  1.00  0.00     0.248 C 
HETATM    3  O   UNL     1      40.457 -17.024   1.010  1.00  0.00    -0.271 OA
HETATM    4  H   UNL     1      43.465 -16.441   0.087  1.00  0.00     0.169 HD
ENDROOT
BRANCH   1   5
HETATM    5  C   UNL     1      43.239 -17.045   2.016  1.00  0.00     0.080 A 
HETATM    6  C   UNL     1      43.352 -16.186   3.101  1.00  0.00     0.137 A 
HETATM    7  N   UNL     1      43.892 -16.905   4.139  1.00  0.00    -0.349 N 
HETATM    8  H   UNL     1      44.099 -16.520   5.052  1.00  0.00     0.166 HD
HETATM    9  C   UNL     1      44.051 -18.223   3.791  1.00  0.00     0.048 A 
HETATM   10  C   UNL     1      43.644 -18.353   2.451  1.00  0.00     0.023 A 
HETATM   11  C   UNL     1      44.510 -19.294   4.577  1.00  0.00     0.070 A 
HETATM   12  C   UNL     1      43.666 -19.647   1.877  1.00  0.00     0.055 A 
HETATM   13  C   UNL     1      44.108 -20.698   2.662  1.00  0.00     0.106 A 
HETATM   14  C   UNL     1      44.518 -20.526   3.956  1.00  0.00     0.107 A 
HETATM   15  O   UNL     1      44.176 -21.998   2.261  1.00  0.00    -0.323 OA
HETATM   16  O   UNL     1      44.900 -21.694   4.539  1.00  0.00    -0.323 OA
HETATM   17  C   UNL     1      44.681 -22.625   3.460  1.00  0.00     0.352 A 
BRANCH   6  18
HETATM   18  C   UNL     1      42.999 -14.789   3.179  1.00  0.00     0.312 C 
HETATM   19  O   UNL     1      43.820 -13.879   3.152  1.00  0.00    -0.258 OA
BRANCH  18  20
HETATM   20  O   UNL     1      41.650 -14.659   3.270  1.00  0.00    -0.317 OA
BRANCH  20  21
HETATM   21  C   UNL     1      41.041 -15.089   4.497  1.00  0.00     0.175 C 
HETATM   22  C   UNL     1      39.888 -14.159   4.824  1.00  0.00     0.034 C 
ENDBRANCH  20  21
ENDBRANCH  18  20
ENDBRANCH   6  18
ENDBRANCH   1   5
BRANCH   2  23
HETATM   23  C   UNL     1      41.163 -15.779  -0.879  1.00  0.00     0.337 C 
BRANCH  23  24
HETATM   24  N   UNL     1      41.888 -14.436  -0.855  1.00  0.00    -0.060 N 
HETATM   25  H   UNL     1      42.851 -14.668  -0.554  1.00  0.00     0.280 HD
HETATM   26  C   UNL     1      42.041 -13.822  -2.246  1.00  0.00     0.255 C 
HETATM   27  C   UNL     1      42.908 -12.549  -2.176  1.00  0.00     0.150 C 
HETATM   28  N   UNL     1      42.437 -11.608  -1.146  1.00  0.00    -0.377 N 
HETATM   29  C   UNL     1      42.185 -12.172   0.195  1.00  0.00     0.150 C 
HETATM   30  C   UNL     1      41.303 -13.437   0.123  1.00  0.00     0.255 C 
BRANCH  28  31
HETATM   31  C   UNL     1      41.687 -10.487  -1.506  1.00  0.00     0.037 A 
HETATM   32  C   UNL     1      42.285  -9.206  -1.577  1.00  0.00    -0.035 A 
HETATM   33  C   UNL     1      43.759  -8.985  -1.343  1.00  0.00     0.050 C 
HETATM   34  C   UNL     1      41.505  -8.075  -1.893  1.00  0.00     0.011 A 
HETATM   35  C   UNL     1      40.150  -8.200  -2.181  1.00  0.00     0.024 A 
HETATM   36  C   UNL     1      39.567  -9.458  -2.155  1.00  0.00     0.036 A 
HETATM   37 CL   UNL     1      37.894  -9.637  -2.515  1.00  0.00    -0.084 Cl
HETATM   38  C   UNL     1      40.323 -10.586  -1.825  1.00  0.00     0.053 A 
ENDBRANCH  28  31
ENDBRANCH  23  24
ENDBRANCH   2  23
TORSDOF 7
ENDMDL
MODEL 7
REMARK VINA RESULT:      -8.5      2.907      5.270
REMARK  7 active torsions:
REMARK  status: ('A' for Active; 'I' for Inactive)
REMARK    1  A    between atoms: C_2  and  O_3 
REMARK    2  A    between atoms: O_3  and  C_4 
REMARK    3  A    between atoms: C_4  and  C_5 
REMARK    4  A    between atoms: C_10  and  N_11 
REMARK       I    between atoms: N_11  and  C_12 
REMARK    5  A    between atoms: C_12  and  C_13 
REMARK    6  A    between atoms: C_13  and  N_14 
REMARK    7  A    between atoms: N_18  and  C_19 
ROOT
HETATM    1  N   UNL     1      43.201 -16.186   4.156  1.00  0.00    -0.323 N 
HETATM    2  C   UNL     1      42.349 -16.003   5.216  1.00  0.00     0.248 C 
HETATM    3  O   UNL     1      41.319 -16.624   5.473  1.00  0.00    -0.271 OA
HETATM    4  H   UNL     1      43.815 -15.418   3.876  1.00  0.00     0.169 HD
ENDROOT
BRANCH   1   5
HETATM    5  C   UNL     1      43.167 -17.241   3.247  1.00  0.00     0.080 A 
HETATM    6  C   UNL     1      42.742 -17.035   1.941  1.00  0.00     0.137 A 
HETATM    7  N   UNL     1      42.787 -18.248   1.299  1.00  0.00    -0.349 N 
HETATM    8  H   UNL     1      42.513 -18.393   0.335  1.00  0.00     0.166 HD
HETATM    9  C   UNL     1      43.312 -19.216   2.118  1.00  0.00     0.048 A 
HETATM   10  C   UNL     1      43.570 -18.615   3.363  1.00  0.00     0.023 A 
HETATM   11  C   UNL     1      43.584 -20.564   1.829  1.00  0.00     0.070 A 
HETATM   12  C   UNL     1      44.171 -19.410   4.368  1.00  0.00     0.055 A 
HETATM   13  C   UNL     1      44.446 -20.734   4.071  1.00  0.00     0.106 A 
HETATM   14  C   UNL     1      44.159 -21.288   2.853  1.00  0.00     0.107 A 
HETATM   15  O   UNL     1      45.032 -21.621   4.923  1.00  0.00    -0.323 OA
HETATM   16  O   UNL     1      44.523 -22.597   2.779  1.00  0.00    -0.323 OA
HETATM   17  C   UNL     1      45.076 -22.803   4.094  1.00  0.00     0.352 A 
BRANCH   6  18
HETATM   18  C   UNL     1      42.307 -15.806   1.324  1.00  0.00     0.312 C 
HETATM   19  O   UNL     1      42.477 -14.698   1.821  1.00  0.00    -0.258 OA
BRANCH  18  20
HETATM   20  O   UNL     1      41.710 -16.074   0.133  1.00  0.00    -0.317 OA
BRANCH  20  21
HETATM   21  C   UNL     1      41.380 -14.947  -0.693  1.00  0.00     0.175 C 
HETATM   22  C   UNL     1      40.937 -15.449  -2.053  1.00  0.00     0.034 C 
ENDBRANCH  20  21
ENDBRANCH  18  20
ENDBRANCH   6  18
ENDBRANCH   1   5
BRANCH   2  23
HETATM   23  C   UNL     1      42.763 -14.880   6.172  1.00  0.00     0.337 C 
BRANCH  23  24
HETATM   24  N   UNL     1      41.846 -13.673   5.984  1.00  0.00    -0.060 N 
HETATM   25  H   UNL     1      42.021 -13.085   6.818  1.00  0.00     0.280 HD
HETATM   26  C   UNL     1      42.248 -12.806   4.792  1.00  0.00     0.255 C 
HETATM   27  C   UNL     1      41.385 -11.529   4.744  1.00  0.00     0.150 C 
HETATM   28  N   UNL     1      39.944 -11.826   4.821  1.00  0.00    -0.377 N 
HETATM   29  C   UNL     1      39.516 -12.735   5.903  1.00  0.00     0.150 C 
HETATM   30  C   UNL     1      40.372 -14.019   5.937  1.00  0.00     0.255 C 
BRANCH  28  31
HETATM   31  C   UNL     1      39.160 -11.811   3.668  1.00  0.00     0.037 A 
HETATM   32  C   UNL     1      38.365 -10.685   3.344  1.00  0.00    -0.035 A 
HETATM   33  C   UNL     1      38.372  -9.424   4.172  1.00  0.00     0.050 C 
HETATM   34  C   UNL     1      37.539 -10.703   2.202  1.00  0.00     0.011 A 
HETATM   35  C   UNL     1      37.519 -11.804   1.352  1.00  0.00     0.024 A 
HETATM   36  C   UNL     1      38.326 -12.894   1.640  1.00  0.00     0.036 A 
HETATM   37 CL   UNL     1      38.324 -14.263   0.599  1.00  0.00    -0.084 Cl
HETATM   38  C   UNL     1      39.138 -12.899   2.778  1.00  0.00     0.053 A 
ENDBRANCH  28  31
ENDBRANCH  23  24
ENDBRANCH   2  23
TORSDOF 7
ENDMDL
MODEL 8
REMARK VINA RESULT:      -8.4      1.794      2.345
REMARK  7 active torsions:
REMARK  status: ('A' for Active; 'I' for Inactive)
REMARK    1  A    between atoms: C_2  and  O_3 
REMARK    2  A    between atoms: O_3  and  C_4 
REMARK    3  A    between atoms: C_4  and  C_5 
REMARK    4  A    between atoms: C_10  and  N_11 
REMARK       I    between atoms: N_11  and  C_12 
REMARK    5  A    between atoms: C_12  and  C_13 
REMARK    6  A    between atoms: C_13  and  N_14 
REMARK    7  A    between atoms: N_18  and  C_19 
ROOT
HETATM    1  N   UNL     1      42.398 -15.556   3.287  1.00  0.00    -0.323 N 
HETATM    2  C   UNL     1      41.125 -15.660   2.786  1.00  0.00     0.248 C 
HETATM    3  O   UNL     1      40.423 -16.667   2.710  1.00  0.00    -0.271 OA
HETATM    4  H   UNL     1      42.981 -14.767   2.999  1.00  0.00     0.169 HD
ENDROOT
BRANCH   1   5
HETATM    5  C   UNL     1      43.091 -16.544   3.983  1.00  0.00     0.080 A 
HETATM    6  C   UNL     1      43.476 -16.340   5.302  1.00  0.00     0.137 A 
HETATM    7  N   UNL     1      44.159 -17.460   5.708  1.00  0.00    -0.349 N 
HETATM    8  H   UNL     1      44.569 -17.576   6.626  1.00  0.00     0.166 HD
HETATM    9  C   UNL     1      44.153 -18.419   4.726  1.00  0.00     0.048 A 
HETATM   10  C   UNL     1      43.480 -17.877   3.617  1.00  0.00     0.023 A 
HETATM   11  C   UNL     1      44.681 -19.721   4.762  1.00  0.00     0.070 A 
HETATM   12  C   UNL     1      43.297 -18.708   2.485  1.00  0.00     0.055 A 
HETATM   13  C   UNL     1      43.810 -19.992   2.533  1.00  0.00     0.106 A 
HETATM   14  C   UNL     1      44.479 -20.476   3.625  1.00  0.00     0.107 A 
HETATM   15  O   UNL     1      43.705 -20.914   1.535  1.00  0.00    -0.323 OA
HETATM   16  O   UNL     1      44.885 -21.763   3.457  1.00  0.00    -0.323 OA
HETATM   17  C   UNL     1      44.392 -22.036   2.129  1.00  0.00     0.352 A 
BRANCH   6  18
HETATM   18  C   UNL     1      43.245 -15.184   6.134  1.00  0.00     0.312 C 
HETATM   19  O   UNL     1      42.264 -14.457   6.031  1.00  0.00    -0.258 OA
BRANCH  18  20
HETATM   20  O   UNL     1      44.258 -15.052   7.030  1.00  0.00    -0.317 OA
BRANCH  20  21
HETATM   21  C   UNL     1      45.135 -13.929   6.852  1.00  0.00     0.175 C 
HETATM   22  C   UNL     1      45.083 -13.065   8.097  1.00  0.00     0.034 C 
ENDBRANCH  20  21
ENDBRANCH  18  20
ENDBRANCH   6  18
ENDBRANCH   1   5
BRANCH   2  23
HETATM   23  C   UNL     1      40.542 -14.343   2.264  1.00  0.00     0.337 C 
BRANCH  23  24
HETATM   24  N   UNL     1      41.096 -14.043   0.874  1.00  0.00    -0.060 N 
HETATM   25  H   UNL     1      42.032 -14.484   0.868  1.00  0.00     0.280 HD
HETATM   26  C   UNL     1      40.317 -14.748  -0.237  1.00  0.00     0.255 C 
HETATM   27  C   UNL     1      41.009 -14.531  -1.597  1.00  0.00     0.150 C 
HETATM   28  N   UNL     1      41.291 -13.110  -1.860  1.00  0.00    -0.377 N 
HETATM   29  C   UNL     1      41.961 -12.360  -0.780  1.00  0.00     0.150 C 
HETATM   30  C   UNL     1      41.255 -12.566   0.577  1.00  0.00     0.255 C 
BRANCH  28  31
HETATM   31  C   UNL     1      40.468 -12.376  -2.715  1.00  0.00     0.037 A 
HETATM   32  C   UNL     1      41.015 -11.625  -3.783  1.00  0.00    -0.035 A 
HETATM   33  C   UNL     1      42.489 -11.628  -4.104  1.00  0.00     0.050 C 
HETATM   34  C   UNL     1      40.177 -10.849  -4.609  1.00  0.00     0.011 A 
HETATM   35  C   UNL     1      38.798 -10.838  -4.418  1.00  0.00     0.024 A 
HETATM   36  C   UNL     1      38.251 -11.604  -3.401  1.00  0.00     0.036 A 
HETATM   37 CL   UNL     1      36.549 -11.612  -3.152  1.00  0.00    -0.084 Cl
HETATM   38  C   UNL     1      39.071 -12.365  -2.562  1.00  0.00     0.053 A 
ENDBRANCH  28  31
ENDBRANCH  23  24
ENDBRANCH   2  23
TORSDOF 7
ENDMDL
MODEL 9
REMARK VINA RESULT:      -8.4      5.656     10.008
REMARK  7 active torsions:
REMARK  status: ('A' for Active; 'I' for Inactive)
REMARK    1  A    between atoms: C_2  and  O_3 
REMARK    2  A    between atoms: O_3  and  C_4 
REMARK    3  A    between atoms: C_4  and  C_5 
REMARK    4  A    between atoms: C_10  and  N_11 
REMARK       I    between atoms: N_11  and  C_12 
REMARK    5  A    between atoms: C_12  and  C_13 
REMARK    6  A    between atoms: C_13  and  N_14 
REMARK    7  A    between atoms: N_18  and  C_19 
ROOT
HETATM    1  N   UNL     1      41.078 -11.237   7.394  1.00  0.00    -0.323 N 
HETATM    2  C   UNL     1      40.178 -12.143   6.892  1.00  0.00     0.248 C 
HETATM    3  O   UNL     1      39.043 -12.385   7.301  1.00  0.00    -0.271 OA
HETATM    4  H   UNL     1      42.072 -11.360   7.189  1.00  0.00     0.169 HD
ENDROOT
BRANCH   1   5
HETATM    5  C   UNL     1      40.819 -10.272   8.365  1.00  0.00     0.080 A 
HETATM    6  C   UNL     1      40.018  -9.176   8.074  1.00  0.00     0.137 A 
HETATM    7  N   UNL     1      39.970  -8.392   9.201  1.00  0.00    -0.349 N 
HETATM    8  H   UNL     1      39.466  -7.516   9.265  1.00  0.00     0.166 HD
HETATM    9  C   UNL     1      40.641  -8.987  10.240  1.00  0.00     0.048 A 
HETATM   10  C   UNL     1      41.190 -10.185   9.750  1.00  0.00     0.023 A 
HETATM   11  C   UNL     1      40.776  -8.550  11.568  1.00  0.00     0.070 A 
HETATM   12  C   UNL     1      41.891 -11.011  10.661  1.00  0.00     0.055 A 
HETATM   13  C   UNL     1      42.010 -10.578  11.970  1.00  0.00     0.106 A 
HETATM   14  C   UNL     1      41.479  -9.393  12.403  1.00  0.00     0.107 A 
HETATM   15  O   UNL     1      42.640 -11.262  12.966  1.00  0.00    -0.323 OA
HETATM   16  O   UNL     1      41.707  -9.175  13.726  1.00  0.00    -0.323 OA
HETATM   17  C   UNL     1      42.444 -10.363  14.078  1.00  0.00     0.352 A 
BRANCH   6  18
HETATM   18  C   UNL     1      39.348  -8.859   6.836  1.00  0.00     0.312 C 
HETATM   19  O   UNL     1      38.134  -8.727   6.735  1.00  0.00    -0.258 OA
BRANCH  18  20
HETATM   20  O   UNL     1      40.262  -8.723   5.840  1.00  0.00    -0.317 OA
BRANCH  20  21
HETATM   21  C   UNL     1      40.933  -7.457   5.747  1.00  0.00     0.175 C 
HETATM   22  C   UNL     1      42.187  -7.626   4.912  1.00  0.00     0.034 C 
ENDBRANCH  20  21
ENDBRANCH  18  20
ENDBRANCH   6  18
ENDBRANCH   1   5
BRANCH   2  23
HETATM   23  C   UNL     1      40.684 -12.930   5.679  1.00  0.00     0.337 C 
BRANCH  23  24
HETATM   24  N   UNL     1      41.378 -14.209   6.142  1.00  0.00    -0.060 N 
HETATM   25  H   UNL     1      41.315 -14.177   7.175  1.00  0.00     0.280 HD
HETATM   26  C   UNL     1      40.620 -15.472   5.734  1.00  0.00     0.255 C 
HETATM   27  C   UNL     1      41.284 -16.717   6.356  1.00  0.00     0.150 C 
HETATM   28  N   UNL     1      42.732 -16.767   6.095  1.00  0.00    -0.377 N 
HETATM   29  C   UNL     1      43.496 -15.538   6.386  1.00  0.00     0.150 C 
HETATM   30  C   UNL     1      42.838 -14.296   5.749  1.00  0.00     0.255 C 
BRANCH  28  31
HETATM   31  C   UNL     1      43.240 -17.599   5.096  1.00  0.00     0.037 A 
HETATM   32  C   UNL     1      43.756 -18.879   5.409  1.00  0.00    -0.035 A 
HETATM   33  C   UNL     1      43.724 -19.445   6.807  1.00  0.00     0.050 C 
HETATM   34  C   UNL     1      44.310 -19.689   4.398  1.00  0.00     0.011 A 
HETATM   35  C   UNL     1      44.324 -19.266   3.072  1.00  0.00     0.024 A 
HETATM   36  C   UNL     1      43.783 -18.031   2.751  1.00  0.00     0.036 A 
HETATM   37 CL   UNL     1      43.782 -17.491   1.118  1.00  0.00    -0.084 Cl
HETATM   38  C   UNL     1      43.245 -17.209   3.746  1.00  0.00     0.053 A 
ENDBRANCH  28  31
ENDBRANCH  23  24
ENDBRANCH   2  23
TORSDOF 7
ENDMDL
MODEL 10
REMARK VINA RESULT:      -8.1      2.633      3.926
REMARK  7 active torsions:
REMARK  status: ('A' for Active; 'I' for Inactive)
REMARK    1  A    between atoms: C_2  and  O_3 
REMARK    2  A    between atoms: O_3  and  C_4 
REMARK    3  A    between atoms: C_4  and  C_5 
REMARK    4  A    between atoms: C_10  and  N_11 
REMARK       I    between atoms: N_11  and  C_12 
REMARK    5  A    between atoms: C_12  and  C_13 
REMARK    6  A    between atoms: C_13  and  N_14 
REMARK    7  A    between atoms: N_18  and  C_19 
ROOT
HETATM    1  N   UNL     1      42.808 -16.280   1.633  1.00  0.00    -0.323 N 
HETATM    2  C   UNL     1      41.687 -16.611   0.915  1.00  0.00     0.248 C 
HETATM    3  O   UNL     1      40.972 -17.603   1.045  1.00  0.00    -0.271 OA
HETATM    4  H   UNL     1      43.483 -15.629   1.226  1.00  0.00     0.169 HD
ENDROOT
BRANCH   1   5
HETATM    5  C   UNL     1      43.264 -16.916   2.785  1.00  0.00     0.080 A 
HETATM    6  C   UNL     1      43.307 -16.238   3.996  1.00  0.00     0.137 A 
HETATM    7  N   UNL     1      43.823 -17.101   4.932  1.00  0.00    -0.349 N 
HETATM    8  H   UNL     1      43.981 -16.861   5.902  1.00  0.00     0.166 HD
HETATM    9  C   UNL     1      44.032 -18.344   4.388  1.00  0.00     0.048 A 
HETATM   10  C   UNL     1      43.685 -18.268   3.028  1.00  0.00     0.023 A 
HETATM   11  C   UNL     1      44.486 -19.516   5.016  1.00  0.00     0.070 A 
HETATM   12  C   UNL     1      43.766 -19.454   2.259  1.00  0.00     0.055 A 
HETATM   13  C   UNL     1      44.203 -20.607   2.888  1.00  0.00     0.106 A 
HETATM   14  C   UNL     1      44.553 -20.634   4.211  1.00  0.00     0.107 A 
HETATM   15  O   UNL     1      44.323 -21.826   2.291  1.00  0.00    -0.323 OA
HETATM   16  O   UNL     1      44.942 -21.872   4.620  1.00  0.00    -0.323 OA
HETATM   17  C   UNL     1      44.794 -22.624   3.398  1.00  0.00     0.352 A 
BRANCH   6  18
HETATM   18  C   UNL     1      42.914 -14.878   4.276  1.00  0.00     0.312 C 
HETATM   19  O   UNL     1      43.613 -14.082   4.893  1.00  0.00    -0.258 OA
BRANCH  18  20
HETATM   20  O   UNL     1      41.687 -14.635   3.745  1.00  0.00    -0.317 OA
BRANCH  20  21
HETATM   21  C   UNL     1      40.563 -15.211   4.427  1.00  0.00     0.175 C 
HETATM   22  C   UNL     1      40.284 -14.406   5.682  1.00  0.00     0.034 C 
ENDBRANCH  20  21
ENDBRANCH  18  20
ENDBRANCH   6  18
ENDBRANCH   1   5
BRANCH   2  23
HETATM   23  C   UNL     1      41.313 -15.599  -0.174  1.00  0.00     0.337 C 
BRANCH  23  24
HETATM   24  N   UNL     1      40.714 -14.348   0.462  1.00  0.00    -0.060 N 
HETATM   25  H   UNL     1      41.326 -14.153   1.275  1.00  0.00     0.280 HD
HETATM   26  C   UNL     1      40.835 -13.114  -0.432  1.00  0.00     0.255 C 
HETATM   27  C   UNL     1      40.353 -11.858   0.320  1.00  0.00     0.150 C 
HETATM   28  N   UNL     1      39.022 -12.044   0.922  1.00  0.00    -0.377 N 
HETATM   29  C   UNL     1      38.825 -13.269   1.721  1.00  0.00     0.150 C 
HETATM   30  C   UNL     1      39.294 -14.527   0.958  1.00  0.00     0.255 C 
BRANCH  28  31
HETATM   31  C   UNL     1      37.890 -11.510   0.304  1.00  0.00     0.037 A 
HETATM   32  C   UNL     1      37.033 -10.622   0.999  1.00  0.00    -0.035 A 
HETATM   33  C   UNL     1      37.324 -10.149   2.402  1.00  0.00     0.050 C 
HETATM   34  C   UNL     1      35.867 -10.130   0.381  1.00  0.00     0.011 A 
HETATM   35  C   UNL     1      35.557 -10.471  -0.932  1.00  0.00     0.024 A 
HETATM   36  C   UNL     1      36.412 -11.307  -1.634  1.00  0.00     0.036 A 
HETATM   37 CL   UNL     1      36.053 -11.735  -3.260  1.00  0.00    -0.084 Cl
HETATM   38  C   UNL     1      37.564 -11.817  -1.028  1.00  0.00     0.053 A 
ENDBRANCH  28  31
ENDBRANCH  23  24
ENDBRANCH   2  23
TORSDOF 7
ENDMDL
