MODEL 1
REMARK VINA RESULT:      -8.2      0.000      0.000
REMARK  8 active torsions:
REMARK  status: ('A' for Active; 'I' for Inactive)
REMARK    1  A    between atoms: C_2  and  N_3 
REMARK    2  A    between atoms: N_3  and  C_5 
REMARK    3  A    between atoms: N_3  and  C_30 
REMARK    4  A    between atoms: C_5  and  C_6 
REMARK    5  A    between atoms: C_6  and  N_7 
REMARK       I    between atoms: N_7  and  C_8 
REMARK    6  A    between atoms: C_8  and  C_9 
REMARK    7  A    between atoms: C_9  and  O_10 
REMARK    8  A    between atoms: N_11  and  C_12 
ROOT
HETATM    1  C   UNL     1      42.222 -14.332   4.923  1.00  0.00     0.256 C 
HETATM    2  N   UNL     1      41.847 -15.681   5.404  1.00  0.00    -0.254 N 
HETATM    3  C   UNL     1      40.613 -15.897   6.009  1.00  0.00     0.330 C 
HETATM    4  O   UNL     1      40.120 -16.995   6.261  1.00  0.00    -0.246 OA
HETATM    5  N   UNL     1      39.884 -14.813   6.382  1.00  0.00    -0.308 N 
HETATM    6  C   UNL     1      40.212 -13.490   6.160  1.00  0.00     0.048 A 
HETATM    7  C   UNL     1      41.353 -13.197   5.434  1.00  0.00     0.034 A 
HETATM    8  C   UNL     1      39.377 -12.481   6.645  1.00  0.00     0.030 A 
HETATM    9  C   UNL     1      39.689 -11.146   6.395  1.00  0.00     0.002 A 
HETATM   10  C   UNL     1      40.817 -10.828   5.645  1.00  0.00     0.001 A 
HETATM   11  C   UNL     1      41.638 -11.847   5.157  1.00  0.00     0.015 A 
HETATM   12  H   UNL     1      39.007 -15.044   6.835  1.00  0.00     0.170 HD
ENDROOT
BRANCH   1  13
HETATM   13  C   UNL     1      43.717 -13.996   5.417  1.00  0.00     0.279 C 
HETATM   14  N   UNL     1      43.893 -13.891   6.796  1.00  0.00    -0.355 N 
HETATM   15  H   UNL     1      43.180 -14.324   7.379  1.00  0.00     0.162 HD
HETATM   16  O   UNL     1      44.650 -13.706   4.663  1.00  0.00    -0.268 OA
BRANCH  14  17
HETATM   17  C   UNL     1      45.220 -13.674   7.332  1.00  0.00     0.150 C 
BRANCH  17  18
HETATM   18  C   UNL     1      45.266 -12.476   8.300  1.00  0.00     0.254 C 
BRANCH  18  19
HETATM   19  N   UNL     1      43.983 -12.269   9.097  1.00  0.00    -0.070 N 
HETATM   20  H   UNL     1      43.423 -13.116   8.934  1.00  0.00     0.279 HD
BRANCH  19  21
HETATM   21  C   UNL     1      43.134 -11.118   8.567  1.00  0.00     0.230 C 
HETATM   22  C   UNL     1      42.070 -10.723   9.576  1.00  0.00     0.034 C 
ENDBRANCH  19  21
BRANCH  19  23
HETATM   23  C   UNL     1      44.161 -12.183  10.599  1.00  0.00     0.230 C 
HETATM   24  C   UNL     1      45.414 -11.406  10.962  1.00  0.00     0.034 C 
ENDBRANCH  19  23
ENDBRANCH  18  19
ENDBRANCH  17  18
ENDBRANCH  14  17
ENDBRANCH   1  13
BRANCH   1  25
HETATM   25  O   UNL     1      42.046 -14.319   3.519  1.00  0.00    -0.359 OA
HETATM   26  H   UNL     1      42.553 -15.082   3.193  1.00  0.00     0.213 HD
ENDBRANCH   1  25
BRANCH   2  27
HETATM   27  C   UNL     1      42.757 -16.800   5.180  1.00  0.00     0.043 A 
HETATM   28  C   UNL     1      42.808 -17.449   3.934  1.00  0.00     0.037 A 
HETATM   29  C   UNL     1      43.624 -18.574   3.696  1.00  0.00    -0.054 A 
HETATM   30  C   UNL     1      43.620 -19.204   2.328  1.00  0.00     0.049 C 
HETATM   31  C   UNL     1      44.405 -19.090   4.740  1.00  0.00    -0.056 A 
HETATM   32  C   UNL     1      45.310 -20.273   4.539  1.00  0.00     0.049 C 
HETATM   33  C   UNL     1      44.368 -18.453   5.985  1.00  0.00     0.009 A 
HETATM   34  C   UNL     1      43.553 -17.335   6.204  1.00  0.00     0.030 A 
ENDBRANCH   2  27
TORSDOF 8
ENDMDL
MODEL 2
REMARK VINA RESULT:      -7.8      3.623      6.985
REMARK  8 active torsions:
REMARK  status: ('A' for Active; 'I' for Inactive)
REMARK    1  A    between atoms: C_2  and  N_3 
REMARK    2  A    between atoms: N_3  and  C_5 
REMARK    3  A    between atoms: N_3  and  C_30 
REMARK    4  A    between atoms: C_5  and  C_6 
REMARK    5  A    between atoms: C_6  and  N_7 
REMARK       I    between atoms: N_7  and  C_8 
REMARK    6  A    between atoms: C_8  and  C_9 
REMARK    7  A    between atoms: C_9  and  O_10 
REMARK    8  A    between atoms: N_11  and  C_12 
ROOT
HETATM    1  C   UNL     1      40.586 -15.997   2.126  1.00  0.00     0.256 C 
HETATM    2  N   UNL     1      40.459 -15.149   0.919  1.00  0.00    -0.254 N 
HETATM    3  C   UNL     1      41.208 -15.426  -0.220  1.00  0.00     0.330 C 
HETATM    4  O   UNL     1      41.041 -14.923  -1.329  1.00  0.00    -0.246 OA
HETATM    5  N   UNL     1      42.233 -16.312  -0.113  1.00  0.00    -0.308 N 
HETATM    6  C   UNL     1      42.578 -17.033   1.014  1.00  0.00     0.048 A 
HETATM    7  C   UNL     1      41.789 -16.922   2.145  1.00  0.00     0.034 A 
HETATM    8  C   UNL     1      43.691 -17.875   0.980  1.00  0.00     0.030 A 
HETATM    9  C   UNL     1      44.023 -18.628   2.105  1.00  0.00     0.002 A 
HETATM   10  C   UNL     1      43.229 -18.553   3.246  1.00  0.00     0.001 A 
HETATM   11  C   UNL     1      42.113 -17.715   3.263  1.00  0.00     0.015 A 
HETATM   12  H   UNL     1      42.749 -16.450  -0.975  1.00  0.00     0.170 HD
ENDROOT
BRANCH   1  13
HETATM   13  C   UNL     1      40.740 -15.049   3.418  1.00  0.00     0.279 C 
HETATM   14  N   UNL     1      41.968 -14.405   3.557  1.00  0.00    -0.355 N 
HETATM   15  H   UNL     1      42.537 -14.326   2.717  1.00  0.00     0.162 HD
HETATM   16  O   UNL     1      39.909 -14.972   4.327  1.00  0.00    -0.268 OA
BRANCH  14  17
HETATM   17  C   UNL     1      42.166 -13.469   4.644  1.00  0.00     0.150 C 
BRANCH  17  18
HETATM   18  C   UNL     1      43.542 -13.641   5.315  1.00  0.00     0.254 C 
BRANCH  18  19
HETATM   19  N   UNL     1      43.489 -14.314   6.682  1.00  0.00    -0.070 N 
HETATM   20  H   UNL     1      42.771 -13.801   7.209  1.00  0.00     0.279 HD
BRANCH  19  21
HETATM   21  C   UNL     1      44.777 -14.138   7.479  1.00  0.00     0.230 C 
HETATM   22  C   UNL     1      44.731 -12.863   8.303  1.00  0.00     0.034 C 
ENDBRANCH  19  21
BRANCH  19  23
HETATM   23  C   UNL     1      43.032 -15.759   6.674  1.00  0.00     0.230 C 
HETATM   24  C   UNL     1      44.200 -16.705   6.459  1.00  0.00     0.034 C 
ENDBRANCH  19  23
ENDBRANCH  18  19
ENDBRANCH  17  18
ENDBRANCH  14  17
ENDBRANCH   1  13
BRANCH   1  25
HETATM   25  O   UNL     1      39.465 -16.861   2.156  1.00  0.00    -0.359 OA
HETATM   26  H   UNL     1      39.831 -17.744   2.332  1.00  0.00     0.213 HD
ENDBRANCH   1  25
BRANCH   2  27
HETATM   27  C   UNL     1      39.492 -14.057   0.909  1.00  0.00     0.043 A 
HETATM   28  C   UNL     1      39.898 -12.732   1.148  1.00  0.00     0.037 A 
HETATM   29  C   UNL     1      38.988 -11.658   1.213  1.00  0.00    -0.054 A 
HETATM   30  C   UNL     1      39.512 -10.269   1.469  1.00  0.00     0.049 C 
HETATM   31  C   UNL     1      37.617 -11.907   1.056  1.00  0.00    -0.056 A 
HETATM   32  C   UNL     1      36.603 -10.799   1.093  1.00  0.00     0.049 C 
HETATM   33  C   UNL     1      37.197 -13.220   0.814  1.00  0.00     0.009 A 
HETATM   34  C   UNL     1      38.115 -14.276   0.750  1.00  0.00     0.030 A 
ENDBRANCH   2  27
TORSDOF 8
ENDMDL
MODEL 3
REMARK VINA RESULT:      -7.8      3.097      5.898
REMARK  8 active torsions:
REMARK  status: ('A' for Active; 'I' for Inactive)
REMARK    1  A    between atoms: C_2  and  N_3 
REMARK    2  A    between atoms: N_3  and  C_5 
REMARK    3  A    between atoms: N_3  and  C_30 
REMARK    4  A    between atoms: C_5  and  C_6 
REMARK    5  A    between atoms: C_6  and  N_7 
REMARK       I    between atoms: N_7  and  C_8 
REMARK    6  A    between atoms: C_8  and  C_9 
REMARK    7  A    between atoms: C_9  and  O_10 
REMARK    8  A    between atoms: N_11  and  C_12 
ROOT
HETATM    1  C   UNL     1      41.374 -15.973   4.876  1.00  0.00     0.256 C 
HETATM    2  N   UNL     1      42.704 -16.318   5.428  1.00  0.00    -0.254 N 
HETATM    3  C   UNL     1      43.413 -15.394   6.190  1.00  0.00     0.330 C 
HETATM    4  O   UNL     1      44.417 -15.635   6.857  1.00  0.00    -0.246 OA
HETATM    5  N   UNL     1      42.987 -14.104   6.192  1.00  0.00    -0.308 N 
HETATM    6  C   UNL     1      41.863 -13.612   5.559  1.00  0.00     0.048 A 
HETATM    7  C   UNL     1      41.024 -14.496   4.903  1.00  0.00     0.034 A 
HETATM    8  C   UNL     1      41.580 -12.246   5.618  1.00  0.00     0.030 A 
HETATM    9  C   UNL     1      40.429 -11.751   5.008  1.00  0.00     0.002 A 
HETATM   10  C   UNL     1      39.558 -12.625   4.364  1.00  0.00     0.001 A 
HETATM   11  C   UNL     1      39.846 -13.990   4.322  1.00  0.00     0.015 A 
HETATM   12  H   UNL     1      43.562 -13.483   6.750  1.00  0.00     0.170 HD
ENDROOT
BRANCH   1  13
HETATM   13  C   UNL     1      41.322 -16.407   3.326  1.00  0.00     0.279 C 
HETATM   14  N   UNL     1      42.052 -15.611   2.446  1.00  0.00    -0.355 N 
HETATM   15  H   UNL     1      42.785 -15.035   2.855  1.00  0.00     0.162 HD
HETATM   16  O   UNL     1      40.590 -17.294   2.878  1.00  0.00    -0.268 OA
BRANCH  14  17
HETATM   17  C   UNL     1      42.129 -15.977   1.047  1.00  0.00     0.150 C 
BRANCH  17  18
HETATM   18  C   UNL     1      41.715 -14.817   0.121  1.00  0.00     0.254 C 
BRANCH  18  19
HETATM   19  N   UNL     1      40.224 -14.771  -0.193  1.00  0.00    -0.070 N 
HETATM   20  H   UNL     1      39.861 -15.694   0.081  1.00  0.00     0.279 HD
BRANCH  19  21
HETATM   21  C   UNL     1      39.935 -14.652  -1.685  1.00  0.00     0.230 C 
HETATM   22  C   UNL     1      40.937 -15.458  -2.495  1.00  0.00     0.034 C 
ENDBRANCH  19  21
BRANCH  19  23
HETATM   23  C   UNL     1      39.426 -13.765   0.611  1.00  0.00     0.230 C 
HETATM   24  C   UNL     1      38.087 -14.339   1.038  1.00  0.00     0.034 C 
ENDBRANCH  19  23
ENDBRANCH  18  19
ENDBRANCH  17  18
ENDBRANCH  14  17
ENDBRANCH   1  13
BRANCH   1  25
HETATM   25  O   UNL     1      40.401 -16.591   5.697  1.00  0.00    -0.359 OA
HETATM   26  H   UNL     1      39.816 -15.870   5.982  1.00  0.00     0.213 HD
ENDBRANCH   1  25
BRANCH   2  27
HETATM   27  C   UNL     1      43.239 -17.659   5.223  1.00  0.00     0.043 A 
HETATM   28  C   UNL     1      43.167 -18.628   6.239  1.00  0.00     0.037 A 
HETATM   29  C   UNL     1      43.729 -19.914   6.105  1.00  0.00    -0.054 A 
HETATM   30  C   UNL     1      43.601 -20.890   7.245  1.00  0.00     0.049 C 
HETATM   31  C   UNL     1      44.409 -20.248   4.925  1.00  0.00    -0.056 A 
HETATM   32  C   UNL     1      45.009 -21.610   4.718  1.00  0.00     0.049 C 
HETATM   33  C   UNL     1      44.486 -19.296   3.903  1.00  0.00     0.009 A 
HETATM   34  C   UNL     1      43.920 -18.023   4.051  1.00  0.00     0.030 A 
ENDBRANCH   2  27
TORSDOF 8
ENDMDL
MODEL 4
REMARK VINA RESULT:      -7.6      3.276      5.958
REMARK  8 active torsions:
REMARK  status: ('A' for Active; 'I' for Inactive)
REMARK    1  A    between atoms: C_2  and  N_3 
REMARK    2  A    between atoms: N_3  and  C_5 
REMARK    3  A    between atoms: N_3  and  C_30 
REMARK    4  A    between atoms: C_5  and  C_6 
REMARK    5  A    between atoms: C_6  and  N_7 
REMARK       I    between atoms: N_7  and  C_8 
REMARK    6  A    between atoms: C_8  and  C_9 
REMARK    7  A    between atoms: C_9  and  O_10 
REMARK    8  A    between atoms: N_11  and  C_12 
ROOT
HETATM    1  C   UNL     1      40.786 -14.547   4.954  1.00  0.00     0.256 C 
HETATM    2  N   UNL     1      42.167 -15.039   5.159  1.00  0.00    -0.254 N 
HETATM    3  C   UNL     1      43.045 -14.353   5.992  1.00  0.00     0.330 C 
HETATM    4  O   UNL     1      44.131 -14.770   6.389  1.00  0.00    -0.246 OA
HETATM    5  N   UNL     1      42.700 -13.102   6.394  1.00  0.00    -0.308 N 
HETATM    6  C   UNL     1      41.516 -12.449   6.114  1.00  0.00     0.048 A 
HETATM    7  C   UNL     1      40.530 -13.123   5.414  1.00  0.00     0.034 A 
HETATM    8  C   UNL     1      41.326 -11.141   6.564  1.00  0.00     0.030 A 
HETATM    9  C   UNL     1      40.119 -10.491   6.311  1.00  0.00     0.002 A 
HETATM   10  C   UNL     1      39.104 -11.158   5.631  1.00  0.00     0.001 A 
HETATM   11  C   UNL     1      39.303 -12.469   5.196  1.00  0.00     0.015 A 
HETATM   12  H   UNL     1      43.394 -12.653   6.981  1.00  0.00     0.170 HD
ENDROOT
BRANCH   1  13
HETATM   13  C   UNL     1      40.451 -14.566   3.379  1.00  0.00     0.279 C 
HETATM   14  N   UNL     1      41.056 -13.569   2.616  1.00  0.00    -0.355 N 
HETATM   15  H   UNL     1      41.873 -13.119   3.023  1.00  0.00     0.162 HD
HETATM   16  O   UNL     1      39.613 -15.306   2.856  1.00  0.00    -0.268 OA
BRANCH  14  17
HETATM   17  C   UNL     1      40.877 -13.561   1.180  1.00  0.00     0.150 C 
BRANCH  17  18
HETATM   18  C   UNL     1      41.991 -14.338   0.452  1.00  0.00     0.254 C 
BRANCH  18  19
HETATM   19  N   UNL     1      41.851 -14.351  -1.066  1.00  0.00    -0.070 N 
HETATM   20  H   UNL     1      42.784 -14.597  -1.423  1.00  0.00     0.279 HD
BRANCH  19  21
HETATM   21  C   UNL     1      41.548 -12.974  -1.646  1.00  0.00     0.230 C 
HETATM   22  C   UNL     1      42.823 -12.162  -1.801  1.00  0.00     0.034 C 
ENDBRANCH  19  21
BRANCH  19  23
HETATM   23  C   UNL     1      40.915 -15.406  -1.620  1.00  0.00     0.230 C 
HETATM   24  C   UNL     1      41.020 -15.498  -3.132  1.00  0.00     0.034 C 
ENDBRANCH  19  23
ENDBRANCH  18  19
ENDBRANCH  17  18
ENDBRANCH  14  17
ENDBRANCH   1  13
BRANCH   1  25
HETATM   25  O   UNL     1      39.929 -15.344   5.751  1.00  0.00    -0.359 OA
HETATM   26  H   UNL     1      40.453 -16.131   5.975  1.00  0.00     0.213 HD
ENDBRANCH   1  25
BRANCH   2  27
HETATM   27  C   UNL     1      42.582 -16.289   4.531  1.00  0.00     0.043 A 
HETATM   28  C   UNL     1      43.219 -16.289   3.277  1.00  0.00     0.037 A 
HETATM   29  C   UNL     1      43.576 -17.477   2.606  1.00  0.00    -0.054 A 
HETATM   30  C   UNL     1      44.260 -17.383   1.267  1.00  0.00     0.049 C 
HETATM   31  C   UNL     1      43.272 -18.715   3.190  1.00  0.00    -0.056 A 
HETATM   32  C   UNL     1      43.648 -20.012   2.532  1.00  0.00     0.049 C 
HETATM   33  C   UNL     1      42.642 -18.731   4.439  1.00  0.00     0.009 A 
HETATM   34  C   UNL     1      42.295 -17.542   5.094  1.00  0.00     0.030 A 
ENDBRANCH   2  27
TORSDOF 8
ENDMDL
MODEL 5
REMARK VINA RESULT:      -7.5      2.969      5.563
REMARK  8 active torsions:
REMARK  status: ('A' for Active; 'I' for Inactive)
REMARK    1  A    between atoms: C_2  and  N_3 
REMARK    2  A    between atoms: N_3  and  C_5 
REMARK    3  A    between atoms: N_3  and  C_30 
REMARK    4  A    between atoms: C_5  and  C_6 
REMARK    5  A    between atoms: C_6  and  N_7 
REMARK       I    between atoms: N_7  and  C_8 
REMARK    6  A    between atoms: C_8  and  C_9 
REMARK    7  A    between atoms: C_9  and  O_10 
REMARK    8  A    between atoms: N_11  and  C_12 
ROOT
HETATM    1  C   UNL     1      40.909 -14.547   5.055  1.00  0.00     0.256 C 
HETATM    2  N   UNL     1      42.281 -15.057   5.275  1.00  0.00    -0.254 N 
HETATM    3  C   UNL     1      43.152 -14.393   6.133  1.00  0.00     0.330 C 
HETATM    4  O   UNL     1      44.226 -14.829   6.542  1.00  0.00    -0.246 OA
HETATM    5  N   UNL     1      42.813 -13.145   6.549  1.00  0.00    -0.308 N 
HETATM    6  C   UNL     1      41.641 -12.475   6.260  1.00  0.00     0.048 A 
HETATM    7  C   UNL     1      40.660 -13.128   5.533  1.00  0.00     0.034 A 
HETATM    8  C   UNL     1      41.457 -11.172   6.727  1.00  0.00     0.030 A 
HETATM    9  C   UNL     1      40.262 -10.505   6.464  1.00  0.00     0.002 A 
HETATM   10  C   UNL     1      39.251 -11.151   5.757  1.00  0.00     0.001 A 
HETATM   11  C   UNL     1      39.444 -12.457   5.304  1.00  0.00     0.015 A 
HETATM   12  H   UNL     1      43.502 -12.713   7.154  1.00  0.00     0.170 HD
ENDROOT
BRANCH   1  13
HETATM   13  C   UNL     1      40.600 -14.538   3.475  1.00  0.00     0.279 C 
HETATM   14  N   UNL     1      39.666 -15.472   3.032  1.00  0.00    -0.355 N 
HETATM   15  H   UNL     1      39.040 -15.858   3.736  1.00  0.00     0.162 HD
HETATM   16  O   UNL     1      41.221 -13.863   2.649  1.00  0.00    -0.268 OA
BRANCH  14  17
HETATM   17  C   UNL     1      39.266 -15.479   1.641  1.00  0.00     0.150 C 
BRANCH  17  18
HETATM   18  C   UNL     1      38.167 -14.440   1.347  1.00  0.00     0.254 C 
BRANCH  18  19
HETATM   19  N   UNL     1      38.537 -13.430   0.266  1.00  0.00    -0.070 N 
HETATM   20  H   UNL     1      37.673 -13.278  -0.270  1.00  0.00     0.279 HD
BRANCH  19  21
HETATM   21  C   UNL     1      39.543 -13.980  -0.739  1.00  0.00     0.230 C 
HETATM   22  C   UNL     1      40.737 -13.050  -0.872  1.00  0.00     0.034 C 
ENDBRANCH  19  21
BRANCH  19  23
HETATM   23  C   UNL     1      38.947 -12.062   0.772  1.00  0.00     0.230 C 
HETATM   24  C   UNL     1      38.083 -11.625   1.941  1.00  0.00     0.034 C 
ENDBRANCH  19  23
ENDBRANCH  18  19
ENDBRANCH  17  18
ENDBRANCH  14  17
ENDBRANCH   1  13
BRANCH   1  25
HETATM   25  O   UNL     1      40.031 -15.347   5.825  1.00  0.00    -0.359 OA
HETATM   26  H   UNL     1      39.348 -15.645   5.201  1.00  0.00     0.213 HD
ENDBRANCH   1  25
BRANCH   2  27
HETATM   27  C   UNL     1      42.693 -16.301   4.635  1.00  0.00     0.043 A 
HETATM   28  C   UNL     1      43.283 -16.295   3.358  1.00  0.00     0.037 A 
HETATM   29  C   UNL     1      43.635 -17.478   2.677  1.00  0.00    -0.054 A 
HETATM   30  C   UNL     1      44.266 -17.376   1.313  1.00  0.00     0.049 C 
HETATM   31  C   UNL     1      43.374 -18.719   3.274  1.00  0.00    -0.056 A 
HETATM   32  C   UNL     1      43.747 -20.012   2.605  1.00  0.00     0.049 C 
HETATM   33  C   UNL     1      42.791 -18.743   4.546  1.00  0.00     0.009 A 
HETATM   34  C   UNL     1      42.449 -17.558   5.210  1.00  0.00     0.030 A 
ENDBRANCH   2  27
TORSDOF 8
ENDMDL
MODEL 6
REMARK VINA RESULT:      -7.4      3.755      7.196
REMARK  8 active torsions:
REMARK  status: ('A' for Active; 'I' for Inactive)
REMARK    1  A    between atoms: C_2  and  N_3 
REMARK    2  A    between atoms: N_3  and  C_5 
REMARK    3  A    between atoms: N_3  and  C_30 
REMARK    4  A    between atoms: C_5  and  C_6 
REMARK    5  A    between atoms: C_6  and  N_7 
REMARK       I    between atoms: N_7  and  C_8 
REMARK    6  A    between atoms: C_8  and  C_9 
REMARK    7  A    between atoms: C_9  and  O_10 
REMARK    8  A    between atoms: N_11  and  C_12 
ROOT
HETATM    1  C   UNL     1      40.632 -15.918   2.083  1.00  0.00     0.256 C 
HETATM    2  N   UNL     1      40.511 -15.120   0.842  1.00  0.00    -0.254 N 
HETATM    3  C   UNL     1      41.242 -15.462  -0.292  1.00  0.00     0.330 C 
HETATM    4  O   UNL     1      41.074 -15.003  -1.419  1.00  0.00    -0.246 OA
HETATM    5  N   UNL     1      42.249 -16.364  -0.156  1.00  0.00    -0.308 N 
HETATM    6  C   UNL     1      42.591 -17.043   0.998  1.00  0.00     0.048 A 
HETATM    7  C   UNL     1      41.816 -16.866   2.131  1.00  0.00     0.034 A 
HETATM    8  C   UNL     1      43.685 -17.910   0.990  1.00  0.00     0.030 A 
HETATM    9  C   UNL     1      44.013 -18.621   2.143  1.00  0.00     0.002 A 
HETATM   10  C   UNL     1      43.232 -18.479   3.287  1.00  0.00     0.001 A 
HETATM   11  C   UNL     1      42.134 -17.617   3.279  1.00  0.00     0.015 A 
HETATM   12  H   UNL     1      42.753 -16.550  -1.015  1.00  0.00     0.170 HD
ENDROOT
BRANCH   1  13
HETATM   13  C   UNL     1      40.820 -14.919   3.332  1.00  0.00     0.279 C 
HETATM   14  N   UNL     1      39.831 -14.976   4.312  1.00  0.00    -0.355 N 
HETATM   15  H   UNL     1      39.262 -15.820   4.333  1.00  0.00     0.162 HD
HETATM   16  O   UNL     1      41.689 -14.044   3.398  1.00  0.00    -0.268 OA
BRANCH  14  17
HETATM   17  C   UNL     1      39.963 -14.174   5.509  1.00  0.00     0.150 C 
BRANCH  17  18
HETATM   18  C   UNL     1      39.121 -12.885   5.439  1.00  0.00     0.254 C 
BRANCH  18  19
HETATM   19  N   UNL     1      39.929 -11.603   5.599  1.00  0.00    -0.070 N 
HETATM   20  H   UNL     1      39.474 -11.088   6.364  1.00  0.00     0.279 HD
BRANCH  19  21
HETATM   21  C   UNL     1      39.834 -10.686   4.384  1.00  0.00     0.230 C 
HETATM   22  C   UNL     1      38.416 -10.168   4.209  1.00  0.00     0.034 C 
ENDBRANCH  19  21
BRANCH  19  23
HETATM   23  C   UNL     1      41.366 -11.795   6.040  1.00  0.00     0.230 C 
HETATM   24  C   UNL     1      41.678 -10.975   7.278  1.00  0.00     0.034 C 
ENDBRANCH  19  23
ENDBRANCH  18  19
ENDBRANCH  17  18
ENDBRANCH  14  17
ENDBRANCH   1  13
BRANCH   1  25
HETATM   25  O   UNL     1      39.494 -16.755   2.162  1.00  0.00    -0.359 OA
HETATM   26  H   UNL     1      39.798 -17.625   1.856  1.00  0.00     0.213 HD
ENDBRANCH   1  25
BRANCH   2  27
HETATM   27  C   UNL     1      39.567 -14.009   0.794  1.00  0.00     0.043 A 
HETATM   28  C   UNL     1      40.021 -12.679   0.737  1.00  0.00     0.037 A 
HETATM   29  C   UNL     1      39.145 -11.575   0.756  1.00  0.00    -0.054 A 
HETATM   30  C   UNL     1      39.719 -10.184   0.688  1.00  0.00     0.049 C 
HETATM   31  C   UNL     1      37.764 -11.795   0.857  1.00  0.00    -0.056 A 
HETATM   32  C   UNL     1      36.781 -10.658   0.860  1.00  0.00     0.049 C 
HETATM   33  C   UNL     1      37.295 -13.112   0.911  1.00  0.00     0.009 A 
HETATM   34  C   UNL     1      38.180 -14.199   0.888  1.00  0.00     0.030 A 
ENDBRANCH   2  27
TORSDOF 8
ENDMDL
MODEL 7
REMARK VINA RESULT:      -7.4      3.498      7.848
REMARK  8 active torsions:
REMARK  status: ('A' for Active; 'I' for Inactive)
REMARK    1  A    between atoms: C_2  and  N_3 
REMARK    2  A    between atoms: N_3  and  C_5 
REMARK    3  A    between atoms: N_3  and  C_30 
REMARK    4  A    between atoms: C_5  and  C_6 
REMARK    5  A    between atoms: C_6  and  N_7 
REMARK       I    between atoms: N_7  and  C_8 
REMARK    6  A    between atoms: C_8  and  C_9 
REMARK    7  A    between atoms: C_9  and  O_10 
REMARK    8  A    between atoms: N_11  and  C_12 
ROOT
HETATM    1  C   UNL     1      43.549 -17.578   2.720  1.00  0.00     0.256 C 
HETATM    2  N   UNL     1      43.506 -16.921   4.046  1.00  0.00    -0.254 N 
HETATM    3  C   UNL     1      43.998 -17.572   5.173  1.00  0.00     0.330 C 
HETATM    4  O   UNL     1      44.195 -17.054   6.271  1.00  0.00    -0.246 OA
HETATM    5  N   UNL     1      44.268 -18.899   5.079  1.00  0.00    -0.308 N 
HETATM    6  C   UNL     1      44.169 -19.677   3.942  1.00  0.00     0.048 A 
HETATM    7  C   UNL     1      43.828 -19.070   2.745  1.00  0.00     0.034 A 
HETATM    8  C   UNL     1      44.440 -21.045   4.014  1.00  0.00     0.030 A 
HETATM    9  C   UNL     1      44.372 -21.826   2.862  1.00  0.00     0.002 A 
HETATM   10  C   UNL     1      44.056 -21.233   1.643  1.00  0.00     0.001 A 
HETATM   11  C   UNL     1      43.797 -19.862   1.582  1.00  0.00     0.015 A 
HETATM   12  H   UNL     1      44.602 -19.313   5.942  1.00  0.00     0.170 HD
ENDROOT
BRANCH   1  13
HETATM   13  C   UNL     1      42.117 -17.411   2.005  1.00  0.00     0.279 C 
HETATM   14  N   UNL     1      42.106 -16.658   0.833  1.00  0.00    -0.355 N 
HETATM   15  H   UNL     1      43.000 -16.540   0.360  1.00  0.00     0.162 HD
HETATM   16  O   UNL     1      41.048 -17.788   2.493  1.00  0.00    -0.268 OA
BRANCH  14  17
HETATM   17  C   UNL     1      40.877 -16.525   0.079  1.00  0.00     0.150 C 
BRANCH  17  18
HETATM   18  C   UNL     1      40.468 -15.052  -0.110  1.00  0.00     0.254 C 
BRANCH  18  19
HETATM   19  N   UNL     1      39.130 -14.690   0.527  1.00  0.00    -0.070 N 
HETATM   20  H   UNL     1      38.605 -15.573   0.576  1.00  0.00     0.279 HD
BRANCH  19  21
HETATM   21  C   UNL     1      38.287 -13.769  -0.348  1.00  0.00     0.230 C 
HETATM   22  C   UNL     1      38.625 -13.962  -1.817  1.00  0.00     0.034 C 
ENDBRANCH  19  21
BRANCH  19  23
HETATM   23  C   UNL     1      39.208 -14.185   1.953  1.00  0.00     0.230 C 
HETATM   24  C   UNL     1      38.680 -12.767   2.066  1.00  0.00     0.034 C 
ENDBRANCH  19  23
ENDBRANCH  18  19
ENDBRANCH  17  18
ENDBRANCH  14  17
ENDBRANCH   1  13
BRANCH   1  25
HETATM   25  O   UNL     1      44.636 -17.020   2.005  1.00  0.00    -0.359 OA
HETATM   26  H   UNL     1      44.849 -17.672   1.318  1.00  0.00     0.213 HD
ENDBRANCH   1  25
BRANCH   2  27
HETATM   27  C   UNL     1      43.003 -15.556   4.152  1.00  0.00     0.043 A 
HETATM   28  C   UNL     1      41.857 -15.266   4.914  1.00  0.00     0.037 A 
HETATM   29  C   UNL     1      41.301 -13.973   4.989  1.00  0.00    -0.054 A 
HETATM   30  C   UNL     1      40.073 -13.754   5.834  1.00  0.00     0.049 C 
HETATM   31  C   UNL     1      41.889 -12.928   4.263  1.00  0.00    -0.056 A 
HETATM   32  C   UNL     1      41.353 -11.525   4.322  1.00  0.00     0.049 C 
HETATM   33  C   UNL     1      43.032 -13.198   3.503  1.00  0.00     0.009 A 
HETATM   34  C   UNL     1      43.574 -14.489   3.441  1.00  0.00     0.030 A 
ENDBRANCH   2  27
TORSDOF 8
ENDMDL
MODEL 8
REMARK VINA RESULT:      -7.2      3.908      6.360
REMARK  8 active torsions:
REMARK  status: ('A' for Active; 'I' for Inactive)
REMARK    1  A    between atoms: C_2  and  N_3 
REMARK    2  A    between atoms: N_3  and  C_5 
REMARK    3  A    between atoms: N_3  and  C_30 
REMARK    4  A    between atoms: C_5  and  C_6 
REMARK    5  A    between atoms: C_6  and  N_7 
REMARK       I    between atoms: N_7  and  C_8 
REMARK    6  A    between atoms: C_8  and  C_9 
REMARK    7  A    between atoms: C_9  and  O_10 
REMARK    8  A    between atoms: N_11  and  C_12 
ROOT
HETATM    1  C   UNL     1      40.540 -15.205   3.510  1.00  0.00     0.256 C 
HETATM    2  N   UNL     1      41.128 -16.189   4.447  1.00  0.00    -0.254 N 
HETATM    3  C   UNL     1      40.890 -16.090   5.814  1.00  0.00     0.330 C 
HETATM    4  O   UNL     1      41.154 -16.951   6.652  1.00  0.00    -0.246 OA
HETATM    5  N   UNL     1      40.339 -14.943   6.287  1.00  0.00    -0.308 N 
HETATM    6  C   UNL     1      39.918 -13.864   5.534  1.00  0.00     0.048 A 
HETATM    7  C   UNL     1      39.985 -13.947   4.154  1.00  0.00     0.034 A 
HETATM    8  C   UNL     1      39.410 -12.732   6.173  1.00  0.00     0.030 A 
HETATM    9  C   UNL     1      38.954 -11.655   5.414  1.00  0.00     0.002 A 
HETATM   10  C   UNL     1      38.988 -11.726   4.024  1.00  0.00     0.001 A 
HETATM   11  C   UNL     1      39.489 -12.869   3.397  1.00  0.00     0.015 A 
HETATM   12  H   UNL     1      40.214 -14.931   7.293  1.00  0.00     0.170 HD
ENDROOT
BRANCH   1  13
HETATM   13  C   UNL     1      41.681 -14.708   2.488  1.00  0.00     0.279 C 
HETATM   14  N   UNL     1      41.381 -14.834   1.133  1.00  0.00    -0.355 N 
HETATM   15  H   UNL     1      40.396 -14.926   0.892  1.00  0.00     0.162 HD
HETATM   16  O   UNL     1      42.814 -14.359   2.829  1.00  0.00    -0.268 OA
BRANCH  14  17
HETATM   17  C   UNL     1      42.314 -14.336   0.145  1.00  0.00     0.150 C 
BRANCH  17  18
HETATM   18  C   UNL     1      41.621 -13.465  -0.921  1.00  0.00     0.254 C 
BRANCH  18  19
HETATM   19  N   UNL     1      42.177 -13.645  -2.329  1.00  0.00    -0.070 N 
HETATM   20  H   UNL     1      42.935 -14.333  -2.236  1.00  0.00     0.279 HD
BRANCH  19  21
HETATM   21  C   UNL     1      42.842 -12.384  -2.869  1.00  0.00     0.230 C 
HETATM   22  C   UNL     1      42.064 -11.826  -4.049  1.00  0.00     0.034 C 
ENDBRANCH  19  21
BRANCH  19  23
HETATM   23  C   UNL     1      41.211 -14.239  -3.335  1.00  0.00     0.230 C 
HETATM   24  C   UNL     1      40.853 -15.669  -2.977  1.00  0.00     0.034 C 
ENDBRANCH  19  23
ENDBRANCH  18  19
ENDBRANCH  17  18
ENDBRANCH  14  17
ENDBRANCH   1  13
BRANCH   1  25
HETATM   25  O   UNL     1      39.423 -15.820   2.896  1.00  0.00    -0.359 OA
HETATM   26  H   UNL     1      39.494 -15.591   1.954  1.00  0.00     0.213 HD
ENDBRANCH   1  25
BRANCH   2  27
HETATM   27  C   UNL     1      41.906 -17.304   3.919  1.00  0.00     0.043 A 
HETATM   28  C   UNL     1      42.948 -17.875   4.670  1.00  0.00     0.037 A 
HETATM   29  C   UNL     1      43.767 -18.909   4.171  1.00  0.00    -0.054 A 
HETATM   30  C   UNL     1      44.858 -19.465   5.048  1.00  0.00     0.049 C 
HETATM   31  C   UNL     1      43.559 -19.382   2.868  1.00  0.00    -0.056 A 
HETATM   32  C   UNL     1      44.386 -20.497   2.291  1.00  0.00     0.049 C 
HETATM   33  C   UNL     1      42.524 -18.827   2.108  1.00  0.00     0.009 A 
HETATM   34  C   UNL     1      41.718 -17.801   2.620  1.00  0.00     0.030 A 
ENDBRANCH   2  27
TORSDOF 8
ENDMDL
MODEL 9
REMARK VINA RESULT:      -7.1      2.822      5.359
REMARK  8 active torsions:
REMARK  status: ('A' for Active; 'I' for Inactive)
REMARK    1  A    between atoms: C_2  and  N_3 
REMARK    2  A    between atoms: N_3  and  C_5 
REMARK    3  A    between atoms: N_3  and  C_30 
REMARK    4  A    between atoms: C_5  and  C_6 
REMARK    5  A    between atoms: C_6  and  N_7 
REMARK       I    between atoms: N_7  and  C_8 
REMARK    6  A    between atoms: C_8  and  C_9 
REMARK    7  A    between atoms: C_9  and  O_10 
REMARK    8  A    between atoms: N_11  and  C_12 
ROOT
HETATM    1  C   UNL     1      41.738 -16.180   5.032  1.00  0.00     0.256 C 
HETATM    2  N   UNL     1      41.782 -16.478   3.582  1.00  0.00    -0.254 N 
HETATM    3  C   UNL     1      42.230 -17.715   3.129  1.00  0.00     0.330 C 
HETATM    4  O   UNL     1      42.122 -18.140   1.980  1.00  0.00    -0.246 OA
HETATM    5  N   UNL     1      42.864 -18.529   4.012  1.00  0.00    -0.308 N 
HETATM    6  C   UNL     1      43.058 -18.285   5.358  1.00  0.00     0.048 A 
HETATM    7  C   UNL     1      42.511 -17.142   5.915  1.00  0.00     0.034 A 
HETATM    8  C   UNL     1      43.772 -19.204   6.130  1.00  0.00     0.030 A 
HETATM    9  C   UNL     1      43.941 -18.976   7.495  1.00  0.00     0.002 A 
HETATM   10  C   UNL     1      43.378 -17.846   8.082  1.00  0.00     0.001 A 
HETATM   11  C   UNL     1      42.657 -16.942   7.301  1.00  0.00     0.015 A 
HETATM   12  H   UNL     1      43.182 -19.404   3.610  1.00  0.00     0.170 HD
ENDROOT
BRANCH   1  13
HETATM   13  C   UNL     1      42.387 -14.730   5.289  1.00  0.00     0.279 C 
HETATM   14  N   UNL     1      41.513 -13.743   5.740  1.00  0.00    -0.355 N 
HETATM   15  H   UNL     1      40.643 -14.064   6.159  1.00  0.00     0.162 HD
HETATM   16  O   UNL     1      43.545 -14.425   4.991  1.00  0.00    -0.268 OA
BRANCH  14  17
HETATM   17  C   UNL     1      42.027 -12.432   6.076  1.00  0.00     0.150 C 
BRANCH  17  18
HETATM   18  C   UNL     1      40.915 -11.476   6.547  1.00  0.00     0.254 C 
BRANCH  18  19
HETATM   19  N   UNL     1      40.747 -11.411   8.061  1.00  0.00    -0.070 N 
HETATM   20  H   UNL     1      41.197 -12.264   8.420  1.00  0.00     0.279 HD
BRANCH  19  21
HETATM   21  C   UNL     1      39.290 -11.509   8.501  1.00  0.00     0.230 C 
HETATM   22  C   UNL     1      38.853 -10.235   9.205  1.00  0.00     0.034 C 
ENDBRANCH  19  21
BRANCH  19  23
HETATM   23  C   UNL     1      41.458 -10.260   8.742  1.00  0.00     0.230 C 
HETATM   24  C   UNL     1      42.785 -10.702   9.331  1.00  0.00     0.034 C 
ENDBRANCH  19  23
ENDBRANCH  18  19
ENDBRANCH  17  18
ENDBRANCH  14  17
ENDBRANCH   1  13
BRANCH   1  25
HETATM   25  O   UNL     1      40.391 -16.308   5.449  1.00  0.00    -0.359 OA
HETATM   26  H   UNL     1      39.864 -15.937   4.722  1.00  0.00     0.213 HD
ENDBRANCH   1  25
BRANCH   2  27
HETATM   27  C   UNL     1      41.289 -15.487   2.632  1.00  0.00     0.043 A 
HETATM   28  C   UNL     1      39.914 -15.363   2.367  1.00  0.00     0.037 A 
HETATM   29  C   UNL     1      39.402 -14.464   1.409  1.00  0.00    -0.054 A 
HETATM   30  C   UNL     1      37.913 -14.395   1.194  1.00  0.00     0.049 C 
HETATM   31  C   UNL     1      40.288 -13.671   0.667  1.00  0.00    -0.056 A 
HETATM   32  C   UNL     1      39.799 -12.680  -0.351  1.00  0.00     0.049 C 
HETATM   33  C   UNL     1      41.660 -13.780   0.921  1.00  0.00     0.009 A 
HETATM   34  C   UNL     1      42.152 -14.676   1.879  1.00  0.00     0.030 A 
ENDBRANCH   2  27
TORSDOF 8
ENDMDL
MODEL 10
REMARK VINA RESULT:      -7.0      3.445      7.958
REMARK  8 active torsions:
REMARK  status: ('A' for Active; 'I' for Inactive)
REMARK    1  A    between atoms: C_2  and  N_3 
REMARK    2  A    between atoms: N_3  and  C_5 
REMARK    3  A    between atoms: N_3  and  C_30 
REMARK    4  A    between atoms: C_5  and  C_6 
REMARK    5  A    between atoms: C_6  and  N_7 
REMARK       I    between atoms: N_7  and  C_8 
REMARK    6  A    between atoms: C_8  and  C_9 
REMARK    7  A    between atoms: C_9  and  O_10 
REMARK    8  A    between atoms: N_11  and  C_12 
ROOT
HETATM    1  C   UNL     1      43.050 -16.361   3.241  1.00  0.00     0.256 C 
HETATM    2  N   UNL     1      42.937 -15.764   4.591  1.00  0.00    -0.254 N 
HETATM    3  C   UNL     1      43.509 -16.394   5.692  1.00  0.00     0.330 C 
HETATM    4  O   UNL     1      43.650 -15.898   6.808  1.00  0.00    -0.246 OA
HETATM    5  N   UNL     1      43.933 -17.676   5.547  1.00  0.00    -0.308 N 
HETATM    6  C   UNL     1      43.920 -18.417   4.381  1.00  0.00     0.048 A 
HETATM    7  C   UNL     1      43.503 -17.810   3.209  1.00  0.00     0.034 A 
HETATM    8  C   UNL     1      44.351 -19.744   4.401  1.00  0.00     0.030 A 
HETATM    9  C   UNL     1      44.370 -20.484   3.221  1.00  0.00     0.002 A 
HETATM   10  C   UNL     1      43.979 -19.887   2.025  1.00  0.00     0.001 A 
HETATM   11  C   UNL     1      43.560 -18.556   2.016  1.00  0.00     0.015 A 
HETATM   12  H   UNL     1      44.319 -18.079   6.393  1.00  0.00     0.170 HD
ENDROOT
BRANCH   1  13
HETATM   13  C   UNL     1      41.604 -16.338   2.535  1.00  0.00     0.279 C 
HETATM   14  N   UNL     1      41.456 -15.440   1.479  1.00  0.00    -0.355 N 
HETATM   15  H   UNL     1      42.314 -15.110   1.041  1.00  0.00     0.162 HD
HETATM   16  O   UNL     1      40.618 -16.953   2.949  1.00  0.00    -0.268 OA
BRANCH  14  17
HETATM   17  C   UNL     1      40.216 -15.412   0.733  1.00  0.00     0.150 C 
BRANCH  17  18
HETATM   18  C   UNL     1      40.141 -14.204  -0.221  1.00  0.00     0.254 C 
BRANCH  18  19
HETATM   19  N   UNL     1      41.411 -13.969  -1.031  1.00  0.00    -0.070 N 
HETATM   20  H   UNL     1      42.079 -14.676  -0.699  1.00  0.00     0.279 HD
BRANCH  19  21
HETATM   21  C   UNL     1      42.065 -12.624  -0.732  1.00  0.00     0.230 C 
HETATM   22  C   UNL     1      42.834 -12.118  -1.940  1.00  0.00     0.034 C 
ENDBRANCH  19  21
BRANCH  19  23
HETATM   23  C   UNL     1      41.279 -14.204  -2.522  1.00  0.00     0.230 C 
HETATM   24  C   UNL     1      40.963 -15.657  -2.826  1.00  0.00     0.034 C 
ENDBRANCH  19  23
ENDBRANCH  18  19
ENDBRANCH  17  18
ENDBRANCH  14  17
ENDBRANCH   1  13
BRANCH   1  25
HETATM   25  O   UNL     1      44.059 -15.652   2.547  1.00  0.00    -0.359 OA
HETATM   26  H   UNL     1      43.606 -15.240   1.793  1.00  0.00     0.213 HD
ENDBRANCH   1  25
BRANCH   2  27
HETATM   27  C   UNL     1      42.277 -14.473   4.749  1.00  0.00     0.043 A 
HETATM   28  C   UNL     1      41.076 -14.360   5.473  1.00  0.00     0.037 A 
HETATM   29  C   UNL     1      40.373 -13.145   5.594  1.00  0.00    -0.054 A 
HETATM   30  C   UNL     1      39.096 -13.116   6.392  1.00  0.00     0.049 C 
HETATM   31  C   UNL     1      40.865 -11.998   4.955  1.00  0.00    -0.056 A 
HETATM   32  C   UNL     1      40.169 -10.671   5.067  1.00  0.00     0.049 C 
HETATM   33  C   UNL     1      42.060 -12.092   4.234  1.00  0.00     0.009 A 
HETATM   34  C   UNL     1      42.749 -13.308   4.126  1.00  0.00     0.030 A 
ENDBRANCH   2  27
TORSDOF 8
ENDMDL
