MODEL 1
REMARK VINA RESULT:      -9.1      0.000      0.000
REMARK  8 active torsions:
REMARK  status: ('A' for Active; 'I' for Inactive)
REMARK    1  A    between atoms: C_4  and  N_5 
REMARK    2  A    between atoms: C_8  and  C_9 
REMARK    3  A    between atoms: C_9  and  N_10 
REMARK       I    between atoms: N_10  and  C_11 
REMARK       I    between atoms: C_11  and  N_12 
REMARK    4  A    between atoms: N_12  and  C_13 
REMARK    5  A    between atoms: C_13  and  C_14 
REMARK    6  A    between atoms: C_14  and  N_15 
REMARK       I    between atoms: N_15  and  C_16 
REMARK    7  A    between atoms: C_16  and  C_17 
REMARK    8  A    between atoms: C_18  and  O_19 
ROOT
HETATM    1  N   UNL     1      42.689 -13.783   6.323  1.00  0.00    -0.339 N 
HETATM    2  C   UNL     1      43.997 -13.559   6.650  1.00  0.00     0.316 C 
HETATM    3  N   UNL     1      44.152 -13.226   7.965  1.00  0.00    -0.342 N 
HETATM    4  O   UNL     1      44.926 -13.691   5.863  1.00  0.00    -0.248 OA
HETATM    5  H   UNL     1      41.982 -13.358   6.900  1.00  0.00     0.164 HD
HETATM    6  H   UNL     1      43.352 -12.908   8.489  1.00  0.00     0.164 HD
ENDROOT
BRANCH   1   7
HETATM    7  C   UNL     1      42.343 -14.133   4.967  1.00  0.00     0.166 C 
BRANCH   7   8
HETATM    8  C   UNL     1      42.347 -15.609   4.830  1.00  0.00    -0.004 A 
HETATM    9  C   UNL     1      41.428 -16.523   5.380  1.00  0.00     0.149 A 
HETATM   10  N   UNL     1      41.699 -17.788   5.062  1.00  0.00    -0.180 NA
HETATM   11  N   UNL     1      42.805 -17.720   4.274  1.00  0.00    -0.245 N 
HETATM   12  C   UNL     1      43.220 -16.413   4.123  1.00  0.00     0.129 A 
BRANCH  11  13
HETATM   13  C   UNL     1      43.386 -18.898   3.724  1.00  0.00     0.058 A 
HETATM   14  C   UNL     1      43.047 -19.290   2.420  1.00  0.00     0.031 A 
HETATM   15  C   UNL     1      43.607 -20.441   1.860  1.00  0.00     0.002 A 
HETATM   16  C   UNL     1      44.506 -21.208   2.597  1.00  0.00     0.000 A 
HETATM   17  C   UNL     1      44.848 -20.826   3.893  1.00  0.00     0.002 A 
HETATM   18  C   UNL     1      44.293 -19.674   4.459  1.00  0.00     0.031 A 
ENDBRANCH  11  13
ENDBRANCH   7   8
ENDBRANCH   1   7
BRANCH   3  19
HETATM   19  C   UNL     1      45.460 -12.933   8.526  1.00  0.00     0.144 C 
BRANCH  19  20
HETATM   20  C   UNL     1      45.599 -11.468   8.956  1.00  0.00     0.142 C 
BRANCH  20  21
HETATM   21  N   UNL     1      44.897 -11.160  10.191  1.00  0.00    -0.355 N 
HETATM   22  C   UNL     1      43.615 -10.662  10.205  1.00  0.00     0.254 C 
HETATM   23  O   UNL     1      43.032 -10.322   9.180  1.00  0.00    -0.268 OA
HETATM   24  H   UNL     1      45.272 -11.510  11.069  1.00  0.00     0.162 HD
BRANCH  22  25
HETATM   25  C   UNL     1      42.940 -10.536  11.535  1.00  0.00     0.065 A 
HETATM   26  C   UNL     1      41.644 -10.996  11.820  1.00  0.00     0.081 A 
HETATM   27  C   UNL     1      41.093 -10.826  13.095  1.00  0.00     0.037 A 
HETATM   28  C   UNL     1      41.831 -10.195  14.097  1.00  0.00     0.003 A 
HETATM   29  C   UNL     1      43.116  -9.731  13.830  1.00  0.00     0.001 A 
HETATM   30  C   UNL     1      43.665  -9.899  12.557  1.00  0.00     0.020 A 
BRANCH  26  31
HETATM   31  O   UNL     1      40.888 -11.617  10.858  1.00  0.00    -0.360 OA
HETATM   32  H   UNL     1      41.469 -12.189  10.326  1.00  0.00     0.217 HD
ENDBRANCH  26  31
ENDBRANCH  22  25
ENDBRANCH  20  21
ENDBRANCH  19  20
ENDBRANCH   3  19
TORSDOF 8
ENDMDL
MODEL 2
REMARK VINA RESULT:      -8.9      1.589      2.137
REMARK  8 active torsions:
REMARK  status: ('A' for Active; 'I' for Inactive)
REMARK    1  A    between atoms: C_4  and  N_5 
REMARK    2  A    between atoms: C_8  and  C_9 
REMARK    3  A    between atoms: C_9  and  N_10 
REMARK       I    between atoms: N_10  and  C_11 
REMARK       I    between atoms: C_11  and  N_12 
REMARK    4  A    between atoms: N_12  and  C_13 
REMARK    5  A    between atoms: C_13  and  C_14 
REMARK    6  A    between atoms: C_14  and  N_15 
REMARK       I    between atoms: N_15  and  C_16 
REMARK    7  A    between atoms: C_16  and  C_17 
REMARK    8  A    between atoms: C_18  and  O_19 
ROOT
HETATM    1  N   UNL     1      43.590 -14.343   4.046  1.00  0.00    -0.339 N 
HETATM    2  C   UNL     1      43.431 -14.518   5.392  1.00  0.00     0.316 C 
HETATM    3  N   UNL     1      44.481 -14.017   6.106  1.00  0.00    -0.342 N 
HETATM    4  O   UNL     1      42.436 -15.021   5.898  1.00  0.00    -0.248 OA
HETATM    5  H   UNL     1      44.528 -14.229   3.696  1.00  0.00     0.164 HD
HETATM    6  H   UNL     1      45.355 -13.837   5.637  1.00  0.00     0.164 HD
ENDROOT
BRANCH   1   7
HETATM    7  C   UNL     1      42.578 -14.826   3.140  1.00  0.00     0.166 C 
BRANCH   7   8
HETATM    8  C   UNL     1      42.970 -16.166   2.642  1.00  0.00    -0.004 A 
HETATM    9  C   UNL     1      43.220 -16.546   1.310  1.00  0.00     0.149 A 
HETATM   10  N   UNL     1      43.569 -17.826   1.191  1.00  0.00    -0.180 NA
HETATM   11  N   UNL     1      43.568 -18.307   2.463  1.00  0.00    -0.245 N 
HETATM   12  C   UNL     1      43.205 -17.324   3.359  1.00  0.00     0.129 A 
BRANCH  11  13
HETATM   13  C   UNL     1      43.911 -19.662   2.733  1.00  0.00     0.058 A 
HETATM   14  C   UNL     1      44.503 -19.992   3.962  1.00  0.00     0.031 A 
HETATM   15  C   UNL     1      44.845 -21.315   4.249  1.00  0.00     0.002 A 
HETATM   16  C   UNL     1      44.601 -22.317   3.313  1.00  0.00     0.000 A 
HETATM   17  C   UNL     1      44.015 -21.998   2.090  1.00  0.00     0.002 A 
HETATM   18  C   UNL     1      43.667 -20.676   1.796  1.00  0.00     0.031 A 
ENDBRANCH  11  13
ENDBRANCH   7   8
ENDBRANCH   1   7
BRANCH   3  19
HETATM   19  C   UNL     1      44.525 -14.107   7.556  1.00  0.00     0.144 C 
BRANCH  19  20
HETATM   20  C   UNL     1      45.071 -12.830   8.207  1.00  0.00     0.142 C 
BRANCH  20  21
HETATM   21  N   UNL     1      44.277 -12.372   9.334  1.00  0.00    -0.355 N 
HETATM   22  C   UNL     1      44.453 -11.132   9.903  1.00  0.00     0.254 C 
HETATM   23  O   UNL     1      45.375 -10.388   9.584  1.00  0.00    -0.268 OA
HETATM   24  H   UNL     1      43.433 -12.884   9.581  1.00  0.00     0.162 HD
BRANCH  22  25
HETATM   25  C   UNL     1      43.469 -10.709  10.950  1.00  0.00     0.065 A 
HETATM   26  C   UNL     1      42.074 -10.767  10.807  1.00  0.00     0.081 A 
HETATM   27  C   UNL     1      41.234 -10.341  11.841  1.00  0.00     0.037 A 
HETATM   28  C   UNL     1      41.780  -9.853  13.029  1.00  0.00     0.003 A 
HETATM   29  C   UNL     1      43.162  -9.788  13.186  1.00  0.00     0.001 A 
HETATM   30  C   UNL     1      44.000 -10.211  12.154  1.00  0.00     0.020 A 
BRANCH  26  31
HETATM   31  O   UNL     1      41.503 -11.236   9.651  1.00  0.00    -0.360 OA
HETATM   32  H   UNL     1      42.211 -11.508   9.041  1.00  0.00     0.217 HD
ENDBRANCH  26  31
ENDBRANCH  22  25
ENDBRANCH  20  21
ENDBRANCH  19  20
ENDBRANCH   3  19
TORSDOF 8
ENDMDL
MODEL 3
REMARK VINA RESULT:      -8.7      4.515      7.160
REMARK  8 active torsions:
REMARK  status: ('A' for Active; 'I' for Inactive)
REMARK    1  A    between atoms: C_4  and  N_5 
REMARK    2  A    between atoms: C_8  and  C_9 
REMARK    3  A    between atoms: C_9  and  N_10 
REMARK       I    between atoms: N_10  and  C_11 
REMARK       I    between atoms: C_11  and  N_12 
REMARK    4  A    between atoms: N_12  and  C_13 
REMARK    5  A    between atoms: C_13  and  C_14 
REMARK    6  A    between atoms: C_14  and  N_15 
REMARK       I    between atoms: N_15  and  C_16 
REMARK    7  A    between atoms: C_16  and  C_17 
REMARK    8  A    between atoms: C_18  and  O_19 
ROOT
HETATM    1  N   UNL     1      43.208 -14.900   6.811  1.00  0.00    -0.339 N 
HETATM    2  C   UNL     1      43.180 -13.863   5.920  1.00  0.00     0.316 C 
HETATM    3  N   UNL     1      42.061 -13.093   6.059  1.00  0.00    -0.342 N 
HETATM    4  O   UNL     1      44.079 -13.628   5.124  1.00  0.00    -0.248 OA
HETATM    5  H   UNL     1      42.331 -15.215   7.192  1.00  0.00     0.164 HD
HETATM    6  H   UNL     1      41.265 -13.465   6.553  1.00  0.00     0.164 HD
ENDROOT
BRANCH   1   7
HETATM    7  C   UNL     1      44.316 -15.823   6.794  1.00  0.00     0.166 C 
BRANCH   7   8
HETATM    8  C   UNL     1      43.915 -17.050   6.064  1.00  0.00    -0.004 A 
HETATM    9  C   UNL     1      42.657 -17.341   5.503  1.00  0.00     0.149 A 
HETATM   10  N   UNL     1      42.619 -18.527   4.898  1.00  0.00    -0.180 NA
HETATM   11  N   UNL     1      43.874 -19.031   5.042  1.00  0.00    -0.245 N 
HETATM   12  C   UNL     1      44.675 -18.159   5.748  1.00  0.00     0.129 A 
BRANCH  11  13
HETATM   13  C   UNL     1      44.217 -20.302   4.500  1.00  0.00     0.058 A 
HETATM   14  C   UNL     1      44.144 -20.502   3.112  1.00  0.00     0.031 A 
HETATM   15  C   UNL     1      44.480 -21.740   2.558  1.00  0.00     0.002 A 
HETATM   16  C   UNL     1      44.888 -22.785   3.384  1.00  0.00     0.000 A 
HETATM   17  C   UNL     1      44.962 -22.595   4.763  1.00  0.00     0.002 A 
HETATM   18  C   UNL     1      44.629 -21.358   5.324  1.00  0.00     0.031 A 
ENDBRANCH  11  13
ENDBRANCH   7   8
ENDBRANCH   1   7
BRANCH   3  19
HETATM   19  C   UNL     1      41.820 -11.943   5.204  1.00  0.00     0.144 C 
BRANCH  19  20
HETATM   20  C   UNL     1      40.874 -12.265   4.040  1.00  0.00     0.142 C 
BRANCH  20  21
HETATM   21  N   UNL     1      41.112 -13.570   3.447  1.00  0.00    -0.355 N 
HETATM   22  C   UNL     1      42.024 -13.763   2.437  1.00  0.00     0.254 C 
HETATM   23  O   UNL     1      42.599 -12.831   1.883  1.00  0.00    -0.268 OA
HETATM   24  H   UNL     1      40.755 -14.397   3.920  1.00  0.00     0.162 HD
BRANCH  22  25
HETATM   25  C   UNL     1      42.299 -15.175   2.018  1.00  0.00     0.065 A 
HETATM   26  C   UNL     1      41.361 -16.025   1.409  1.00  0.00     0.081 A 
HETATM   27  C   UNL     1      41.709 -17.334   1.060  1.00  0.00     0.037 A 
HETATM   28  C   UNL     1      42.996 -17.807   1.315  1.00  0.00     0.003 A 
HETATM   29  C   UNL     1      43.937 -16.978   1.920  1.00  0.00     0.001 A 
HETATM   30  C   UNL     1      43.589 -15.672   2.270  1.00  0.00     0.020 A 
BRANCH  26  31
HETATM   31  O   UNL     1      40.084 -15.595   1.148  1.00  0.00    -0.360 OA
HETATM   32  H   UNL     1      39.457 -16.210   1.566  1.00  0.00     0.217 HD
ENDBRANCH  26  31
ENDBRANCH  22  25
ENDBRANCH  20  21
ENDBRANCH  19  20
ENDBRANCH   3  19
TORSDOF 8
ENDMDL
MODEL 4
REMARK VINA RESULT:      -8.7      2.599     11.448
REMARK  8 active torsions:
REMARK  status: ('A' for Active; 'I' for Inactive)
REMARK    1  A    between atoms: C_4  and  N_5 
REMARK    2  A    between atoms: C_8  and  C_9 
REMARK    3  A    between atoms: C_9  and  N_10 
REMARK       I    between atoms: N_10  and  C_11 
REMARK       I    between atoms: C_11  and  N_12 
REMARK    4  A    between atoms: N_12  and  C_13 
REMARK    5  A    between atoms: C_13  and  C_14 
REMARK    6  A    between atoms: C_14  and  N_15 
REMARK       I    between atoms: N_15  and  C_16 
REMARK    7  A    between atoms: C_16  and  C_17 
REMARK    8  A    between atoms: C_18  and  O_19 
ROOT
HETATM    1  N   UNL     1      44.347 -13.461   8.524  1.00  0.00    -0.339 N 
HETATM    2  C   UNL     1      44.521 -14.163   7.363  1.00  0.00     0.316 C 
HETATM    3  N   UNL     1      43.973 -15.411   7.427  1.00  0.00    -0.342 N 
HETATM    4  O   UNL     1      45.063 -13.703   6.367  1.00  0.00    -0.248 OA
HETATM    5  H   UNL     1      44.195 -13.985   9.370  1.00  0.00     0.164 HD
HETATM    6  H   UNL     1      43.758 -15.810   8.327  1.00  0.00     0.164 HD
ENDROOT
BRANCH   1   7
HETATM    7  C   UNL     1      44.877 -12.125   8.635  1.00  0.00     0.166 C 
BRANCH   7   8
HETATM    8  C   UNL     1      43.994 -11.324   9.517  1.00  0.00    -0.004 A 
HETATM    9  C   UNL     1      42.779 -10.701   9.176  1.00  0.00     0.149 A 
HETATM   10  N   UNL     1      42.215 -10.064  10.201  1.00  0.00    -0.180 NA
HETATM   11  N   UNL     1      43.057 -10.276  11.248  1.00  0.00    -0.245 N 
HETATM   12  C   UNL     1      44.143 -11.031  10.859  1.00  0.00     0.129 A 
BRANCH  11  13
HETATM   13  C   UNL     1      42.768  -9.747  12.537  1.00  0.00     0.058 A 
HETATM   14  C   UNL     1      42.755  -8.355  12.724  1.00  0.00     0.031 A 
HETATM   15  C   UNL     1      42.472  -7.814  13.980  1.00  0.00     0.002 A 
HETATM   16  C   UNL     1      42.202  -8.655  15.057  1.00  0.00     0.000 A 
HETATM   17  C   UNL     1      42.214 -10.038  14.880  1.00  0.00     0.002 A 
HETATM   18  C   UNL     1      42.494 -10.587  13.625  1.00  0.00     0.031 A 
ENDBRANCH  11  13
ENDBRANCH   7   8
ENDBRANCH   1   7
BRANCH   3  19
HETATM   19  C   UNL     1      44.053 -16.334   6.307  1.00  0.00     0.144 C 
BRANCH  19  20
HETATM   20  C   UNL     1      44.943 -17.546   6.607  1.00  0.00     0.142 C 
BRANCH  20  21
HETATM   21  N   UNL     1      44.994 -18.509   5.520  1.00  0.00    -0.355 N 
HETATM   22  C   UNL     1      44.305 -19.699   5.557  1.00  0.00     0.254 C 
HETATM   23  O   UNL     1      43.713 -20.083   6.561  1.00  0.00    -0.268 OA
HETATM   24  H   UNL     1      45.374 -18.217   4.622  1.00  0.00     0.162 HD
BRANCH  22  25
HETATM   25  C   UNL     1      44.305 -20.534   4.314  1.00  0.00     0.065 A 
HETATM   26  C   UNL     1      44.752 -21.863   4.244  1.00  0.00     0.081 A 
HETATM   27  C   UNL     1      44.720 -22.561   3.032  1.00  0.00     0.037 A 
HETATM   28  C   UNL     1      44.243 -21.938   1.878  1.00  0.00     0.003 A 
HETATM   29  C   UNL     1      43.799 -20.619   1.930  1.00  0.00     0.001 A 
HETATM   30  C   UNL     1      43.832 -19.922   3.139  1.00  0.00     0.020 A 
BRANCH  26  31
HETATM   31  O   UNL     1      45.232 -22.506   5.356  1.00  0.00    -0.360 OA
HETATM   32  H   UNL     1      45.582 -23.373   5.089  1.00  0.00     0.217 HD
ENDBRANCH  26  31
ENDBRANCH  22  25
ENDBRANCH  20  21
ENDBRANCH  19  20
ENDBRANCH   3  19
TORSDOF 8
ENDMDL
MODEL 5
REMARK VINA RESULT:      -8.7      2.130      3.168
REMARK  8 active torsions:
REMARK  status: ('A' for Active; 'I' for Inactive)
REMARK    1  A    between atoms: C_4  and  N_5 
REMARK    2  A    between atoms: C_8  and  C_9 
REMARK    3  A    between atoms: C_9  and  N_10 
REMARK       I    between atoms: N_10  and  C_11 
REMARK       I    between atoms: C_11  and  N_12 
REMARK    4  A    between atoms: N_12  and  C_13 
REMARK    5  A    between atoms: C_13  and  C_14 
REMARK    6  A    between atoms: C_14  and  N_15 
REMARK       I    between atoms: N_15  and  C_16 
REMARK    7  A    between atoms: C_16  and  C_17 
REMARK    8  A    between atoms: C_18  and  O_19 
ROOT
HETATM    1  N   UNL     1      42.042 -14.963   6.348  1.00  0.00    -0.339 N 
HETATM    2  C   UNL     1      41.671 -13.690   6.017  1.00  0.00     0.316 C 
HETATM    3  N   UNL     1      40.346 -13.459   6.254  1.00  0.00    -0.342 N 
HETATM    4  O   UNL     1      42.450 -12.842   5.601  1.00  0.00    -0.248 OA
HETATM    5  H   UNL     1      41.325 -15.670   6.370  1.00  0.00     0.164 HD
HETATM    6  H   UNL     1      39.722 -14.243   6.366  1.00  0.00     0.164 HD
ENDROOT
BRANCH   1   7
HETATM    7  C   UNL     1      43.407 -15.382   6.148  1.00  0.00     0.166 C 
BRANCH   7   8
HETATM    8  C   UNL     1      43.455 -16.372   5.045  1.00  0.00    -0.004 A 
HETATM    9  C   UNL     1      43.242 -16.138   3.674  1.00  0.00     0.149 A 
HETATM   10  N   UNL     1      43.369 -17.237   2.932  1.00  0.00    -0.180 NA
HETATM   11  N   UNL     1      43.688 -18.219   3.817  1.00  0.00    -0.245 N 
HETATM   12  C   UNL     1      43.742 -17.722   5.103  1.00  0.00     0.129 A 
BRANCH  11  13
HETATM   13  C   UNL     1      43.918 -19.553   3.378  1.00  0.00     0.058 A 
HETATM   14  C   UNL     1      44.596 -20.449   4.220  1.00  0.00     0.031 A 
HETATM   15  C   UNL     1      44.830 -21.764   3.810  1.00  0.00     0.002 A 
HETATM   16  C   UNL     1      44.391 -22.193   2.560  1.00  0.00     0.000 A 
HETATM   17  C   UNL     1      43.717 -21.310   1.718  1.00  0.00     0.002 A 
HETATM   18  C   UNL     1      43.478 -19.993   2.122  1.00  0.00     0.031 A 
ENDBRANCH  11  13
ENDBRANCH   7   8
ENDBRANCH   1   7
BRANCH   3  19
HETATM   19  C   UNL     1      39.735 -12.173   5.962  1.00  0.00     0.144 C 
BRANCH  19  20
HETATM   20  C   UNL     1      39.697 -11.249   7.186  1.00  0.00     0.142 C 
BRANCH  20  21
HETATM   21  N   UNL     1      40.830 -11.427   8.078  1.00  0.00    -0.355 N 
HETATM   22  C   UNL     1      41.830 -10.491   8.194  1.00  0.00     0.254 C 
HETATM   23  O   UNL     1      41.901  -9.511   7.458  1.00  0.00    -0.268 OA
HETATM   24  H   UNL     1      40.787 -12.155   8.788  1.00  0.00     0.162 HD
BRANCH  22  25
HETATM   25  C   UNL     1      42.858 -10.709   9.261  1.00  0.00     0.065 A 
HETATM   26  C   UNL     1      43.859 -11.692   9.218  1.00  0.00     0.081 A 
HETATM   27  C   UNL     1      44.772 -11.826  10.269  1.00  0.00     0.037 A 
HETATM   28  C   UNL     1      44.694 -10.977  11.375  1.00  0.00     0.003 A 
HETATM   29  C   UNL     1      43.706  -9.999  11.434  1.00  0.00     0.001 A 
HETATM   30  C   UNL     1      42.794  -9.867  10.385  1.00  0.00     0.020 A 
BRANCH  26  31
HETATM   31  O   UNL     1      43.963 -12.547   8.149  1.00  0.00    -0.360 OA
HETATM   32  H   UNL     1      43.618 -12.099   7.357  1.00  0.00     0.217 HD
ENDBRANCH  26  31
ENDBRANCH  22  25
ENDBRANCH  20  21
ENDBRANCH  19  20
ENDBRANCH   3  19
TORSDOF 8
ENDMDL
MODEL 6
REMARK VINA RESULT:      -8.7      2.015     10.084
REMARK  8 active torsions:
REMARK  status: ('A' for Active; 'I' for Inactive)
REMARK    1  A    between atoms: C_4  and  N_5 
REMARK    2  A    between atoms: C_8  and  C_9 
REMARK    3  A    between atoms: C_9  and  N_10 
REMARK       I    between atoms: N_10  and  C_11 
REMARK       I    between atoms: C_11  and  N_12 
REMARK    4  A    between atoms: N_12  and  C_13 
REMARK    5  A    between atoms: C_13  and  C_14 
REMARK    6  A    between atoms: C_14  and  N_15 
REMARK       I    between atoms: N_15  and  C_16 
REMARK    7  A    between atoms: C_16  and  C_17 
REMARK    8  A    between atoms: C_18  and  O_19 
ROOT
HETATM    1  N   UNL     1      43.875 -14.474   6.939  1.00  0.00    -0.339 N 
HETATM    2  C   UNL     1      43.030 -14.056   5.948  1.00  0.00     0.316 C 
HETATM    3  N   UNL     1      41.838 -14.721   5.970  1.00  0.00    -0.342 N 
HETATM    4  O   UNL     1      43.298 -13.154   5.164  1.00  0.00    -0.248 OA
HETATM    5  H   UNL     1      43.732 -15.395   7.319  1.00  0.00     0.164 HD
HETATM    6  H   UNL     1      41.770 -15.593   6.471  1.00  0.00     0.164 HD
ENDROOT
BRANCH   1   7
HETATM    7  C   UNL     1      45.186 -13.884   7.054  1.00  0.00     0.166 C 
BRANCH   7   8
HETATM    8  C   UNL     1      45.136 -12.777   8.039  1.00  0.00    -0.004 A 
HETATM    9  C   UNL     1      46.163 -11.870   8.361  1.00  0.00     0.149 A 
HETATM   10  N   UNL     1      45.800 -10.979   9.282  1.00  0.00    -0.180 NA
HETATM   11  N   UNL     1      44.506 -11.284   9.571  1.00  0.00    -0.245 N 
HETATM   12  C   UNL     1      44.083 -12.371   8.835  1.00  0.00     0.129 A 
BRANCH  11  13
HETATM   13  C   UNL     1      43.769 -10.522  10.521  1.00  0.00     0.058 A 
HETATM   14  C   UNL     1      44.230 -10.440  11.845  1.00  0.00     0.031 A 
HETATM   15  C   UNL     1      43.525  -9.696  12.793  1.00  0.00     0.002 A 
HETATM   16  C   UNL     1      42.356  -9.032  12.430  1.00  0.00     0.000 A 
HETATM   17  C   UNL     1      41.890  -9.109  11.118  1.00  0.00     0.002 A 
HETATM   18  C   UNL     1      42.593  -9.850  10.162  1.00  0.00     0.031 A 
ENDBRANCH  11  13
ENDBRANCH   7   8
ENDBRANCH   1   7
BRANCH   3  19
HETATM   19  C   UNL     1      40.796 -14.444   4.996  1.00  0.00     0.144 C 
BRANCH  19  20
HETATM   20  C   UNL     1      40.850 -15.393   3.792  1.00  0.00     0.142 C 
BRANCH  20  21
HETATM   21  N   UNL     1      41.628 -16.596   4.040  1.00  0.00    -0.355 N 
HETATM   22  C   UNL     1      42.548 -17.076   3.138  1.00  0.00     0.254 C 
HETATM   23  O   UNL     1      42.677 -16.598   2.015  1.00  0.00    -0.268 OA
HETATM   24  H   UNL     1      41.651 -16.980   4.982  1.00  0.00     0.162 HD
BRANCH  22  25
HETATM   25  C   UNL     1      43.401 -18.227   3.572  1.00  0.00     0.065 A 
HETATM   26  C   UNL     1      43.975 -18.361   4.847  1.00  0.00     0.081 A 
HETATM   27  C   UNL     1      44.766 -19.472   5.158  1.00  0.00     0.037 A 
HETATM   28  C   UNL     1      44.993 -20.460   4.199  1.00  0.00     0.003 A 
HETATM   29  C   UNL     1      44.433 -20.341   2.929  1.00  0.00     0.001 A 
HETATM   30  C   UNL     1      43.645 -19.231   2.619  1.00  0.00     0.020 A 
BRANCH  26  31
HETATM   31  O   UNL     1      43.778 -17.407   5.813  1.00  0.00    -0.360 OA
HETATM   32  H   UNL     1      42.833 -17.175   5.834  1.00  0.00     0.217 HD
ENDBRANCH  26  31
ENDBRANCH  22  25
ENDBRANCH  20  21
ENDBRANCH  19  20
ENDBRANCH   3  19
TORSDOF 8
ENDMDL
MODEL 7
REMARK VINA RESULT:      -8.7      4.311      5.540
REMARK  8 active torsions:
REMARK  status: ('A' for Active; 'I' for Inactive)
REMARK    1  A    between atoms: C_4  and  N_5 
REMARK    2  A    between atoms: C_8  and  C_9 
REMARK    3  A    between atoms: C_9  and  N_10 
REMARK       I    between atoms: N_10  and  C_11 
REMARK       I    between atoms: C_11  and  N_12 
REMARK    4  A    between atoms: N_12  and  C_13 
REMARK    5  A    between atoms: C_13  and  C_14 
REMARK    6  A    between atoms: C_14  and  N_15 
REMARK       I    between atoms: N_15  and  C_16 
REMARK    7  A    between atoms: C_16  and  C_17 
REMARK    8  A    between atoms: C_18  and  O_19 
ROOT
HETATM    1  N   UNL     1      39.892 -13.851   2.412  1.00  0.00    -0.339 N 
HETATM    2  C   UNL     1      39.918 -13.407   3.705  1.00  0.00     0.316 C 
HETATM    3  N   UNL     1      40.454 -12.156   3.811  1.00  0.00    -0.342 N 
HETATM    4  O   UNL     1      39.466 -14.041   4.650  1.00  0.00    -0.248 OA
HETATM    5  H   UNL     1      40.545 -13.444   1.763  1.00  0.00     0.164 HD
HETATM    6  H   UNL     1      41.013 -11.794   3.054  1.00  0.00     0.164 HD
ENDROOT
BRANCH   1   7
HETATM    7  C   UNL     1      39.369 -15.163   2.120  1.00  0.00     0.166 C 
BRANCH   7   8
HETATM    8  C   UNL     1      40.497 -16.095   1.885  1.00  0.00    -0.004 A 
HETATM    9  C   UNL     1      41.280 -16.216   0.722  1.00  0.00     0.149 A 
HETATM   10  N   UNL     1      42.232 -17.142   0.829  1.00  0.00    -0.180 NA
HETATM   11  N   UNL     1      42.095 -17.638   2.088  1.00  0.00    -0.245 N 
HETATM   12  C   UNL     1      41.049 -17.024   2.746  1.00  0.00     0.129 A 
BRANCH  11  13
HETATM   13  C   UNL     1      42.965 -18.656   2.573  1.00  0.00     0.058 A 
HETATM   14  C   UNL     1      43.177 -19.807   1.798  1.00  0.00     0.031 A 
HETATM   15  C   UNL     1      44.028 -20.817   2.252  1.00  0.00     0.002 A 
HETATM   16  C   UNL     1      44.671 -20.686   3.481  1.00  0.00     0.000 A 
HETATM   17  C   UNL     1      44.465 -19.547   4.257  1.00  0.00     0.002 A 
HETATM   18  C   UNL     1      43.616 -18.531   3.807  1.00  0.00     0.031 A 
ENDBRANCH  11  13
ENDBRANCH   7   8
ENDBRANCH   1   7
BRANCH   3  19
HETATM   19  C   UNL     1      40.591 -11.494   5.097  1.00  0.00     0.144 C 
BRANCH  19  20
HETATM   20  C   UNL     1      41.934 -11.796   5.774  1.00  0.00     0.142 C 
BRANCH  20  21
HETATM   21  N   UNL     1      42.077 -13.185   6.179  1.00  0.00    -0.355 N 
HETATM   22  C   UNL     1      43.055 -14.004   5.666  1.00  0.00     0.254 C 
HETATM   23  O   UNL     1      43.784 -13.657   4.741  1.00  0.00    -0.268 OA
HETATM   24  H   UNL     1      41.583 -13.508   7.007  1.00  0.00     0.162 HD
BRANCH  22  25
HETATM   25  C   UNL     1      43.205 -15.363   6.277  1.00  0.00     0.065 A 
HETATM   26  C   UNL     1      42.136 -16.195   6.647  1.00  0.00     0.081 A 
HETATM   27  C   UNL     1      42.375 -17.448   7.220  1.00  0.00     0.037 A 
HETATM   28  C   UNL     1      43.685 -17.884   7.428  1.00  0.00     0.003 A 
HETATM   29  C   UNL     1      44.756 -17.070   7.068  1.00  0.00     0.001 A 
HETATM   30  C   UNL     1      44.517 -15.818   6.498  1.00  0.00     0.020 A 
BRANCH  26  31
HETATM   31  O   UNL     1      40.836 -15.798   6.462  1.00  0.00    -0.360 OA
HETATM   32  H   UNL     1      40.527 -16.133   5.602  1.00  0.00     0.217 HD
ENDBRANCH  26  31
ENDBRANCH  22  25
ENDBRANCH  20  21
ENDBRANCH  19  20
ENDBRANCH   3  19
TORSDOF 8
ENDMDL
MODEL 8
REMARK VINA RESULT:      -8.7      2.442     10.800
REMARK  8 active torsions:
REMARK  status: ('A' for Active; 'I' for Inactive)
REMARK    1  A    between atoms: C_4  and  N_5 
REMARK    2  A    between atoms: C_8  and  C_9 
REMARK    3  A    between atoms: C_9  and  N_10 
REMARK       I    between atoms: N_10  and  C_11 
REMARK       I    between atoms: C_11  and  N_12 
REMARK    4  A    between atoms: N_12  and  C_13 
REMARK    5  A    between atoms: C_13  and  C_14 
REMARK    6  A    between atoms: C_14  and  N_15 
REMARK       I    between atoms: N_15  and  C_16 
REMARK    7  A    between atoms: C_16  and  C_17 
REMARK    8  A    between atoms: C_18  and  O_19 
ROOT
HETATM    1  N   UNL     1      39.564 -12.827   7.330  1.00  0.00    -0.339 N 
HETATM    2  C   UNL     1      40.201 -13.381   6.254  1.00  0.00     0.316 C 
HETATM    3  N   UNL     1      40.165 -14.745   6.278  1.00  0.00    -0.342 N 
HETATM    4  O   UNL     1      40.702 -12.724   5.350  1.00  0.00    -0.248 OA
HETATM    5  H   UNL     1      39.469 -13.390   8.159  1.00  0.00     0.164 HD
HETATM    6  H   UNL     1      39.955 -15.217   7.144  1.00  0.00     0.164 HD
ENDROOT
BRANCH   1   7
HETATM    7  C   UNL     1      39.519 -11.392   7.470  1.00  0.00     0.166 C 
BRANCH   7   8
HETATM    8  C   UNL     1      40.509 -10.972   8.490  1.00  0.00    -0.004 A 
HETATM    9  C   UNL     1      41.806 -10.471   8.271  1.00  0.00     0.149 A 
HETATM   10  N   UNL     1      42.445 -10.170   9.400  1.00  0.00    -0.180 NA
HETATM   11  N   UNL     1      41.558 -10.458  10.390  1.00  0.00    -0.245 N 
HETATM   12  C   UNL     1      40.381 -10.950   9.866  1.00  0.00     0.129 A 
BRANCH  11  13
HETATM   13  C   UNL     1      41.894 -10.247  11.757  1.00  0.00     0.058 A 
HETATM   14  C   UNL     1      43.148  -9.706  12.083  1.00  0.00     0.031 A 
HETATM   15  C   UNL     1      43.497  -9.488  13.418  1.00  0.00     0.002 A 
HETATM   16  C   UNL     1      42.600  -9.809  14.434  1.00  0.00     0.000 A 
HETATM   17  C   UNL     1      41.354 -10.347  14.119  1.00  0.00     0.002 A 
HETATM   18  C   UNL     1      40.997 -10.567  12.785  1.00  0.00     0.031 A 
ENDBRANCH  11  13
ENDBRANCH   7   8
ENDBRANCH   1   7
BRANCH   3  19
HETATM   19  C   UNL     1      40.792 -15.540   5.236  1.00  0.00     0.144 C 
BRANCH  19  20
HETATM   20  C   UNL     1      42.209 -15.990   5.614  1.00  0.00     0.142 C 
BRANCH  20  21
HETATM   21  N   UNL     1      42.559 -17.299   5.090  1.00  0.00    -0.355 N 
HETATM   22  C   UNL     1      43.184 -17.463   3.876  1.00  0.00     0.254 C 
HETATM   23  O   UNL     1      43.369 -16.530   3.101  1.00  0.00    -0.268 OA
HETATM   24  H   UNL     1      42.533 -18.101   5.715  1.00  0.00     0.162 HD
BRANCH  22  25
HETATM   25  C   UNL     1      43.638 -18.845   3.517  1.00  0.00     0.065 A 
HETATM   26  C   UNL     1      44.465 -19.648   4.318  1.00  0.00     0.081 A 
HETATM   27  C   UNL     1      44.843 -20.926   3.893  1.00  0.00     0.037 A 
HETATM   28  C   UNL     1      44.398 -21.415   2.663  1.00  0.00     0.003 A 
HETATM   29  C   UNL     1      43.578 -20.629   1.857  1.00  0.00     0.001 A 
HETATM   30  C   UNL     1      43.203 -19.353   2.280  1.00  0.00     0.020 A 
BRANCH  26  31
HETATM   31  O   UNL     1      44.925 -19.199   5.530  1.00  0.00    -0.360 OA
HETATM   32  H   UNL     1      44.162 -18.948   6.080  1.00  0.00     0.217 HD
ENDBRANCH  26  31
ENDBRANCH  22  25
ENDBRANCH  20  21
ENDBRANCH  19  20
ENDBRANCH   3  19
TORSDOF 8
ENDMDL
MODEL 9
REMARK VINA RESULT:      -8.6      1.909      2.662
REMARK  8 active torsions:
REMARK  status: ('A' for Active; 'I' for Inactive)
REMARK    1  A    between atoms: C_4  and  N_5 
REMARK    2  A    between atoms: C_8  and  C_9 
REMARK    3  A    between atoms: C_9  and  N_10 
REMARK       I    between atoms: N_10  and  C_11 
REMARK       I    between atoms: C_11  and  N_12 
REMARK    4  A    between atoms: N_12  and  C_13 
REMARK    5  A    between atoms: C_13  and  C_14 
REMARK    6  A    between atoms: C_14  and  N_15 
REMARK       I    between atoms: N_15  and  C_16 
REMARK    7  A    between atoms: C_16  and  C_17 
REMARK    8  A    between atoms: C_18  and  O_19 
ROOT
HETATM    1  N   UNL     1      42.990 -15.222   6.797  1.00  0.00    -0.339 N 
HETATM    2  C   UNL     1      42.724 -14.049   6.148  1.00  0.00     0.316 C 
HETATM    3  N   UNL     1      41.407 -13.698   6.233  1.00  0.00    -0.342 N 
HETATM    4  O   UNL     1      43.579 -13.369   5.596  1.00  0.00    -0.248 OA
HETATM    5  H   UNL     1      42.227 -15.864   6.937  1.00  0.00     0.164 HD
HETATM    6  H   UNL     1      40.727 -14.398   6.485  1.00  0.00     0.164 HD
ENDROOT
BRANCH   1   7
HETATM    7  C   UNL     1      44.333 -15.748   6.795  1.00  0.00     0.166 C 
BRANCH   7   8
HETATM    8  C   UNL     1      44.303 -17.156   6.331  1.00  0.00    -0.004 A 
HETATM    9  C   UNL     1      44.281 -18.319   7.124  1.00  0.00     0.149 A 
HETATM   10  N   UNL     1      44.241 -19.439   6.403  1.00  0.00    -0.180 NA
HETATM   11  N   UNL     1      44.220 -19.020   5.109  1.00  0.00    -0.245 N 
HETATM   12  C   UNL     1      44.262 -17.643   5.039  1.00  0.00     0.129 A 
BRANCH  11  13
HETATM   13  C   UNL     1      44.164 -19.956   4.038  1.00  0.00     0.058 A 
HETATM   14  C   UNL     1      43.618 -19.561   2.806  1.00  0.00     0.031 A 
HETATM   15  C   UNL     1      43.555 -20.462   1.741  1.00  0.00     0.002 A 
HETATM   16  C   UNL     1      44.033 -21.761   1.897  1.00  0.00     0.000 A 
HETATM   17  C   UNL     1      44.575 -22.161   3.117  1.00  0.00     0.002 A 
HETATM   18  C   UNL     1      44.643 -21.264   4.188  1.00  0.00     0.031 A 
ENDBRANCH  11  13
ENDBRANCH   7   8
ENDBRANCH   1   7
BRANCH   3  19
HETATM   19  C   UNL     1      40.900 -12.491   5.602  1.00  0.00     0.144 C 
BRANCH  19  20
HETATM   20  C   UNL     1      40.246 -11.534   6.607  1.00  0.00     0.142 C 
BRANCH  20  21
HETATM   21  N   UNL     1      40.840 -11.593   7.932  1.00  0.00    -0.355 N 
HETATM   22  C   UNL     1      41.735 -10.650   8.379  1.00  0.00     0.254 C 
HETATM   23  O   UNL     1      42.189  -9.775   7.647  1.00  0.00    -0.268 OA
HETATM   24  H   UNL     1      40.438 -12.221   8.623  1.00  0.00     0.162 HD
BRANCH  22  25
HETATM   25  C   UNL     1      42.155 -10.725   9.815  1.00  0.00     0.065 A 
HETATM   26  C   UNL     1      41.297 -11.031  10.883  1.00  0.00     0.081 A 
HETATM   27  C   UNL     1      41.781 -11.070  12.195  1.00  0.00     0.037 A 
HETATM   28  C   UNL     1      43.127 -10.805  12.453  1.00  0.00     0.003 A 
HETATM   29  C   UNL     1      43.990 -10.499  11.404  1.00  0.00     0.001 A 
HETATM   30  C   UNL     1      43.507 -10.458  10.095  1.00  0.00     0.020 A 
BRANCH  26  31
HETATM   31  O   UNL     1      39.968 -11.292  10.669  1.00  0.00    -0.360 OA
HETATM   32  H   UNL     1      39.478 -11.114  11.491  1.00  0.00     0.217 HD
ENDBRANCH  26  31
ENDBRANCH  22  25
ENDBRANCH  20  21
ENDBRANCH  19  20
ENDBRANCH   3  19
TORSDOF 8
ENDMDL
MODEL 10
REMARK VINA RESULT:      -8.4      2.343      3.026
REMARK  8 active torsions:
REMARK  status: ('A' for Active; 'I' for Inactive)
REMARK    1  A    between atoms: C_4  and  N_5 
REMARK    2  A    between atoms: C_8  and  C_9 
REMARK    3  A    between atoms: C_9  and  N_10 
REMARK       I    between atoms: N_10  and  C_11 
REMARK       I    between atoms: C_11  and  N_12 
REMARK    4  A    between atoms: N_12  and  C_13 
REMARK    5  A    between atoms: C_13  and  C_14 
REMARK    6  A    between atoms: C_14  and  N_15 
REMARK       I    between atoms: N_15  and  C_16 
REMARK    7  A    between atoms: C_16  and  C_17 
REMARK    8  A    between atoms: C_18  and  O_19 
ROOT
HETATM    1  N   UNL     1      39.809 -14.634   5.388  1.00  0.00    -0.339 N 
HETATM    2  C   UNL     1      39.903 -13.301   5.677  1.00  0.00     0.316 C 
HETATM    3  N   UNL     1      39.527 -13.022   6.959  1.00  0.00    -0.342 N 
HETATM    4  O   UNL     1      40.324 -12.464   4.889  1.00  0.00    -0.248 OA
HETATM    5  H   UNL     1      39.177 -15.190   5.941  1.00  0.00     0.164 HD
HETATM    6  H   UNL     1      38.978 -13.697   7.469  1.00  0.00     0.164 HD
ENDROOT
BRANCH   1   7
HETATM    7  C   UNL     1      40.155 -15.103   4.069  1.00  0.00     0.166 C 
BRANCH   7   8
HETATM    8  C   UNL     1      41.294 -16.048   4.173  1.00  0.00    -0.004 A 
HETATM    9  C   UNL     1      42.375 -15.991   5.072  1.00  0.00     0.149 A 
HETATM   10  N   UNL     1      43.231 -17.000   4.920  1.00  0.00    -0.180 NA
HETATM   11  N   UNL     1      42.707 -17.754   3.917  1.00  0.00    -0.245 N 
HETATM   12  C   UNL     1      41.538 -17.196   3.444  1.00  0.00     0.129 A 
BRANCH  11  13
HETATM   13  C   UNL     1      43.355 -18.944   3.481  1.00  0.00     0.058 A 
HETATM   14  C   UNL     1      43.011 -19.500   2.238  1.00  0.00     0.031 A 
HETATM   15  C   UNL     1      43.636 -20.666   1.789  1.00  0.00     0.002 A 
HETATM   16  C   UNL     1      44.605 -21.285   2.576  1.00  0.00     0.000 A 
HETATM   17  C   UNL     1      44.950 -20.740   3.812  1.00  0.00     0.002 A 
HETATM   18  C   UNL     1      44.331 -19.572   4.267  1.00  0.00     0.031 A 
ENDBRANCH  11  13
ENDBRANCH   7   8
ENDBRANCH   1   7
BRANCH   3  19
HETATM   19  C   UNL     1      39.538 -11.664   7.476  1.00  0.00     0.144 C 
BRANCH  19  20
HETATM   20  C   UNL     1      39.129 -11.594   8.952  1.00  0.00     0.142 C 
BRANCH  20  21
HETATM   21  N   UNL     1      40.220 -11.224   9.837  1.00  0.00    -0.355 N 
HETATM   22  C   UNL     1      40.075 -10.286  10.832  1.00  0.00     0.254 C 
HETATM   23  O   UNL     1      39.059  -9.608  10.954  1.00  0.00    -0.268 OA
HETATM   24  H   UNL     1      41.050 -11.811   9.865  1.00  0.00     0.162 HD
BRANCH  22  25
HETATM   25  C   UNL     1      41.221 -10.106  11.781  1.00  0.00     0.065 A 
HETATM   26  C   UNL     1      42.570 -10.041  11.401  1.00  0.00     0.081 A 
HETATM   27  C   UNL     1      43.573  -9.879  12.362  1.00  0.00     0.037 A 
HETATM   28  C   UNL     1      43.238  -9.780  13.713  1.00  0.00     0.003 A 
HETATM   29  C   UNL     1      41.904  -9.844  14.106  1.00  0.00     0.001 A 
HETATM   30  C   UNL     1      40.903 -10.008  13.147  1.00  0.00     0.020 A 
BRANCH  26  31
HETATM   31  O   UNL     1      42.938 -10.140  10.082  1.00  0.00    -0.360 OA
HETATM   32  H   UNL     1      43.895 -10.311  10.037  1.00  0.00     0.217 HD
ENDBRANCH  26  31
ENDBRANCH  22  25
ENDBRANCH  20  21
ENDBRANCH  19  20
ENDBRANCH   3  19
TORSDOF 8
ENDMDL
