MODEL 1
REMARK VINA RESULT:      -7.4      0.000      0.000
REMARK  6 active torsions:
REMARK  status: ('A' for Active; 'I' for Inactive)
REMARK    1  A    between atoms: C_2  and  N_3 
REMARK    2  A    between atoms: C_2  and  C_17 
REMARK       I    between atoms: N_3  and  C_4 
REMARK    3  A    between atoms: C_4  and  C_5 
REMARK    4  A    between atoms: C_6  and  O_7 
REMARK    5  A    between atoms: O_7  and  C_8 
REMARK    6  A    between atoms: C_8  and  C_9 
ROOT
HETATM    1  N   UNL     1      41.458 -16.079   3.850  1.00  0.00    -0.346 N 
HETATM    2  C   UNL     1      41.267 -15.590   5.116  1.00  0.00     0.256 C 
HETATM    3  O   UNL     1      40.159 -15.658   5.638  1.00  0.00    -0.267 OA
HETATM    4  H   UNL     1      40.619 -16.507   3.481  1.00  0.00     0.163 HD
ENDROOT
BRANCH   1   5
HETATM    5  C   UNL     1      42.688 -16.178   3.076  1.00  0.00     0.150 C 
HETATM    6  C   UNL     1      42.491 -15.602   1.679  1.00  0.00     0.040 C 
BRANCH   5   7
HETATM    7  C   UNL     1      43.097 -17.622   3.057  1.00  0.00     0.127 A 
HETATM    8  N   UNL     1      42.895 -18.482   2.075  1.00  0.00    -0.231 NA
HETATM    9  C   UNL     1      43.483 -19.657   2.478  1.00  0.00     0.085 A 
HETATM   10  C   UNL     1      44.054 -19.520   3.736  1.00  0.00     0.062 A 
HETATM   11  C   UNL     1      43.576 -20.890   1.817  1.00  0.00     0.034 A 
HETATM   12  N   UNL     1      43.797 -18.218   4.082  1.00  0.00    -0.341 N 
HETATM   13  C   UNL     1      44.723 -20.553   4.396  1.00  0.00     0.032 A 
HETATM   14  H   UNL     1      44.089 -17.772   4.939  1.00  0.00     0.167 HD
HETATM   15  C   UNL     1      44.806 -21.775   3.722  1.00  0.00     0.002 A 
HETATM   16  C   UNL     1      44.245 -21.945   2.453  1.00  0.00     0.002 A 
ENDBRANCH   5   7
ENDBRANCH   1   5
BRANCH   2  17
HETATM   17  C   UNL     1      42.381 -14.980   5.852  1.00  0.00     0.084 A 
HETATM   18  C   UNL     1      43.295 -15.777   6.530  1.00  0.00     0.180 A 
HETATM   19  N   UNL     1      44.353 -15.279   7.217  1.00  0.00    -0.236 NA
HETATM   20  C   UNL     1      44.522 -13.937   7.183  1.00  0.00     0.119 A 
HETATM   21  C   UNL     1      43.680 -13.067   6.505  1.00  0.00     0.020 A 
HETATM   22  C   UNL     1      42.591 -13.600   5.821  1.00  0.00     0.023 A 
BRANCH  18  23
HETATM   23  O   UNL     1      43.068 -17.135   6.599  1.00  0.00    -0.328 OA
BRANCH  23  24
HETATM   24  C   UNL     1      43.213 -17.673   7.920  1.00  0.00     0.248 C 
BRANCH  24  25
HETATM   25  C   UNL     1      44.246 -18.786   7.980  1.00  0.00     0.377 C 
HETATM   26  F   UNL     1      43.665 -19.965   7.626  1.00  0.00    -0.212 F 
HETATM   27  F   UNL     1      45.217 -18.554   7.056  1.00  0.00    -0.212 F 
ENDBRANCH  24  25
ENDBRANCH  23  24
ENDBRANCH  18  23
ENDBRANCH   2  17
TORSDOF 6
ENDMDL
MODEL 2
REMARK VINA RESULT:      -7.3      2.693      4.383
REMARK  6 active torsions:
REMARK  status: ('A' for Active; 'I' for Inactive)
REMARK    1  A    between atoms: C_2  and  N_3 
REMARK    2  A    between atoms: C_2  and  C_17 
REMARK       I    between atoms: N_3  and  C_4 
REMARK    3  A    between atoms: C_4  and  C_5 
REMARK    4  A    between atoms: C_6  and  O_7 
REMARK    5  A    between atoms: O_7  and  C_8 
REMARK    6  A    between atoms: C_8  and  C_9 
ROOT
HETATM    1  N   UNL     1      43.891 -15.619   5.571  1.00  0.00    -0.346 N 
HETATM    2  C   UNL     1      43.473 -14.485   4.927  1.00  0.00     0.256 C 
HETATM    3  O   UNL     1      44.294 -13.650   4.561  1.00  0.00    -0.267 OA
HETATM    4  H   UNL     1      44.899 -15.663   5.640  1.00  0.00     0.163 HD
ENDROOT
BRANCH   1   5
HETATM    5  C   UNL     1      43.112 -16.768   6.015  1.00  0.00     0.150 C 
HETATM    6  C   UNL     1      43.395 -17.073   7.482  1.00  0.00     0.040 C 
BRANCH   5   7
HETATM    7  C   UNL     1      43.443 -17.918   5.109  1.00  0.00     0.127 A 
HETATM    8  N   UNL     1      44.218 -18.947   5.398  1.00  0.00    -0.231 NA
HETATM    9  C   UNL     1      44.183 -19.765   4.294  1.00  0.00     0.085 A 
HETATM   10  C   UNL     1      43.375 -19.225   3.303  1.00  0.00     0.062 A 
HETATM   11  C   UNL     1      44.814 -20.996   4.065  1.00  0.00     0.034 A 
HETATM   12  N   UNL     1      42.915 -18.053   3.845  1.00  0.00    -0.341 N 
HETATM   13  C   UNL     1      43.153 -19.841   2.070  1.00  0.00     0.032 A 
HETATM   14  H   UNL     1      42.282 -17.408   3.394  1.00  0.00     0.167 HD
HETATM   15  C   UNL     1      43.790 -21.067   1.858  1.00  0.00     0.002 A 
HETATM   16  C   UNL     1      44.608 -21.639   2.837  1.00  0.00     0.002 A 
ENDBRANCH   5   7
ENDBRANCH   1   5
BRANCH   2  17
HETATM   17  C   UNL     1      42.043 -14.259   4.673  1.00  0.00     0.084 A 
HETATM   18  C   UNL     1      41.431 -14.821   3.559  1.00  0.00     0.180 A 
HETATM   19  N   UNL     1      40.114 -14.663   3.275  1.00  0.00    -0.236 NA
HETATM   20  C   UNL     1      39.381 -13.954   4.165  1.00  0.00     0.119 A 
HETATM   21  C   UNL     1      39.901 -13.386   5.319  1.00  0.00     0.020 A 
HETATM   22  C   UNL     1      41.258 -13.548   5.582  1.00  0.00     0.023 A 
BRANCH  18  23
HETATM   23  O   UNL     1      42.210 -15.488   2.639  1.00  0.00    -0.328 OA
BRANCH  23  24
HETATM   24  C   UNL     1      41.784 -15.297   1.284  1.00  0.00     0.248 C 
BRANCH  24  25
HETATM   25  C   UNL     1      41.726 -16.602   0.508  1.00  0.00     0.377 C 
HETATM   26  F   UNL     1      42.968 -17.158   0.460  1.00  0.00    -0.212 F 
HETATM   27  F   UNL     1      40.943 -17.492   1.175  1.00  0.00    -0.212 F 
ENDBRANCH  24  25
ENDBRANCH  23  24
ENDBRANCH  18  23
ENDBRANCH   2  17
TORSDOF 6
ENDMDL
MODEL 3
REMARK VINA RESULT:      -7.2      2.770      3.779
REMARK  6 active torsions:
REMARK  status: ('A' for Active; 'I' for Inactive)
REMARK    1  A    between atoms: C_2  and  N_3 
REMARK    2  A    between atoms: C_2  and  C_17 
REMARK       I    between atoms: N_3  and  C_4 
REMARK    3  A    between atoms: C_4  and  C_5 
REMARK    4  A    between atoms: C_6  and  O_7 
REMARK    5  A    between atoms: O_7  and  C_8 
REMARK    6  A    between atoms: C_8  and  C_9 
ROOT
HETATM    1  N   UNL     1      42.185 -16.736   3.327  1.00  0.00    -0.346 N 
HETATM    2  C   UNL     1      41.863 -16.068   4.479  1.00  0.00     0.256 C 
HETATM    3  O   UNL     1      40.692 -15.992   4.837  1.00  0.00    -0.267 OA
HETATM    4  H   UNL     1      41.372 -17.155   2.895  1.00  0.00     0.163 HD
ENDROOT
BRANCH   1   5
HETATM    5  C   UNL     1      43.497 -17.020   2.762  1.00  0.00     0.150 C 
HETATM    6  C   UNL     1      43.482 -16.830   1.249  1.00  0.00     0.040 C 
BRANCH   5   7
HETATM    7  C   UNL     1      43.875 -18.415   3.168  1.00  0.00     0.127 A 
HETATM    8  N   UNL     1      44.181 -18.821   4.387  1.00  0.00    -0.231 NA
HETATM    9  C   UNL     1      44.401 -20.174   4.286  1.00  0.00     0.085 A 
HETATM   10  C   UNL     1      44.234 -20.608   2.978  1.00  0.00     0.062 A 
HETATM   11  C   UNL     1      44.745 -21.106   5.276  1.00  0.00     0.034 A 
HETATM   12  N   UNL     1      43.898 -19.473   2.287  1.00  0.00    -0.341 N 
HETATM   13  C   UNL     1      44.394 -21.937   2.581  1.00  0.00     0.032 A 
HETATM   14  H   UNL     1      43.688 -19.428   1.301  1.00  0.00     0.167 HD
HETATM   15  C   UNL     1      44.736 -22.852   3.581  1.00  0.00     0.002 A 
HETATM   16  C   UNL     1      44.909 -22.448   4.907  1.00  0.00     0.002 A 
ENDBRANCH   5   7
ENDBRANCH   1   5
BRANCH   2  17
HETATM   17  C   UNL     1      42.913 -15.436   5.289  1.00  0.00     0.084 A 
HETATM   18  C   UNL     1      43.469 -14.225   4.896  1.00  0.00     0.180 A 
HETATM   19  N   UNL     1      44.431 -13.582   5.605  1.00  0.00    -0.236 NA
HETATM   20  C   UNL     1      44.812 -14.155   6.770  1.00  0.00     0.119 A 
HETATM   21  C   UNL     1      44.289 -15.344   7.256  1.00  0.00     0.020 A 
HETATM   22  C   UNL     1      43.314 -15.994   6.504  1.00  0.00     0.023 A 
BRANCH  18  23
HETATM   23  O   UNL     1      43.106 -13.692   3.678  1.00  0.00    -0.328 OA
BRANCH  23  24
HETATM   24  C   UNL     1      42.158 -12.621   3.783  1.00  0.00     0.248 C 
BRANCH  24  25
HETATM   25  C   UNL     1      40.942 -12.838   2.898  1.00  0.00     0.377 C 
HETATM   26  F   UNL     1      41.184 -13.867   2.038  1.00  0.00    -0.212 F 
HETATM   27  F   UNL     1      39.888 -13.230   3.662  1.00  0.00    -0.212 F 
ENDBRANCH  24  25
ENDBRANCH  23  24
ENDBRANCH  18  23
ENDBRANCH   2  17
TORSDOF 6
ENDMDL
MODEL 4
REMARK VINA RESULT:      -6.9      7.483      9.565
REMARK  6 active torsions:
REMARK  status: ('A' for Active; 'I' for Inactive)
REMARK    1  A    between atoms: C_2  and  N_3 
REMARK    2  A    between atoms: C_2  and  C_17 
REMARK       I    between atoms: N_3  and  C_4 
REMARK    3  A    between atoms: C_4  and  C_5 
REMARK    4  A    between atoms: C_6  and  O_7 
REMARK    5  A    between atoms: O_7  and  C_8 
REMARK    6  A    between atoms: C_8  and  C_9 
ROOT
HETATM    1  N   UNL     1      39.489 -11.108  11.593  1.00  0.00    -0.346 N 
HETATM    2  C   UNL     1      40.281 -11.583  12.605  1.00  0.00     0.256 C 
HETATM    3  O   UNL     1      40.037 -12.671  13.116  1.00  0.00    -0.267 OA
HETATM    4  H   UNL     1      38.769 -11.770  11.336  1.00  0.00     0.163 HD
ENDROOT
BRANCH   1   5
HETATM    5  C   UNL     1      39.638  -9.898  10.796  1.00  0.00     0.150 C 
HETATM    6  C   UNL     1      38.584  -8.867  11.183  1.00  0.00     0.040 C 
BRANCH   5   7
HETATM    7  C   UNL     1      39.558 -10.295   9.350  1.00  0.00     0.127 A 
HETATM    8  N   UNL     1      39.543  -9.479   8.312  1.00  0.00    -0.231 NA
HETATM    9  C   UNL     1      39.518 -10.286   7.200  1.00  0.00     0.085 A 
HETATM   10  C   UNL     1      39.510 -11.627   7.561  1.00  0.00     0.062 A 
HETATM   11  C   UNL     1      39.506  -9.945   5.840  1.00  0.00     0.034 A 
HETATM   12  N   UNL     1      39.538 -11.606   8.932  1.00  0.00    -0.341 N 
HETATM   13  C   UNL     1      39.487 -12.673   6.637  1.00  0.00     0.032 A 
HETATM   14  H   UNL     1      39.557 -12.420   9.529  1.00  0.00     0.167 HD
HETATM   15  C   UNL     1      39.475 -12.315   5.286  1.00  0.00     0.002 A 
HETATM   16  C   UNL     1      39.485 -10.975   4.889  1.00  0.00     0.002 A 
ENDBRANCH   5   7
ENDBRANCH   1   5
BRANCH   2  17
HETATM   17  C   UNL     1      41.423 -10.794  13.086  1.00  0.00     0.084 A 
HETATM   18  C   UNL     1      42.585 -10.706  12.328  1.00  0.00     0.180 A 
HETATM   19  N   UNL     1      43.669  -9.984  12.708  1.00  0.00    -0.236 NA
HETATM   20  C   UNL     1      43.563  -9.293  13.866  1.00  0.00     0.119 A 
HETATM   21  C   UNL     1      42.432  -9.295  14.669  1.00  0.00     0.020 A 
HETATM   22  C   UNL     1      41.338 -10.056  14.268  1.00  0.00     0.023 A 
BRANCH  18  23
HETATM   23  O   UNL     1      42.689 -11.465  11.182  1.00  0.00    -0.328 OA
BRANCH  23  24
HETATM   24  C   UNL     1      43.305 -10.770  10.090  1.00  0.00     0.248 C 
BRANCH  24  25
HETATM   25  C   UNL     1      44.648 -11.371   9.709  1.00  0.00     0.377 C 
HETATM   26  F   UNL     1      45.616 -10.417   9.803  1.00  0.00    -0.212 F 
HETATM   27  F   UNL     1      44.985 -12.336  10.606  1.00  0.00    -0.212 F 
ENDBRANCH  24  25
ENDBRANCH  23  24
ENDBRANCH  18  23
ENDBRANCH   2  17
TORSDOF 6
ENDMDL
MODEL 5
REMARK VINA RESULT:      -6.8      2.469      5.606
REMARK  6 active torsions:
REMARK  status: ('A' for Active; 'I' for Inactive)
REMARK    1  A    between atoms: C_2  and  N_3 
REMARK    2  A    between atoms: C_2  and  C_17 
REMARK       I    between atoms: N_3  and  C_4 
REMARK    3  A    between atoms: C_4  and  C_5 
REMARK    4  A    between atoms: C_6  and  O_7 
REMARK    5  A    between atoms: O_7  and  C_8 
REMARK    6  A    between atoms: C_8  and  C_9 
ROOT
HETATM    1  N   UNL     1      41.993 -15.944   3.634  1.00  0.00    -0.346 N 
HETATM    2  C   UNL     1      41.866 -17.249   4.030  1.00  0.00     0.256 C 
HETATM    3  O   UNL     1      40.955 -17.574   4.786  1.00  0.00    -0.267 OA
HETATM    4  H   UNL     1      41.248 -15.365   3.998  1.00  0.00     0.163 HD
ENDROOT
BRANCH   1   5
HETATM    5  C   UNL     1      42.934 -15.354   2.691  1.00  0.00     0.150 C 
HETATM    6  C   UNL     1      43.625 -14.143   3.308  1.00  0.00     0.040 C 
BRANCH   5   7
HETATM    7  C   UNL     1      42.173 -15.015   1.442  1.00  0.00     0.127 A 
HETATM    8  N   UNL     1      41.534 -13.885   1.195  1.00  0.00    -0.231 NA
HETATM    9  C   UNL     1      41.038 -14.006  -0.081  1.00  0.00     0.085 A 
HETATM   10  C   UNL     1      41.372 -15.238  -0.628  1.00  0.00     0.062 A 
HETATM   11  C   UNL     1      40.292 -13.099  -0.847  1.00  0.00     0.034 A 
HETATM   12  N   UNL     1      42.094 -15.859   0.358  1.00  0.00    -0.341 N 
HETATM   13  C   UNL     1      41.002 -15.635  -1.914  1.00  0.00     0.032 A 
HETATM   14  H   UNL     1      42.511 -16.776   0.288  1.00  0.00     0.167 HD
HETATM   15  C   UNL     1      40.259 -14.718  -2.663  1.00  0.00     0.002 A 
HETATM   16  C   UNL     1      39.908 -13.469  -2.143  1.00  0.00     0.002 A 
ENDBRANCH   5   7
ENDBRANCH   1   5
BRANCH   2  17
HETATM   17  C   UNL     1      42.818 -18.264   3.560  1.00  0.00     0.084 A 
HETATM   18  C   UNL     1      43.945 -18.571   4.313  1.00  0.00     0.180 A 
HETATM   19  N   UNL     1      44.854 -19.507   3.943  1.00  0.00    -0.236 NA
HETATM   20  C   UNL     1      44.598 -20.187   2.802  1.00  0.00     0.119 A 
HETATM   21  C   UNL     1      43.482 -19.971   2.006  1.00  0.00     0.020 A 
HETATM   22  C   UNL     1      42.571 -18.994   2.397  1.00  0.00     0.023 A 
BRANCH  18  23
HETATM   23  O   UNL     1      44.214 -17.825   5.440  1.00  0.00    -0.328 OA
BRANCH  23  24
HETATM   24  C   UNL     1      44.863 -18.571   6.478  1.00  0.00     0.248 C 
BRANCH  24  25
HETATM   25  C   UNL     1      43.907 -18.962   7.592  1.00  0.00     0.377 C 
HETATM   26  F   UNL     1      42.778 -18.205   7.509  1.00  0.00    -0.212 F 
HETATM   27  F   UNL     1      43.507 -20.250   7.416  1.00  0.00    -0.212 F 
ENDBRANCH  24  25
ENDBRANCH  23  24
ENDBRANCH  18  23
ENDBRANCH   2  17
TORSDOF 6
ENDMDL
MODEL 6
REMARK VINA RESULT:      -6.7      5.209      7.603
REMARK  6 active torsions:
REMARK  status: ('A' for Active; 'I' for Inactive)
REMARK    1  A    between atoms: C_2  and  N_3 
REMARK    2  A    between atoms: C_2  and  C_17 
REMARK       I    between atoms: N_3  and  C_4 
REMARK    3  A    between atoms: C_4  and  C_5 
REMARK    4  A    between atoms: C_6  and  O_7 
REMARK    5  A    between atoms: O_7  and  C_8 
REMARK    6  A    between atoms: C_8  and  C_9 
ROOT
HETATM    1  N   UNL     1      41.612 -14.817   0.418  1.00  0.00    -0.346 N 
HETATM    2  C   UNL     1      41.534 -14.253  -0.828  1.00  0.00     0.256 C 
HETATM    3  O   UNL     1      42.357 -13.411  -1.173  1.00  0.00    -0.267 OA
HETATM    4  H   UNL     1      42.418 -14.486   0.932  1.00  0.00     0.163 HD
ENDROOT
BRANCH   1   5
HETATM    5  C   UNL     1      40.805 -15.880   1.001  1.00  0.00     0.150 C 
HETATM    6  C   UNL     1      39.725 -15.298   1.907  1.00  0.00     0.040 C 
BRANCH   5   7
HETATM    7  C   UNL     1      41.733 -16.809   1.727  1.00  0.00     0.127 A 
HETATM    8  N   UNL     1      42.197 -16.655   2.954  1.00  0.00    -0.231 NA
HETATM    9  C   UNL     1      42.958 -17.770   3.211  1.00  0.00     0.085 A 
HETATM   10  C   UNL     1      42.969 -18.625   2.117  1.00  0.00     0.062 A 
HETATM   11  C   UNL     1      43.671 -18.128   4.364  1.00  0.00     0.034 A 
HETATM   12  N   UNL     1      42.183 -17.994   1.188  1.00  0.00    -0.341 N 
HETATM   13  C   UNL     1      43.661 -19.838   2.094  1.00  0.00     0.032 A 
HETATM   14  H   UNL     1      41.960 -18.350   0.271  1.00  0.00     0.167 HD
HETATM   15  C   UNL     1      44.366 -20.178   3.252  1.00  0.00     0.002 A 
HETATM   16  C   UNL     1      44.374 -19.341   4.371  1.00  0.00     0.002 A 
ENDBRANCH   5   7
ENDBRANCH   1   5
BRANCH   2  17
HETATM   17  C   UNL     1      40.465 -14.647  -1.756  1.00  0.00     0.084 A 
HETATM   18  C   UNL     1      39.231 -14.010  -1.715  1.00  0.00     0.180 A 
HETATM   19  N   UNL     1      38.207 -14.315  -2.551  1.00  0.00    -0.236 NA
HETATM   20  C   UNL     1      38.450 -15.261  -3.488  1.00  0.00     0.119 A 
HETATM   21  C   UNL     1      39.660 -15.924  -3.624  1.00  0.00     0.020 A 
HETATM   22  C   UNL     1      40.691 -15.606  -2.744  1.00  0.00     0.023 A 
BRANCH  18  23
HETATM   23  O   UNL     1      38.990 -13.093  -0.715  1.00  0.00    -0.328 OA
BRANCH  23  24
HETATM   24  C   UNL     1      37.656 -12.567  -0.730  1.00  0.00     0.248 C 
BRANCH  24  25
HETATM   25  C   UNL     1      36.924 -12.814   0.578  1.00  0.00     0.377 C 
HETATM   26  F   UNL     1      36.863 -14.153   0.820  1.00  0.00    -0.212 F 
HETATM   27  F   UNL     1      37.638 -12.281   1.606  1.00  0.00    -0.212 F 
ENDBRANCH  24  25
ENDBRANCH  23  24
ENDBRANCH  18  23
ENDBRANCH   2  17
TORSDOF 6
ENDMDL
MODEL 7
REMARK VINA RESULT:      -6.7      3.347      5.036
REMARK  6 active torsions:
REMARK  status: ('A' for Active; 'I' for Inactive)
REMARK    1  A    between atoms: C_2  and  N_3 
REMARK    2  A    between atoms: C_2  and  C_17 
REMARK       I    between atoms: N_3  and  C_4 
REMARK    3  A    between atoms: C_4  and  C_5 
REMARK    4  A    between atoms: C_6  and  O_7 
REMARK    5  A    between atoms: O_7  and  C_8 
REMARK    6  A    between atoms: C_8  and  C_9 
ROOT
HETATM    1  N   UNL     1      43.403 -15.417   4.631  1.00  0.00    -0.346 N 
HETATM    2  C   UNL     1      43.097 -14.589   3.583  1.00  0.00     0.256 C 
HETATM    3  O   UNL     1      43.904 -13.741   3.217  1.00  0.00    -0.267 OA
HETATM    4  H   UNL     1      44.338 -15.254   4.979  1.00  0.00     0.163 HD
ENDROOT
BRANCH   1   5
HETATM    5  C   UNL     1      42.642 -16.534   5.176  1.00  0.00     0.150 C 
HETATM    6  C   UNL     1      42.777 -16.585   6.694  1.00  0.00     0.040 C 
BRANCH   5   7
HETATM    7  C   UNL     1      43.131 -17.785   4.507  1.00  0.00     0.127 A 
HETATM    8  N   UNL     1      43.978 -18.665   5.010  1.00  0.00    -0.231 NA
HETATM    9  C   UNL     1      44.085 -19.663   4.071  1.00  0.00     0.085 A 
HETATM   10  C   UNL     1      43.294 -19.388   2.964  1.00  0.00     0.062 A 
HETATM   11  C   UNL     1      44.839 -20.844   4.095  1.00  0.00     0.034 A 
HETATM   12  N   UNL     1      42.696 -18.192   3.265  1.00  0.00    -0.341 N 
HETATM   13  C   UNL     1      43.204 -20.230   1.853  1.00  0.00     0.032 A 
HETATM   14  H   UNL     1      42.036 -17.703   2.679  1.00  0.00     0.167 HD
HETATM   15  C   UNL     1      43.963 -21.404   1.895  1.00  0.00     0.002 A 
HETATM   16  C   UNL     1      44.768 -21.710   2.995  1.00  0.00     0.002 A 
ENDBRANCH   5   7
ENDBRANCH   1   5
BRANCH   2  17
HETATM   17  C   UNL     1      41.803 -14.706   2.897  1.00  0.00     0.084 A 
HETATM   18  C   UNL     1      40.656 -14.167   3.466  1.00  0.00     0.180 A 
HETATM   19  N   UNL     1      39.434 -14.228   2.879  1.00  0.00    -0.236 NA
HETATM   20  C   UNL     1      39.375 -14.811   1.659  1.00  0.00     0.119 A 
HETATM   21  C   UNL     1      40.473 -15.346   1.002  1.00  0.00     0.020 A 
HETATM   22  C   UNL     1      41.713 -15.286   1.631  1.00  0.00     0.023 A 
BRANCH  18  23
HETATM   23  O   UNL     1      40.732 -13.630   4.733  1.00  0.00    -0.328 OA
BRANCH  23  24
HETATM   24  C   UNL     1      40.519 -12.213   4.768  1.00  0.00     0.248 C 
BRANCH  24  25
HETATM   25  C   UNL     1      39.218 -11.842   5.460  1.00  0.00     0.377 C 
HETATM   26  F   UNL     1      38.286 -11.505   4.525  1.00  0.00    -0.212 F 
HETATM   27  F   UNL     1      38.722 -12.931   6.107  1.00  0.00    -0.212 F 
ENDBRANCH  24  25
ENDBRANCH  23  24
ENDBRANCH  18  23
ENDBRANCH   2  17
TORSDOF 6
ENDMDL
MODEL 8
REMARK VINA RESULT:      -6.6      3.117      5.425
REMARK  6 active torsions:
REMARK  status: ('A' for Active; 'I' for Inactive)
REMARK    1  A    between atoms: C_2  and  N_3 
REMARK    2  A    between atoms: C_2  and  C_17 
REMARK       I    between atoms: N_3  and  C_4 
REMARK    3  A    between atoms: C_4  and  C_5 
REMARK    4  A    between atoms: C_6  and  O_7 
REMARK    5  A    between atoms: O_7  and  C_8 
REMARK    6  A    between atoms: C_8  and  C_9 
ROOT
HETATM    1  N   UNL     1      43.371 -15.238   2.071  1.00  0.00    -0.346 N 
HETATM    2  C   UNL     1      43.306 -14.636   3.300  1.00  0.00     0.256 C 
HETATM    3  O   UNL     1      44.049 -13.696   3.562  1.00  0.00    -0.267 OA
HETATM    4  H   UNL     1      44.039 -14.783   1.464  1.00  0.00     0.163 HD
ENDROOT
BRANCH   1   5
HETATM    5  C   UNL     1      42.542 -16.301   1.521  1.00  0.00     0.150 C 
HETATM    6  C   UNL     1      43.405 -17.470   1.058  1.00  0.00     0.040 C 
BRANCH   5   7
HETATM    7  C   UNL     1      41.723 -15.709   0.411  1.00  0.00     0.127 A 
HETATM    8  N   UNL     1      40.872 -14.705   0.513  1.00  0.00    -0.231 NA
HETATM    9  C   UNL     1      40.404 -14.478  -0.759  1.00  0.00     0.085 A 
HETATM   10  C   UNL     1      40.973 -15.366  -1.662  1.00  0.00     0.062 A 
HETATM   11  C   UNL     1      39.490 -13.523  -1.225  1.00  0.00     0.034 A 
HETATM   12  N   UNL     1      41.809 -16.136  -0.896  1.00  0.00    -0.341 N 
HETATM   13  C   UNL     1      40.683 -15.367  -3.028  1.00  0.00     0.032 A 
HETATM   14  H   UNL     1      42.398 -16.879  -1.239  1.00  0.00     0.167 HD
HETATM   15  C   UNL     1      39.770 -14.408  -3.475  1.00  0.00     0.002 A 
HETATM   16  C   UNL     1      39.181 -13.498  -2.592  1.00  0.00     0.002 A 
ENDBRANCH   5   7
ENDBRANCH   1   5
BRANCH   2  17
HETATM   17  C   UNL     1      42.353 -15.113   4.311  1.00  0.00     0.084 A 
HETATM   18  C   UNL     1      42.661 -16.212   5.104  1.00  0.00     0.180 A 
HETATM   19  N   UNL     1      41.833 -16.694   6.063  1.00  0.00    -0.236 NA
HETATM   20  C   UNL     1      40.676 -16.020   6.263  1.00  0.00     0.119 A 
HETATM   21  C   UNL     1      40.302 -14.895   5.542  1.00  0.00     0.020 A 
HETATM   22  C   UNL     1      41.161 -14.428   4.551  1.00  0.00     0.023 A 
BRANCH  18  23
HETATM   23  O   UNL     1      43.818 -16.915   4.842  1.00  0.00    -0.328 OA
BRANCH  23  24
HETATM   24  C   UNL     1      43.632 -18.336   4.830  1.00  0.00     0.248 C 
BRANCH  24  25
HETATM   25  C   UNL     1      44.744 -19.069   5.561  1.00  0.00     0.377 C 
HETATM   26  F   UNL     1      45.432 -19.847   4.680  1.00  0.00    -0.212 F 
HETATM   27  F   UNL     1      45.641 -18.168   6.044  1.00  0.00    -0.212 F 
ENDBRANCH  24  25
ENDBRANCH  23  24
ENDBRANCH  18  23
ENDBRANCH   2  17
TORSDOF 6
ENDMDL
MODEL 9
REMARK VINA RESULT:      -6.6      3.406      4.538
REMARK  6 active torsions:
REMARK  status: ('A' for Active; 'I' for Inactive)
REMARK    1  A    between atoms: C_2  and  N_3 
REMARK    2  A    between atoms: C_2  and  C_17 
REMARK       I    between atoms: N_3  and  C_4 
REMARK    3  A    between atoms: C_4  and  C_5 
REMARK    4  A    between atoms: C_6  and  O_7 
REMARK    5  A    between atoms: O_7  and  C_8 
REMARK    6  A    between atoms: C_8  and  C_9 
ROOT
HETATM    1  N   UNL     1      43.308 -15.094   3.756  1.00  0.00    -0.346 N 
HETATM    2  C   UNL     1      42.778 -13.844   3.571  1.00  0.00     0.256 C 
HETATM    3  O   UNL     1      43.119 -13.171   2.603  1.00  0.00    -0.267 OA
HETATM    4  H   UNL     1      43.929 -15.355   3.002  1.00  0.00     0.163 HD
ENDROOT
BRANCH   1   5
HETATM    5  C   UNL     1      42.993 -16.088   4.773  1.00  0.00     0.150 C 
HETATM    6  C   UNL     1      43.812 -15.843   6.036  1.00  0.00     0.040 C 
BRANCH   5   7
HETATM    7  C   UNL     1      43.238 -17.443   4.175  1.00  0.00     0.127 A 
HETATM    8  N   UNL     1      42.747 -17.899   3.038  1.00  0.00    -0.231 NA
HETATM    9  C   UNL     1      43.283 -19.154   2.874  1.00  0.00     0.085 A 
HETATM   10  C   UNL     1      44.116 -19.479   3.936  1.00  0.00     0.062 A 
HETATM   11  C   UNL     1      43.108 -20.079   1.836  1.00  0.00     0.034 A 
HETATM   12  N   UNL     1      44.073 -18.376   4.748  1.00  0.00    -0.341 N 
HETATM   13  C   UNL     1      44.800 -20.693   4.036  1.00  0.00     0.032 A 
HETATM   14  H   UNL     1      44.583 -18.264   5.612  1.00  0.00     0.167 HD
HETATM   15  C   UNL     1      44.614 -21.603   2.991  1.00  0.00     0.002 A 
HETATM   16  C   UNL     1      43.784 -21.306   1.907  1.00  0.00     0.002 A 
ENDBRANCH   5   7
ENDBRANCH   1   5
BRANCH   2  17
HETATM   17  C   UNL     1      41.805 -13.301   4.528  1.00  0.00     0.084 A 
HETATM   18  C   UNL     1      40.462 -13.642   4.433  1.00  0.00     0.180 A 
HETATM   19  N   UNL     1      39.515 -13.187   5.292  1.00  0.00    -0.236 NA
HETATM   20  C   UNL     1      39.943 -12.399   6.305  1.00  0.00     0.119 A 
HETATM   21  C   UNL     1      41.267 -12.035   6.497  1.00  0.00     0.020 A 
HETATM   22  C   UNL     1      42.219 -12.501   5.594  1.00  0.00     0.023 A 
BRANCH  18  23
HETATM   23  O   UNL     1      40.043 -14.397   3.359  1.00  0.00    -0.328 OA
BRANCH  23  24
HETATM   24  C   UNL     1      39.307 -13.646   2.384  1.00  0.00     0.248 C 
BRANCH  24  25
HETATM   25  C   UNL     1      38.936 -14.483   1.171  1.00  0.00     0.377 C 
HETATM   26  F   UNL     1      39.695 -15.614   1.149  1.00  0.00    -0.212 F 
HETATM   27  F   UNL     1      37.647 -14.900   1.285  1.00  0.00    -0.212 F 
ENDBRANCH  24  25
ENDBRANCH  23  24
ENDBRANCH  18  23
ENDBRANCH   2  17
TORSDOF 6
ENDMDL
MODEL 10
REMARK VINA RESULT:      -6.5      3.345      4.474
REMARK  6 active torsions:
REMARK  status: ('A' for Active; 'I' for Inactive)
REMARK    1  A    between atoms: C_2  and  N_3 
REMARK    2  A    between atoms: C_2  and  C_17 
REMARK       I    between atoms: N_3  and  C_4 
REMARK    3  A    between atoms: C_4  and  C_5 
REMARK    4  A    between atoms: C_6  and  O_7 
REMARK    5  A    between atoms: O_7  and  C_8 
REMARK    6  A    between atoms: C_8  and  C_9 
ROOT
HETATM    1  N   UNL     1      43.115 -15.355   5.744  1.00  0.00    -0.346 N 
HETATM    2  C   UNL     1      43.525 -14.139   5.266  1.00  0.00     0.256 C 
HETATM    3  O   UNL     1      44.565 -13.636   5.681  1.00  0.00    -0.267 OA
HETATM    4  H   UNL     1      43.780 -15.747   6.397  1.00  0.00     0.163 HD
ENDROOT
BRANCH   1   5
HETATM    5  C   UNL     1      41.975 -16.167   5.340  1.00  0.00     0.150 C 
HETATM    6  C   UNL     1      41.138 -16.558   6.554  1.00  0.00     0.040 C 
BRANCH   5   7
HETATM    7  C   UNL     1      42.506 -17.356   4.594  1.00  0.00     0.127 A 
HETATM    8  N   UNL     1      42.156 -17.741   3.380  1.00  0.00    -0.231 NA
HETATM    9  C   UNL     1      42.937 -18.836   3.094  1.00  0.00     0.085 A 
HETATM   10  C   UNL     1      43.779 -19.135   4.156  1.00  0.00     0.062 A 
HETATM   11  C   UNL     1      42.987 -19.628   1.939  1.00  0.00     0.034 A 
HETATM   12  N   UNL     1      43.488 -18.180   5.096  1.00  0.00    -0.341 N 
HETATM   13  C   UNL     1      44.686 -20.197   4.145  1.00  0.00     0.032 A 
HETATM   14  H   UNL     1      43.934 -18.091   5.997  1.00  0.00     0.167 HD
HETATM   15  C   UNL     1      44.722 -20.977   2.985  1.00  0.00     0.002 A 
HETATM   16  C   UNL     1      43.890 -20.701   1.897  1.00  0.00     0.002 A 
ENDBRANCH   5   7
ENDBRANCH   1   5
BRANCH   2  17
HETATM   17  C   UNL     1      42.725 -13.428   4.260  1.00  0.00     0.084 A 
HETATM   18  C   UNL     1      41.747 -12.522   4.653  1.00  0.00     0.180 A 
HETATM   19  N   UNL     1      40.984 -11.823   3.776  1.00  0.00    -0.236 NA
HETATM   20  C   UNL     1      41.245 -12.008   2.461  1.00  0.00     0.119 A 
HETATM   21  C   UNL     1      42.223 -12.865   1.979  1.00  0.00     0.020 A 
HETATM   22  C   UNL     1      42.983 -13.584   2.897  1.00  0.00     0.023 A 
BRANCH  18  23
HETATM   23  O   UNL     1      41.461 -12.395   5.995  1.00  0.00    -0.328 OA
BRANCH  23  24
HETATM   24  C   UNL     1      40.112 -12.746   6.328  1.00  0.00     0.248 C 
BRANCH  24  25
HETATM   25  C   UNL     1      39.498 -11.788   7.335  1.00  0.00     0.377 C 
HETATM   26  F   UNL     1      38.915 -12.497   8.340  1.00  0.00    -0.212 F 
HETATM   27  F   UNL     1      40.481 -11.051   7.918  1.00  0.00    -0.212 F 
ENDBRANCH  24  25
ENDBRANCH  23  24
ENDBRANCH  18  23
ENDBRANCH   2  17
TORSDOF 6
ENDMDL
