MODEL 1
REMARK VINA RESULT:      -9.8      0.000      0.000
REMARK  6 active torsions:
REMARK  status: ('A' for Active; 'I' for Inactive)
REMARK    1  A    between atoms: O_2  and  C_3 
REMARK    2  A    between atoms: C_5  and  N_6 
REMARK    3  A    between atoms: C_8  and  C_9 
REMARK    4  A    between atoms: C_9  and  N_10 
REMARK       I    between atoms: N_10  and  C_11 
REMARK       I    between atoms: C_11  and  N_12 
REMARK    5  A    between atoms: N_12  and  C_13 
REMARK    6  A    between atoms: C_13  and  C_14 
ROOT
HETATM    1  N   UNL     1      44.527 -14.062   7.568  1.00  0.00    -0.343 N 
HETATM    2  C   UNL     1      44.107 -14.386   6.305  1.00  0.00     0.316 C 
HETATM    3  N   UNL     1      43.351 -15.525   6.305  1.00  0.00    -0.339 N 
HETATM    4  O   UNL     1      44.391 -13.743   5.304  1.00  0.00    -0.248 OA
HETATM    5  H   UNL     1      44.472 -14.789   8.265  1.00  0.00     0.164 HD
HETATM    6  H   UNL     1      42.903 -15.784   7.170  1.00  0.00     0.164 HD
ENDROOT
BRANCH   1   7
HETATM    7  C   UNL     1      45.436 -12.957   7.816  1.00  0.00     0.130 C 
BRANCH   7   8
HETATM    8  C   UNL     1      45.302 -12.415   9.234  1.00  0.00     0.023 C 
HETATM    9  C   UNL     1      43.848 -12.120   9.617  1.00  0.00     0.129 C 
HETATM   10  N   UNL     1      43.962 -11.132  10.689  1.00  0.00    -0.380 N 
HETATM   11  C   UNL     1      45.319 -10.592  10.767  1.00  0.00     0.123 C 
HETATM   12  C   UNL     1      45.978 -11.068   9.475  1.00  0.00     0.028 C 
BRANCH  10  13
HETATM   13  C   UNL     1      42.988 -10.901  11.635  1.00  0.00     0.032 A 
HETATM   14  C   UNL     1      43.302 -10.423  12.922  1.00  0.00     0.066 A 
HETATM   15  C   UNL     1      42.315 -10.174  13.886  1.00  0.00     0.070 A 
HETATM   16  C   UNL     1      40.979 -10.402  13.570  1.00  0.00     0.037 A 
HETATM   17  C   UNL     1      40.633 -10.889  12.316  1.00  0.00     0.005 A 
HETATM   18  C   UNL     1      41.629 -11.140  11.368  1.00  0.00     0.029 A 
BRANCH  15  19
HETATM   19  O   UNL     1      42.527  -9.709  15.155  1.00  0.00    -0.356 OA
HETATM   20  C   UNL     1      41.377  -9.485  15.960  1.00  0.00     0.210 C 
ENDBRANCH  15  19
ENDBRANCH  10  13
ENDBRANCH   7   8
ENDBRANCH   1   7
BRANCH   3  21
HETATM   21  C   UNL     1      42.771 -16.050   5.088  1.00  0.00     0.162 C 
BRANCH  21  22
HETATM   22  C   UNL     1      43.332 -17.409   4.751  1.00  0.00    -0.040 A 
HETATM   23  C   UNL     1      43.001 -18.040   3.543  1.00  0.00     0.021 A 
HETATM   24  C   UNL     1      43.499 -19.316   3.224  1.00  0.00    -0.025 A 
HETATM   25  C   UNL     1      44.353 -19.973   4.138  1.00  0.00    -0.026 A 
HETATM   26  C   UNL     1      43.162 -19.955   2.020  1.00  0.00     0.012 A 
HETATM   27  C   UNL     1      44.681 -19.340   5.347  1.00  0.00     0.013 A 
HETATM   28  C   UNL     1      44.848 -21.248   3.822  1.00  0.00     0.012 A 
HETATM   29  C   UNL     1      44.172 -18.076   5.652  1.00  0.00     0.010 A 
HETATM   30  C   UNL     1      44.503 -21.869   2.620  1.00  0.00     0.001 A 
HETATM   31  C   UNL     1      43.660 -21.224   1.720  1.00  0.00     0.001 A 
ENDBRANCH  21  22
ENDBRANCH   3  21
TORSDOF 6
ENDMDL
MODEL 2
REMARK VINA RESULT:      -9.7      1.219      1.868
REMARK  6 active torsions:
REMARK  status: ('A' for Active; 'I' for Inactive)
REMARK    1  A    between atoms: O_2  and  C_3 
REMARK    2  A    between atoms: C_5  and  N_6 
REMARK    3  A    between atoms: C_8  and  C_9 
REMARK    4  A    between atoms: C_9  and  N_10 
REMARK       I    between atoms: N_10  and  C_11 
REMARK       I    between atoms: C_11  and  N_12 
REMARK    5  A    between atoms: N_12  and  C_13 
REMARK    6  A    between atoms: C_13  and  C_14 
ROOT
HETATM    1  N   UNL     1      43.863 -14.373   6.952  1.00  0.00    -0.343 N 
HETATM    2  C   UNL     1      43.261 -14.585   5.740  1.00  0.00     0.316 C 
HETATM    3  N   UNL     1      42.204 -15.445   5.848  1.00  0.00    -0.339 N 
HETATM    4  O   UNL     1      43.637 -14.080   4.691  1.00  0.00    -0.248 OA
HETATM    5  H   UNL     1      43.653 -15.034   7.684  1.00  0.00     0.164 HD
HETATM    6  H   UNL     1      41.773 -15.539   6.755  1.00  0.00     0.164 HD
ENDROOT
BRANCH   1   7
HETATM    7  C   UNL     1      45.076 -13.585   7.080  1.00  0.00     0.130 C 
BRANCH   7   8
HETATM    8  C   UNL     1      45.159 -12.881   8.429  1.00  0.00     0.023 C 
HETATM    9  C   UNL     1      43.917 -12.034   8.729  1.00  0.00     0.129 C 
HETATM   10  N   UNL     1      44.393 -11.046   9.697  1.00  0.00    -0.380 N 
HETATM   11  C   UNL     1      45.854 -11.036   9.766  1.00  0.00     0.123 C 
HETATM   12  C   UNL     1      46.284 -11.858   8.553  1.00  0.00     0.028 C 
BRANCH  10  13
HETATM   13  C   UNL     1      43.578 -10.373  10.579  1.00  0.00     0.032 A 
HETATM   14  C   UNL     1      43.919 -10.222  11.937  1.00  0.00     0.066 A 
HETATM   15  C   UNL     1      43.100  -9.528  12.839  1.00  0.00     0.070 A 
HETATM   16  C   UNL     1      41.911  -8.965  12.387  1.00  0.00     0.037 A 
HETATM   17  C   UNL     1      41.533  -9.108  11.058  1.00  0.00     0.005 A 
HETATM   18  C   UNL     1      42.357  -9.810  10.173  1.00  0.00     0.029 A 
BRANCH  15  19
HETATM   19  O   UNL     1      43.353  -9.331  14.170  1.00  0.00    -0.356 OA
HETATM   20  C   UNL     1      42.294  -9.613  15.075  1.00  0.00     0.210 C 
ENDBRANCH  15  19
ENDBRANCH  10  13
ENDBRANCH   7   8
ENDBRANCH   1   7
BRANCH   3  21
HETATM   21  C   UNL     1      41.394 -15.801   4.703  1.00  0.00     0.162 C 
BRANCH  21  22
HETATM   22  C   UNL     1      41.975 -16.977   3.960  1.00  0.00    -0.040 A 
HETATM   23  C   UNL     1      42.861 -17.858   4.598  1.00  0.00     0.021 A 
HETATM   24  C   UNL     1      43.428 -18.947   3.912  1.00  0.00    -0.025 A 
HETATM   25  C   UNL     1      43.094 -19.160   2.555  1.00  0.00    -0.026 A 
HETATM   26  C   UNL     1      44.323 -19.827   4.543  1.00  0.00     0.012 A 
HETATM   27  C   UNL     1      42.208 -18.276   1.921  1.00  0.00     0.013 A 
HETATM   28  C   UNL     1      43.661 -20.246   1.870  1.00  0.00     0.012 A 
HETATM   29  C   UNL     1      41.660 -17.194   2.613  1.00  0.00     0.010 A 
HETATM   30  C   UNL     1      44.549 -21.110   2.512  1.00  0.00     0.001 A 
HETATM   31  C   UNL     1      44.881 -20.900   3.848  1.00  0.00     0.001 A 
ENDBRANCH  21  22
ENDBRANCH   3  21
TORSDOF 6
ENDMDL
MODEL 3
REMARK VINA RESULT:      -9.5      2.982     11.264
REMARK  6 active torsions:
REMARK  status: ('A' for Active; 'I' for Inactive)
REMARK    1  A    between atoms: O_2  and  C_3 
REMARK    2  A    between atoms: C_5  and  N_6 
REMARK    3  A    between atoms: C_8  and  C_9 
REMARK    4  A    between atoms: C_9  and  N_10 
REMARK       I    between atoms: N_10  and  C_11 
REMARK       I    between atoms: C_11  and  N_12 
REMARK    5  A    between atoms: N_12  and  C_13 
REMARK    6  A    between atoms: C_13  and  C_14 
ROOT
HETATM    1  N   UNL     1      39.727 -13.833   6.331  1.00  0.00    -0.343 N 
HETATM    2  C   UNL     1      39.399 -12.587   6.795  1.00  0.00     0.316 C 
HETATM    3  N   UNL     1      39.354 -12.556   8.161  1.00  0.00    -0.339 N 
HETATM    4  O   UNL     1      39.158 -11.629   6.073  1.00  0.00    -0.248 OA
HETATM    5  H   UNL     1      39.636 -14.598   6.982  1.00  0.00     0.164 HD
HETATM    6  H   UNL     1      39.874 -13.262   8.658  1.00  0.00     0.164 HD
ENDROOT
BRANCH   1   7
HETATM    7  C   UNL     1      39.729 -14.149   4.914  1.00  0.00     0.130 C 
BRANCH   7   8
HETATM    8  C   UNL     1      41.079 -14.685   4.452  1.00  0.00     0.023 C 
HETATM    9  C   UNL     1      41.207 -16.201   4.641  1.00  0.00     0.129 C 
HETATM   10  N   UNL     1      42.651 -16.425   4.703  1.00  0.00    -0.380 N 
HETATM   11  C   UNL     1      43.374 -15.165   4.874  1.00  0.00     0.123 C 
HETATM   12  C   UNL     1      42.281 -14.161   5.233  1.00  0.00     0.028 C 
BRANCH  10  13
HETATM   13  C   UNL     1      43.259 -17.628   4.420  1.00  0.00     0.032 A 
HETATM   14  C   UNL     1      43.003 -18.326   3.224  1.00  0.00     0.066 A 
HETATM   15  C   UNL     1      43.627 -19.545   2.923  1.00  0.00     0.070 A 
HETATM   16  C   UNL     1      44.533 -20.090   3.828  1.00  0.00     0.037 A 
HETATM   17  C   UNL     1      44.799 -19.437   5.026  1.00  0.00     0.005 A 
HETATM   18  C   UNL     1      44.162 -18.227   5.315  1.00  0.00     0.029 A 
BRANCH  15  19
HETATM   19  O   UNL     1      43.440 -20.288   1.789  1.00  0.00    -0.356 OA
HETATM   20  C   UNL     1      43.867 -21.643   1.829  1.00  0.00     0.210 C 
ENDBRANCH  15  19
ENDBRANCH  10  13
ENDBRANCH   7   8
ENDBRANCH   1   7
BRANCH   3  21
HETATM   21  C   UNL     1      39.054 -11.338   8.883  1.00  0.00     0.162 C 
BRANCH  21  22
HETATM   22  C   UNL     1      40.217 -10.904   9.739  1.00  0.00    -0.040 A 
HETATM   23  C   UNL     1      40.151 -11.000  11.137  1.00  0.00     0.021 A 
HETATM   24  C   UNL     1      41.218 -10.579  11.950  1.00  0.00    -0.025 A 
HETATM   25  C   UNL     1      42.382 -10.053  11.345  1.00  0.00    -0.026 A 
HETATM   26  C   UNL     1      41.152 -10.665  13.351  1.00  0.00     0.012 A 
HETATM   27  C   UNL     1      42.444  -9.957   9.946  1.00  0.00     0.013 A 
HETATM   28  C   UNL     1      43.447  -9.630  12.157  1.00  0.00     0.012 A 
HETATM   29  C   UNL     1      41.373 -10.372   9.154  1.00  0.00     0.010 A 
HETATM   30  C   UNL     1      43.365  -9.722  13.547  1.00  0.00     0.001 A 
HETATM   31  C   UNL     1      42.218 -10.238  14.144  1.00  0.00     0.001 A 
ENDBRANCH  21  22
ENDBRANCH   3  21
TORSDOF 6
ENDMDL
MODEL 4
REMARK VINA RESULT:      -9.4      2.723     11.241
REMARK  6 active torsions:
REMARK  status: ('A' for Active; 'I' for Inactive)
REMARK    1  A    between atoms: O_2  and  C_3 
REMARK    2  A    between atoms: C_5  and  N_6 
REMARK    3  A    between atoms: C_8  and  C_9 
REMARK    4  A    between atoms: C_9  and  N_10 
REMARK       I    between atoms: N_10  and  C_11 
REMARK       I    between atoms: C_11  and  N_12 
REMARK    5  A    between atoms: N_12  and  C_13 
REMARK    6  A    between atoms: C_13  and  C_14 
ROOT
HETATM    1  N   UNL     1      42.402 -14.499   5.414  1.00  0.00    -0.343 N 
HETATM    2  C   UNL     1      43.590 -13.919   5.773  1.00  0.00     0.316 C 
HETATM    3  N   UNL     1      43.741 -13.886   7.132  1.00  0.00    -0.339 N 
HETATM    4  O   UNL     1      44.402 -13.471   4.976  1.00  0.00    -0.248 OA
HETATM    5  H   UNL     1      41.701 -14.581   6.135  1.00  0.00     0.164 HD
HETATM    6  H   UNL     1      43.212 -14.552   7.674  1.00  0.00     0.164 HD
ENDROOT
BRANCH   1   7
HETATM    7  C   UNL     1      41.959 -14.550   4.032  1.00  0.00     0.130 C 
BRANCH   7   8
HETATM    8  C   UNL     1      41.688 -15.978   3.573  1.00  0.00     0.023 C 
HETATM    9  C   UNL     1      42.938 -16.864   3.637  1.00  0.00     0.129 C 
HETATM   10  N   UNL     1      42.659 -17.932   2.677  1.00  0.00    -0.380 N 
HETATM   11  C   UNL     1      41.509 -17.599   1.836  1.00  0.00     0.123 C 
HETATM   12  C   UNL     1      41.271 -16.116   2.111  1.00  0.00     0.028 C 
BRANCH  10  13
HETATM   13  C   UNL     1      43.256 -19.172   2.705  1.00  0.00     0.032 A 
HETATM   14  C   UNL     1      44.093 -19.569   3.767  1.00  0.00     0.066 A 
HETATM   15  C   UNL     1      44.694 -20.834   3.809  1.00  0.00     0.070 A 
HETATM   16  C   UNL     1      44.463 -21.736   2.775  1.00  0.00     0.037 A 
HETATM   17  C   UNL     1      43.656 -21.373   1.703  1.00  0.00     0.005 A 
HETATM   18  C   UNL     1      43.070 -20.105   1.671  1.00  0.00     0.029 A 
BRANCH  15  19
HETATM   19  O   UNL     1      45.516 -21.303   4.798  1.00  0.00    -0.356 OA
HETATM   20  C   UNL     1      45.207 -22.580   5.341  1.00  0.00     0.210 C 
ENDBRANCH  15  19
ENDBRANCH  10  13
ENDBRANCH   7   8
ENDBRANCH   1   7
BRANCH   3  21
HETATM   21  C   UNL     1      44.932 -13.344   7.750  1.00  0.00     0.162 C 
BRANCH  21  22
HETATM   22  C   UNL     1      44.589 -12.371   8.850  1.00  0.00    -0.040 A 
HETATM   23  C   UNL     1      43.434 -11.580   8.770  1.00  0.00     0.021 A 
HETATM   24  C   UNL     1      43.112 -10.653   9.777  1.00  0.00    -0.025 A 
HETATM   25  C   UNL     1      43.968 -10.520  10.894  1.00  0.00    -0.026 A 
HETATM   26  C   UNL     1      41.961  -9.851   9.696  1.00  0.00     0.012 A 
HETATM   27  C   UNL     1      45.124 -11.313  10.969  1.00  0.00     0.013 A 
HETATM   28  C   UNL     1      43.649  -9.593  11.899  1.00  0.00     0.012 A 
HETATM   29  C   UNL     1      45.434 -12.223   9.957  1.00  0.00     0.010 A 
HETATM   30  C   UNL     1      42.501  -8.804  11.802  1.00  0.00     0.001 A 
HETATM   31  C   UNL     1      41.659  -8.932  10.702  1.00  0.00     0.001 A 
ENDBRANCH  21  22
ENDBRANCH   3  21
TORSDOF 6
ENDMDL
MODEL 5
REMARK VINA RESULT:      -9.2      3.277     11.190
REMARK  6 active torsions:
REMARK  status: ('A' for Active; 'I' for Inactive)
REMARK    1  A    between atoms: O_2  and  C_3 
REMARK    2  A    between atoms: C_5  and  N_6 
REMARK    3  A    between atoms: C_8  and  C_9 
REMARK    4  A    between atoms: C_9  and  N_10 
REMARK       I    between atoms: N_10  and  C_11 
REMARK       I    between atoms: C_11  and  N_12 
REMARK    5  A    between atoms: N_12  and  C_13 
REMARK    6  A    between atoms: C_13  and  C_14 
ROOT
HETATM    1  N   UNL     1      39.887 -13.449   5.782  1.00  0.00    -0.343 N 
HETATM    2  C   UNL     1      39.435 -12.355   6.472  1.00  0.00     0.316 C 
HETATM    3  N   UNL     1      39.470 -12.564   7.823  1.00  0.00    -0.339 N 
HETATM    4  O   UNL     1      39.034 -11.328   5.941  1.00  0.00    -0.248 OA
HETATM    5  H   UNL     1      39.932 -14.319   6.290  1.00  0.00     0.164 HD
HETATM    6  H   UNL     1      40.104 -13.269   8.166  1.00  0.00     0.164 HD
ENDROOT
BRANCH   1   7
HETATM    7  C   UNL     1      39.843 -13.515   4.332  1.00  0.00     0.130 C 
BRANCH   7   8
HETATM    8  C   UNL     1      39.976 -14.945   3.822  1.00  0.00     0.023 C 
HETATM    9  C   UNL     1      41.401 -15.491   3.966  1.00  0.00     0.129 C 
HETATM   10  N   UNL     1      41.471 -16.554   2.964  1.00  0.00    -0.380 N 
HETATM   11  C   UNL     1      40.338 -16.486   2.042  1.00  0.00     0.123 C 
HETATM   12  C   UNL     1      39.713 -15.123   2.329  1.00  0.00     0.028 C 
BRANCH  10  13
HETATM   13  C   UNL     1      42.359 -17.606   3.013  1.00  0.00     0.032 A 
HETATM   14  C   UNL     1      43.057 -17.933   4.192  1.00  0.00     0.066 A 
HETATM   15  C   UNL     1      43.953 -19.009   4.253  1.00  0.00     0.070 A 
HETATM   16  C   UNL     1      44.166 -19.786   3.119  1.00  0.00     0.037 A 
HETATM   17  C   UNL     1      43.508 -19.483   1.933  1.00  0.00     0.005 A 
HETATM   18  C   UNL     1      42.624 -18.401   1.886  1.00  0.00     0.029 A 
BRANCH  15  19
HETATM   19  O   UNL     1      44.670 -19.399   5.352  1.00  0.00    -0.356 OA
HETATM   20  C   UNL     1      43.936 -19.654   6.542  1.00  0.00     0.210 C 
ENDBRANCH  15  19
ENDBRANCH  10  13
ENDBRANCH   7   8
ENDBRANCH   1   7
BRANCH   3  21
HETATM   21  C   UNL     1      39.066 -11.539   8.760  1.00  0.00     0.162 C 
BRANCH  21  22
HETATM   22  C   UNL     1      40.230 -11.060   9.590  1.00  0.00    -0.040 A 
HETATM   23  C   UNL     1      40.217 -11.198  10.986  1.00  0.00     0.021 A 
HETATM   24  C   UNL     1      41.286 -10.736  11.775  1.00  0.00    -0.025 A 
HETATM   25  C   UNL     1      42.396 -10.126  11.148  1.00  0.00    -0.026 A 
HETATM   26  C   UNL     1      41.273 -10.863  13.174  1.00  0.00     0.012 A 
HETATM   27  C   UNL     1      42.404  -9.988   9.752  1.00  0.00     0.013 A 
HETATM   28  C   UNL     1      43.462  -9.663  11.936  1.00  0.00     0.012 A 
HETATM   29  C   UNL     1      41.332 -10.444   8.983  1.00  0.00     0.010 A 
HETATM   30  C   UNL     1      43.432  -9.797  13.326  1.00  0.00     0.001 A 
HETATM   31  C   UNL     1      42.339 -10.395  13.944  1.00  0.00     0.001 A 
ENDBRANCH  21  22
ENDBRANCH   3  21
TORSDOF 6
ENDMDL
MODEL 6
REMARK VINA RESULT:      -9.2      2.227      3.172
REMARK  6 active torsions:
REMARK  status: ('A' for Active; 'I' for Inactive)
REMARK    1  A    between atoms: O_2  and  C_3 
REMARK    2  A    between atoms: C_5  and  N_6 
REMARK    3  A    between atoms: C_8  and  C_9 
REMARK    4  A    between atoms: C_9  and  N_10 
REMARK       I    between atoms: N_10  and  C_11 
REMARK       I    between atoms: C_11  and  N_12 
REMARK    5  A    between atoms: N_12  and  C_13 
REMARK    6  A    between atoms: C_13  and  C_14 
ROOT
HETATM    1  N   UNL     1      41.662 -12.733   6.249  1.00  0.00    -0.343 N 
HETATM    2  C   UNL     1      40.850 -13.802   5.974  1.00  0.00     0.316 C 
HETATM    3  N   UNL     1      41.508 -14.989   6.142  1.00  0.00    -0.339 N 
HETATM    4  O   UNL     1      39.688 -13.701   5.606  1.00  0.00    -0.248 OA
HETATM    5  H   UNL     1      42.655 -12.913   6.274  1.00  0.00     0.164 HD
HETATM    6  H   UNL     1      42.314 -14.990   6.747  1.00  0.00     0.164 HD
ENDROOT
BRANCH   1   7
HETATM    7  C   UNL     1      41.229 -11.364   6.036  1.00  0.00     0.130 C 
BRANCH   7   8
HETATM    8  C   UNL     1      40.934 -10.649   7.350  1.00  0.00     0.023 C 
HETATM    9  C   UNL     1      41.958 -10.978   8.442  1.00  0.00     0.129 C 
HETATM   10  N   UNL     1      41.240 -10.707   9.687  1.00  0.00    -0.380 N 
HETATM   11  C   UNL     1      39.807 -10.545   9.445  1.00  0.00     0.123 C 
HETATM   12  C   UNL     1      39.618 -11.042   8.014  1.00  0.00     0.028 C 
BRANCH  10  13
HETATM   13  C   UNL     1      41.854 -10.426  10.888  1.00  0.00     0.032 A 
HETATM   14  C   UNL     1      41.114 -10.215  12.068  1.00  0.00     0.066 A 
HETATM   15  C   UNL     1      41.732  -9.941  13.296  1.00  0.00     0.070 A 
HETATM   16  C   UNL     1      43.120  -9.875  13.363  1.00  0.00     0.037 A 
HETATM   17  C   UNL     1      43.882 -10.061  12.216  1.00  0.00     0.005 A 
HETATM   18  C   UNL     1      43.251 -10.325  10.997  1.00  0.00     0.029 A 
BRANCH  15  19
HETATM   19  O   UNL     1      41.094  -9.726  14.488  1.00  0.00    -0.356 OA
HETATM   20  C   UNL     1      41.913  -9.610  15.644  1.00  0.00     0.210 C 
ENDBRANCH  15  19
ENDBRANCH  10  13
ENDBRANCH   7   8
ENDBRANCH   1   7
BRANCH   3  21
HETATM   21  C   UNL     1      40.846 -16.258   5.936  1.00  0.00     0.162 C 
BRANCH  21  22
HETATM   22  C   UNL     1      41.611 -17.130   4.972  1.00  0.00    -0.040 A 
HETATM   23  C   UNL     1      42.578 -18.033   5.437  1.00  0.00     0.021 A 
HETATM   24  C   UNL     1      43.315 -18.836   4.548  1.00  0.00    -0.025 A 
HETATM   25  C   UNL     1      43.072 -18.734   3.160  1.00  0.00    -0.026 A 
HETATM   26  C   UNL     1      44.291 -19.735   5.009  1.00  0.00     0.012 A 
HETATM   27  C   UNL     1      42.104 -17.828   2.698  1.00  0.00     0.013 A 
HETATM   28  C   UNL     1      43.808 -19.534   2.272  1.00  0.00     0.012 A 
HETATM   29  C   UNL     1      41.387 -17.031   3.593  1.00  0.00     0.010 A 
HETATM   30  C   UNL     1      44.775 -20.422   2.747  1.00  0.00     0.001 A 
HETATM   31  C   UNL     1      45.017 -20.522   4.113  1.00  0.00     0.001 A 
ENDBRANCH  21  22
ENDBRANCH   3  21
TORSDOF 6
ENDMDL
MODEL 7
REMARK VINA RESULT:      -9.1      2.991     11.395
REMARK  6 active torsions:
REMARK  status: ('A' for Active; 'I' for Inactive)
REMARK    1  A    between atoms: O_2  and  C_3 
REMARK    2  A    between atoms: C_5  and  N_6 
REMARK    3  A    between atoms: C_8  and  C_9 
REMARK    4  A    between atoms: C_9  and  N_10 
REMARK       I    between atoms: N_10  and  C_11 
REMARK       I    between atoms: C_11  and  N_12 
REMARK    5  A    between atoms: N_12  and  C_13 
REMARK    6  A    between atoms: C_13  and  C_14 
ROOT
HETATM    1  N   UNL     1      41.165 -13.861   5.918  1.00  0.00    -0.343 N 
HETATM    2  C   UNL     1      40.651 -12.656   6.316  1.00  0.00     0.316 C 
HETATM    3  N   UNL     1      41.580 -11.911   6.987  1.00  0.00    -0.339 N 
HETATM    4  O   UNL     1      39.498 -12.302   6.111  1.00  0.00    -0.248 OA
HETATM    5  H   UNL     1      42.018 -14.161   6.366  1.00  0.00     0.164 HD
HETATM    6  H   UNL     1      42.552 -12.120   6.820  1.00  0.00     0.164 HD
ENDROOT
BRANCH   1   7
HETATM    7  C   UNL     1      40.343 -14.876   5.285  1.00  0.00     0.130 C 
BRANCH   7   8
HETATM    8  C   UNL     1      41.080 -15.583   4.153  1.00  0.00     0.023 C 
HETATM    9  C   UNL     1      41.648 -16.942   4.578  1.00  0.00     0.129 C 
HETATM   10  N   UNL     1      42.737 -17.177   3.631  1.00  0.00    -0.380 N 
HETATM   11  C   UNL     1      43.063 -15.960   2.887  1.00  0.00     0.123 C 
HETATM   12  C   UNL     1      42.324 -14.859   3.645  1.00  0.00     0.028 C 
BRANCH  10  13
HETATM   13  C   UNL     1      43.240 -18.422   3.324  1.00  0.00     0.032 A 
HETATM   14  C   UNL     1      44.127 -19.097   4.186  1.00  0.00     0.066 A 
HETATM   15  C   UNL     1      44.633 -20.370   3.887  1.00  0.00     0.070 A 
HETATM   16  C   UNL     1      44.251 -20.996   2.704  1.00  0.00     0.037 A 
HETATM   17  C   UNL     1      43.391 -20.354   1.822  1.00  0.00     0.005 A 
HETATM   18  C   UNL     1      42.902 -19.081   2.131  1.00  0.00     0.029 A 
BRANCH  15  19
HETATM   19  O   UNL     1      45.493 -21.097   4.663  1.00  0.00    -0.356 OA
HETATM   20  C   UNL     1      45.000 -22.316   5.203  1.00  0.00     0.210 C 
ENDBRANCH  15  19
ENDBRANCH  10  13
ENDBRANCH   7   8
ENDBRANCH   1   7
BRANCH   3  21
HETATM   21  C   UNL     1      41.276 -10.585   7.482  1.00  0.00     0.162 C 
BRANCH  21  22
HETATM   22  C   UNL     1      41.239 -10.554   8.989  1.00  0.00    -0.040 A 
HETATM   23  C   UNL     1      42.365 -10.154   9.724  1.00  0.00     0.021 A 
HETATM   24  C   UNL     1      42.353 -10.141  11.130  1.00  0.00    -0.025 A 
HETATM   25  C   UNL     1      41.181 -10.534  11.815  1.00  0.00    -0.026 A 
HETATM   26  C   UNL     1      43.481  -9.750  11.870  1.00  0.00     0.012 A 
HETATM   27  C   UNL     1      40.057 -10.935  11.077  1.00  0.00     0.013 A 
HETATM   28  C   UNL     1      41.169 -10.523  13.219  1.00  0.00     0.012 A 
HETATM   29  C   UNL     1      40.088 -10.951   9.681  1.00  0.00     0.010 A 
HETATM   30  C   UNL     1      42.300 -10.132  13.939  1.00  0.00     0.001 A 
HETATM   31  C   UNL     1      43.455  -9.747  13.265  1.00  0.00     0.001 A 
ENDBRANCH  21  22
ENDBRANCH   3  21
TORSDOF 6
ENDMDL
MODEL 8
REMARK VINA RESULT:      -9.0      6.223     10.615
REMARK  6 active torsions:
REMARK  status: ('A' for Active; 'I' for Inactive)
REMARK    1  A    between atoms: O_2  and  C_3 
REMARK    2  A    between atoms: C_5  and  N_6 
REMARK    3  A    between atoms: C_8  and  C_9 
REMARK    4  A    between atoms: C_9  and  N_10 
REMARK       I    between atoms: N_10  and  C_11 
REMARK       I    between atoms: C_11  and  N_12 
REMARK    5  A    between atoms: N_12  and  C_13 
REMARK    6  A    between atoms: C_13  and  C_14 
ROOT
HETATM    1  N   UNL     1      40.646 -14.135   3.282  1.00  0.00    -0.343 N 
HETATM    2  C   UNL     1      41.724 -14.287   4.113  1.00  0.00     0.316 C 
HETATM    3  N   UNL     1      42.091 -15.600   4.223  1.00  0.00    -0.339 N 
HETATM    4  O   UNL     1      42.274 -13.364   4.697  1.00  0.00    -0.248 OA
HETATM    5  H   UNL     1      40.111 -14.965   3.076  1.00  0.00     0.164 HD
HETATM    6  H   UNL     1      41.817 -16.222   3.479  1.00  0.00     0.164 HD
ENDROOT
BRANCH   1   7
HETATM    7  C   UNL     1      40.000 -12.849   3.090  1.00  0.00     0.130 C 
BRANCH   7   8
HETATM    8  C   UNL     1      39.386 -12.721   1.701  1.00  0.00     0.023 C 
HETATM    9  C   UNL     1      39.735 -13.905   0.791  1.00  0.00     0.129 C 
HETATM   10  N   UNL     1      39.580 -13.366  -0.560  1.00  0.00    -0.380 N 
HETATM   11  C   UNL     1      39.472 -11.907  -0.536  1.00  0.00     0.123 C 
HETATM   12  C   UNL     1      39.884 -11.531   0.885  1.00  0.00     0.028 C 
BRANCH  10  13
HETATM   13  C   UNL     1      39.348 -14.136  -1.677  1.00  0.00     0.032 A 
HETATM   14  C   UNL     1      38.072 -14.219  -2.269  1.00  0.00     0.066 A 
HETATM   15  C   UNL     1      37.831 -14.991  -3.414  1.00  0.00     0.070 A 
HETATM   16  C   UNL     1      38.878 -15.700  -3.993  1.00  0.00     0.037 A 
HETATM   17  C   UNL     1      40.147 -15.655  -3.427  1.00  0.00     0.005 A 
HETATM   18  C   UNL     1      40.370 -14.888  -2.280  1.00  0.00     0.029 A 
BRANCH  15  19
HETATM   19  O   UNL     1      36.629 -15.127  -4.055  1.00  0.00    -0.356 OA
HETATM   20  C   UNL     1      36.213 -14.047  -4.880  1.00  0.00     0.210 C 
ENDBRANCH  15  19
ENDBRANCH  10  13
ENDBRANCH   7   8
ENDBRANCH   1   7
BRANCH   3  21
HETATM   21  C   UNL     1      43.223 -16.006   5.028  1.00  0.00     0.162 C 
BRANCH  21  22
HETATM   22  C   UNL     1      43.656 -17.414   4.702  1.00  0.00    -0.040 A 
HETATM   23  C   UNL     1      43.263 -18.022   3.500  1.00  0.00     0.021 A 
HETATM   24  C   UNL     1      43.640 -19.341   3.192  1.00  0.00    -0.025 A 
HETATM   25  C   UNL     1      44.434 -20.066   4.109  1.00  0.00    -0.026 A 
HETATM   26  C   UNL     1      43.240 -19.958   1.995  1.00  0.00     0.012 A 
HETATM   27  C   UNL     1      44.824 -19.454   5.311  1.00  0.00     0.013 A 
HETATM   28  C   UNL     1      44.809 -21.383   3.803  1.00  0.00     0.012 A 
HETATM   29  C   UNL     1      44.434 -18.146   5.606  1.00  0.00     0.010 A 
HETATM   30  C   UNL     1      44.403 -21.981   2.609  1.00  0.00     0.001 A 
HETATM   31  C   UNL     1      43.619 -21.270   1.706  1.00  0.00     0.001 A 
ENDBRANCH  21  22
ENDBRANCH   3  21
TORSDOF 6
ENDMDL
MODEL 9
REMARK VINA RESULT:      -8.8      2.067     11.389
REMARK  6 active torsions:
REMARK  status: ('A' for Active; 'I' for Inactive)
REMARK    1  A    between atoms: O_2  and  C_3 
REMARK    2  A    between atoms: C_5  and  N_6 
REMARK    3  A    between atoms: C_8  and  C_9 
REMARK    4  A    between atoms: C_9  and  N_10 
REMARK       I    between atoms: N_10  and  C_11 
REMARK       I    between atoms: C_11  and  N_12 
REMARK    5  A    between atoms: N_12  and  C_13 
REMARK    6  A    between atoms: C_13  and  C_14 
ROOT
HETATM    1  N   UNL     1      43.858 -13.748   7.102  1.00  0.00    -0.343 N 
HETATM    2  C   UNL     1      44.041 -12.563   7.765  1.00  0.00     0.316 C 
HETATM    3  N   UNL     1      45.129 -12.614   8.592  1.00  0.00    -0.339 N 
HETATM    4  O   UNL     1      43.309 -11.591   7.644  1.00  0.00    -0.248 OA
HETATM    5  H   UNL     1      44.340 -14.554   7.472  1.00  0.00     0.164 HD
HETATM    6  H   UNL     1      45.839 -13.298   8.383  1.00  0.00     0.164 HD
ENDROOT
BRANCH   1   7
HETATM    7  C   UNL     1      42.706 -13.982   6.251  1.00  0.00     0.130 C 
BRANCH   7   8
HETATM    8  C   UNL     1      42.347 -15.461   6.170  1.00  0.00     0.023 C 
HETATM    9  C   UNL     1      43.507 -16.321   5.653  1.00  0.00     0.129 C 
HETATM   10  N   UNL     1      42.847 -17.512   5.118  1.00  0.00    -0.380 N 
HETATM   11  C   UNL     1      41.405 -17.305   4.992  1.00  0.00     0.123 C 
HETATM   12  C   UNL     1      41.232 -15.800   5.185  1.00  0.00     0.028 C 
BRANCH  10  13
HETATM   13  C   UNL     1      43.465 -18.732   4.960  1.00  0.00     0.032 A 
HETATM   14  C   UNL     1      43.884 -19.194   3.697  1.00  0.00     0.066 A 
HETATM   15  C   UNL     1      44.525 -20.429   3.529  1.00  0.00     0.070 A 
HETATM   16  C   UNL     1      44.761 -21.232   4.641  1.00  0.00     0.037 A 
HETATM   17  C   UNL     1      44.347 -20.817   5.901  1.00  0.00     0.005 A 
HETATM   18  C   UNL     1      43.702 -19.586   6.050  1.00  0.00     0.029 A 
BRANCH  15  19
HETATM   19  O   UNL     1      44.965 -20.955   2.345  1.00  0.00    -0.356 OA
HETATM   20  C   UNL     1      44.114 -21.893   1.700  1.00  0.00     0.210 C 
ENDBRANCH  15  19
ENDBRANCH  10  13
ENDBRANCH   7   8
ENDBRANCH   1   7
BRANCH   3  21
HETATM   21  C   UNL     1      45.539 -11.470   9.377  1.00  0.00     0.162 C 
BRANCH  21  22
HETATM   22  C   UNL     1      44.636 -11.265  10.567  1.00  0.00    -0.040 A 
HETATM   23  C   UNL     1      44.208  -9.978  10.926  1.00  0.00     0.021 A 
HETATM   24  C   UNL     1      43.383  -9.769  12.046  1.00  0.00    -0.025 A 
HETATM   25  C   UNL     1      42.974 -10.877  12.821  1.00  0.00    -0.026 A 
HETATM   26  C   UNL     1      42.961  -8.481  12.415  1.00  0.00     0.012 A 
HETATM   27  C   UNL     1      43.405 -12.163  12.459  1.00  0.00     0.013 A 
HETATM   28  C   UNL     1      42.153 -10.669  13.940  1.00  0.00     0.012 A 
HETATM   29  C   UNL     1      44.231 -12.354  11.349  1.00  0.00     0.010 A 
HETATM   30  C   UNL     1      41.742  -9.382  14.293  1.00  0.00     0.001 A 
HETATM   31  C   UNL     1      42.146  -8.289  13.532  1.00  0.00     0.001 A 
ENDBRANCH  21  22
ENDBRANCH   3  21
TORSDOF 6
ENDMDL
MODEL 10
REMARK VINA RESULT:      -8.7      5.223      8.920
REMARK  6 active torsions:
REMARK  status: ('A' for Active; 'I' for Inactive)
REMARK    1  A    between atoms: O_2  and  C_3 
REMARK    2  A    between atoms: C_5  and  N_6 
REMARK    3  A    between atoms: C_8  and  C_9 
REMARK    4  A    between atoms: C_9  and  N_10 
REMARK       I    between atoms: N_10  and  C_11 
REMARK       I    between atoms: C_11  and  N_12 
REMARK    5  A    between atoms: N_12  and  C_13 
REMARK    6  A    between atoms: C_13  and  C_14 
ROOT
HETATM    1  N   UNL     1      41.209 -14.554   6.079  1.00  0.00    -0.343 N 
HETATM    2  C   UNL     1      42.501 -14.944   5.846  1.00  0.00     0.316 C 
HETATM    3  N   UNL     1      42.722 -16.226   6.270  1.00  0.00    -0.339 N 
HETATM    4  O   UNL     1      43.352 -14.226   5.341  1.00  0.00    -0.248 OA
HETATM    5  H   UNL     1      40.678 -15.109   6.733  1.00  0.00     0.164 HD
HETATM    6  H   UNL     1      41.921 -16.831   6.354  1.00  0.00     0.164 HD
ENDROOT
BRANCH   1   7
HETATM    7  C   UNL     1      40.756 -13.199   5.819  1.00  0.00     0.130 C 
BRANCH   7   8
HETATM    8  C   UNL     1      39.776 -13.138   4.655  1.00  0.00     0.023 C 
HETATM    9  C   UNL     1      40.441 -13.446   3.308  1.00  0.00     0.129 C 
HETATM   10  N   UNL     1      39.562 -12.806   2.330  1.00  0.00    -0.380 N 
HETATM   11  C   UNL     1      38.617 -11.899   2.982  1.00  0.00     0.123 C 
HETATM   12  C   UNL     1      39.160 -11.765   4.403  1.00  0.00     0.028 C 
BRANCH  10  13
HETATM   13  C   UNL     1      39.486 -13.169   1.004  1.00  0.00     0.032 A 
HETATM   14  C   UNL     1      40.335 -14.150   0.454  1.00  0.00     0.066 A 
HETATM   15  C   UNL     1      40.256 -14.535  -0.892  1.00  0.00     0.070 A 
HETATM   16  C   UNL     1      39.311 -13.936  -1.719  1.00  0.00     0.037 A 
HETATM   17  C   UNL     1      38.468 -12.953  -1.216  1.00  0.00     0.005 A 
HETATM   18  C   UNL     1      38.565 -12.574   0.126  1.00  0.00     0.029 A 
BRANCH  15  19
HETATM   19  O   UNL     1      41.035 -15.476  -1.507  1.00  0.00    -0.356 OA
HETATM   20  C   UNL     1      40.900 -15.603  -2.917  1.00  0.00     0.210 C 
ENDBRANCH  15  19
ENDBRANCH  10  13
ENDBRANCH   7   8
ENDBRANCH   1   7
BRANCH   3  21
HETATM   21  C   UNL     1      44.009 -16.867   6.105  1.00  0.00     0.162 C 
BRANCH  21  22
HETATM   22  C   UNL     1      43.973 -17.903   5.009  1.00  0.00    -0.040 A 
HETATM   23  C   UNL     1      44.347 -19.229   5.267  1.00  0.00     0.021 A 
HETATM   24  C   UNL     1      44.340 -20.201   4.251  1.00  0.00    -0.025 A 
HETATM   25  C   UNL     1      43.943 -19.834   2.945  1.00  0.00    -0.026 A 
HETATM   26  C   UNL     1      44.724 -21.529   4.502  1.00  0.00     0.012 A 
HETATM   27  C   UNL     1      43.571 -18.505   2.691  1.00  0.00     0.013 A 
HETATM   28  C   UNL     1      43.938 -20.803   1.930  1.00  0.00     0.012 A 
HETATM   29  C   UNL     1      43.591 -17.550   3.709  1.00  0.00     0.010 A 
HETATM   30  C   UNL     1      44.323 -22.118   2.197  1.00  0.00     0.001 A 
HETATM   31  C   UNL     1      44.716 -22.481   3.481  1.00  0.00     0.001 A 
ENDBRANCH  21  22
ENDBRANCH   3  21
TORSDOF 6
ENDMDL
