MODEL 1
REMARK VINA RESULT:     -10.0      0.000      0.000
REMARK  4 active torsions:
REMARK  status: ('A' for Active; 'I' for Inactive)
REMARK    1  A    between atoms: C_2  and  N_3 
REMARK    2  A    between atoms: C_10  and  C_11 
REMARK    3  A    between atoms: C_11  and  C_12 
REMARK       I    between atoms: C_12  and  N_13 
REMARK    4  A    between atoms: N_13  and  C_14 
ROOT
HETATM    1  C   UNL     1      44.225 -14.901   6.706  1.00  0.00     0.035 A 
HETATM    2  C   UNL     1      44.722 -14.017   7.664  1.00  0.00     0.049 A 
HETATM    3  C   UNL     1      44.095 -12.778   7.917  1.00  0.00     0.061 A 
HETATM    4  C   UNL     1      42.950 -12.419   7.195  1.00  0.00     0.050 A 
HETATM    5  N   UNL     1      42.157 -11.279   7.412  1.00  0.00    -0.324 N 
HETATM    6  C   UNL     1      41.919 -10.622   8.590  1.00  0.00     0.245 C 
HETATM    7  O   UNL     1      41.027  -9.770   8.607  1.00  0.00    -0.271 OA
HETATM    8  C   UNL     1      42.617 -11.117   9.856  1.00  0.00     0.180 C 
HETATM    9  N   UNL     1      44.061 -11.069   9.692  1.00  0.00    -0.334 N 
HETATM   10  C   UNL     1      44.800 -11.882   8.870  1.00  0.00     0.256 C 
HETATM   11  O   UNL     1      46.028 -11.900   8.903  1.00  0.00    -0.267 OA
HETATM   12  C   UNL     1      42.340 -10.224  11.072  1.00  0.00     0.037 C 
HETATM   13  C   UNL     1      43.654 -10.252  11.843  1.00  0.00     0.022 C 
HETATM   14  C   UNL     1      44.690 -10.277  10.734  1.00  0.00     0.127 C 
HETATM   15  C   UNL     1      42.520 -13.262   6.161  1.00  0.00     0.033 A 
HETATM   16  C   UNL     1      43.140 -14.494   5.928  1.00  0.00     0.032 A 
HETATM   17  H   UNL     1      41.492 -11.011   6.693  1.00  0.00     0.169 HD
ENDROOT
BRANCH   1  18
HETATM   18  N   UNL     1      44.704 -16.214   6.512  1.00  0.00    -0.327 N 
HETATM   19  C   UNL     1      44.086 -17.395   6.888  1.00  0.00     0.226 C 
HETATM   20  O   UNL     1      43.132 -17.489   7.657  1.00  0.00    -0.273 OA
HETATM   21  H   UNL     1      45.580 -16.308   6.009  1.00  0.00     0.169 HD
BRANCH  19  22
HETATM   22  C   UNL     1      44.575 -18.622   6.134  1.00  0.00     0.144 C 
BRANCH  22  23
HETATM   23  C   UNL     1      43.928 -18.857   4.808  1.00  0.00    -0.021 A 
HETATM   24  C   UNL     1      44.075 -20.002   3.963  1.00  0.00    -0.001 A 
HETATM   25  C   UNL     1      43.368 -19.752   2.782  1.00  0.00     0.045 A 
HETATM   26  C   UNL     1      44.767 -21.226   4.095  1.00  0.00     0.014 A 
HETATM   27  N   UNL     1      42.832 -18.483   2.892  1.00  0.00    -0.351 N 
HETATM   28  C   UNL     1      43.320 -20.694   1.739  1.00  0.00     0.030 A 
HETATM   29  C   UNL     1      43.124 -17.963   4.130  1.00  0.00     0.100 A 
HETATM   30  C   UNL     1      44.005 -21.901   1.900  1.00  0.00     0.002 A 
HETATM   31  C   UNL     1      44.722 -22.165   3.061  1.00  0.00     0.001 A 
BRANCH  27  32
HETATM   32  C   UNL     1      42.116 -17.756   1.841  1.00  0.00     0.081 C 
HETATM   33  C   UNL     1      43.069 -16.928   0.974  1.00  0.00     0.032 C 
HETATM   34  C   UNL     1      40.993 -16.895   2.417  1.00  0.00     0.032 C 
ENDBRANCH  27  32
ENDBRANCH  22  23
ENDBRANCH  19  22
ENDBRANCH   1  18
TORSDOF 4
ENDMDL
MODEL 2
REMARK VINA RESULT:      -9.9      3.518      4.969
REMARK  4 active torsions:
REMARK  status: ('A' for Active; 'I' for Inactive)
REMARK    1  A    between atoms: C_2  and  N_3 
REMARK    2  A    between atoms: C_10  and  C_11 
REMARK    3  A    between atoms: C_11  and  C_12 
REMARK       I    between atoms: C_12  and  N_13 
REMARK    4  A    between atoms: N_13  and  C_14 
ROOT
HETATM    1  C   UNL     1      40.833 -15.441   3.816  1.00  0.00     0.035 A 
HETATM    2  C   UNL     1      40.275 -14.204   3.490  1.00  0.00     0.049 A 
HETATM    3  C   UNL     1      39.774 -13.338   4.485  1.00  0.00     0.061 A 
HETATM    4  C   UNL     1      39.833 -13.719   5.832  1.00  0.00     0.050 A 
HETATM    5  N   UNL     1      39.481 -12.922   6.935  1.00  0.00    -0.324 N 
HETATM    6  C   UNL     1      39.570 -11.562   7.062  1.00  0.00     0.245 C 
HETATM    7  O   UNL     1      39.411 -11.074   8.184  1.00  0.00    -0.271 OA
HETATM    8  C   UNL     1      40.063 -10.747   5.867  1.00  0.00     0.180 C 
HETATM    9  N   UNL     1      39.194 -10.954   4.719  1.00  0.00    -0.334 N 
HETATM   10  C   UNL     1      39.095 -12.113   3.990  1.00  0.00     0.256 C 
HETATM   11  O   UNL     1      38.467 -12.168   2.935  1.00  0.00    -0.267 OA
HETATM   12  C   UNL     1      40.009  -9.235   6.118  1.00  0.00     0.037 C 
HETATM   13  C   UNL     1      39.631  -8.658   4.760  1.00  0.00     0.022 C 
HETATM   14  C   UNL     1      38.668  -9.698   4.215  1.00  0.00     0.127 C 
HETATM   15  C   UNL     1      40.296 -15.006   6.143  1.00  0.00     0.033 A 
HETATM   16  C   UNL     1      40.802 -15.851   5.150  1.00  0.00     0.032 A 
HETATM   17  H   UNL     1      39.355 -13.375   7.834  1.00  0.00     0.169 HD
ENDROOT
BRANCH   1  18
HETATM   18  N   UNL     1      41.491 -16.283   2.895  1.00  0.00    -0.327 N 
HETATM   19  C   UNL     1      42.745 -16.098   2.338  1.00  0.00     0.226 C 
HETATM   20  O   UNL     1      43.396 -15.055   2.375  1.00  0.00    -0.273 OA
HETATM   21  H   UNL     1      41.010 -17.139   2.638  1.00  0.00     0.169 HD
BRANCH  19  22
HETATM   22  C   UNL     1      43.378 -17.367   1.789  1.00  0.00     0.144 C 
BRANCH  22  23
HETATM   23  C   UNL     1      43.879 -18.327   2.818  1.00  0.00    -0.021 A 
HETATM   24  C   UNL     1      44.058 -19.739   2.670  1.00  0.00    -0.001 A 
HETATM   25  C   UNL     1      44.453 -20.250   3.911  1.00  0.00     0.045 A 
HETATM   26  C   UNL     1      43.898 -20.632   1.587  1.00  0.00     0.014 A 
HETATM   27  N   UNL     1      44.485 -19.187   4.794  1.00  0.00    -0.351 N 
HETATM   28  C   UNL     1      44.708 -21.620   4.097  1.00  0.00     0.030 A 
HETATM   29  C   UNL     1      44.191 -18.022   4.126  1.00  0.00     0.100 A 
HETATM   30  C   UNL     1      44.552 -22.479   3.006  1.00  0.00     0.002 A 
HETATM   31  C   UNL     1      44.150 -21.995   1.767  1.00  0.00     0.001 A 
BRANCH  27  32
HETATM   32  C   UNL     1      44.728 -19.272   6.236  1.00  0.00     0.081 C 
HETATM   33  C   UNL     1      43.591 -19.997   6.961  1.00  0.00     0.032 C 
HETATM   34  C   UNL     1      44.991 -17.895   6.845  1.00  0.00     0.032 C 
ENDBRANCH  27  32
ENDBRANCH  22  23
ENDBRANCH  19  22
ENDBRANCH   1  18
TORSDOF 4
ENDMDL
MODEL 3
REMARK VINA RESULT:      -9.8      1.924      9.478
REMARK  4 active torsions:
REMARK  status: ('A' for Active; 'I' for Inactive)
REMARK    1  A    between atoms: C_2  and  N_3 
REMARK    2  A    between atoms: C_10  and  C_11 
REMARK    3  A    between atoms: C_11  and  C_12 
REMARK       I    between atoms: C_12  and  N_13 
REMARK    4  A    between atoms: N_13  and  C_14 
ROOT
HETATM    1  C   UNL     1      43.803 -15.146   7.133  1.00  0.00     0.035 A 
HETATM    2  C   UNL     1      43.987 -16.526   7.219  1.00  0.00     0.049 A 
HETATM    3  C   UNL     1      43.538 -17.393   6.200  1.00  0.00     0.061 A 
HETATM    4  C   UNL     1      42.891 -16.866   5.075  1.00  0.00     0.050 A 
HETATM    5  N   UNL     1      42.492 -17.586   3.935  1.00  0.00    -0.324 N 
HETATM    6  C   UNL     1      43.076 -18.695   3.385  1.00  0.00     0.245 C 
HETATM    7  O   UNL     1      42.699 -19.052   2.265  1.00  0.00    -0.271 OA
HETATM    8  C   UNL     1      44.292 -19.302   4.082  1.00  0.00     0.180 C 
HETATM    9  N   UNL     1      43.954 -19.700   5.439  1.00  0.00    -0.334 N 
HETATM   10  C   UNL     1      43.685 -18.846   6.479  1.00  0.00     0.256 C 
HETATM   11  O   UNL     1      43.569 -19.242   7.636  1.00  0.00    -0.267 OA
HETATM   12  C   UNL     1      44.773 -20.597   3.413  1.00  0.00     0.037 C 
HETATM   13  C   UNL     1      45.243 -21.452   4.583  1.00  0.00     0.022 C 
HETATM   14  C   UNL     1      44.243 -21.104   5.671  1.00  0.00     0.127 C 
HETATM   15  C   UNL     1      42.614 -15.492   5.046  1.00  0.00     0.033 A 
HETATM   16  C   UNL     1      43.076 -14.640   6.055  1.00  0.00     0.032 A 
HETATM   17  H   UNL     1      41.843 -17.146   3.292  1.00  0.00     0.169 HD
ENDROOT
BRANCH   1  18
HETATM   18  N   UNL     1      44.361 -14.213   8.032  1.00  0.00    -0.327 N 
HETATM   19  C   UNL     1      45.317 -13.250   7.753  1.00  0.00     0.226 C 
HETATM   20  O   UNL     1      46.006 -13.200   6.736  1.00  0.00    -0.273 OA
HETATM   21  H   UNL     1      43.997 -14.220   8.979  1.00  0.00     0.169 HD
BRANCH  19  22
HETATM   22  C   UNL     1      45.359 -12.105   8.754  1.00  0.00     0.144 C 
BRANCH  22  23
HETATM   23  C   UNL     1      44.053 -11.421   8.997  1.00  0.00    -0.021 A 
HETATM   24  C   UNL     1      43.609 -10.810  10.211  1.00  0.00    -0.001 A 
HETATM   25  C   UNL     1      42.292 -10.381  10.014  1.00  0.00     0.045 A 
HETATM   26  C   UNL     1      44.210 -10.601  11.473  1.00  0.00     0.014 A 
HETATM   27  N   UNL     1      41.936 -10.746   8.729  1.00  0.00    -0.351 N 
HETATM   28  C   UNL     1      41.566  -9.737  11.032  1.00  0.00     0.030 A 
HETATM   29  C   UNL     1      43.011 -11.325   8.099  1.00  0.00     0.100 A 
HETATM   30  C   UNL     1      42.189  -9.535  12.266  1.00  0.00     0.002 A 
HETATM   31  C   UNL     1      43.492  -9.962  12.487  1.00  0.00     0.001 A 
BRANCH  27  32
HETATM   32  C   UNL     1      40.606 -10.607   8.131  1.00  0.00     0.081 C 
HETATM   33  C   UNL     1      40.395 -11.595   6.981  1.00  0.00     0.032 C 
HETATM   34  C   UNL     1      40.334  -9.169   7.690  1.00  0.00     0.032 C 
ENDBRANCH  27  32
ENDBRANCH  22  23
ENDBRANCH  19  22
ENDBRANCH   1  18
TORSDOF 4
ENDMDL
MODEL 4
REMARK VINA RESULT:      -9.7      5.704      8.574
REMARK  4 active torsions:
REMARK  status: ('A' for Active; 'I' for Inactive)
REMARK    1  A    between atoms: C_2  and  N_3 
REMARK    2  A    between atoms: C_10  and  C_11 
REMARK    3  A    between atoms: C_11  and  C_12 
REMARK       I    between atoms: C_12  and  N_13 
REMARK    4  A    between atoms: N_13  and  C_14 
ROOT
HETATM    1  C   UNL     1      41.238 -15.271  -0.769  1.00  0.00     0.035 A 
HETATM    2  C   UNL     1      41.588 -13.939  -0.541  1.00  0.00     0.049 A 
HETATM    3  C   UNL     1      41.602 -12.993  -1.589  1.00  0.00     0.061 A 
HETATM    4  C   UNL     1      41.259 -13.389  -2.888  1.00  0.00     0.050 A 
HETATM    5  N   UNL     1      41.119 -12.545  -4.002  1.00  0.00    -0.324 N 
HETATM    6  C   UNL     1      40.712 -11.237  -4.030  1.00  0.00     0.245 C 
HETATM    7  O   UNL     1      40.451 -10.736  -5.127  1.00  0.00    -0.271 OA
HETATM    8  C   UNL     1      40.405 -10.539  -2.706  1.00  0.00     0.180 C 
HETATM    9  N   UNL     1      41.578 -10.542  -1.847  1.00  0.00    -0.334 N 
HETATM   10  C   UNL     1      42.116 -11.645  -1.232  1.00  0.00     0.256 C 
HETATM   11  O   UNL     1      43.006 -11.553  -0.389  1.00  0.00    -0.267 OA
HETATM   12  C   UNL     1      40.066  -9.054  -2.884  1.00  0.00     0.037 C 
HETATM   13  C   UNL     1      40.671  -8.397  -1.650  1.00  0.00     0.022 C 
HETATM   14  C   UNL     1      41.944  -9.197  -1.439  1.00  0.00     0.127 C 
HETATM   15  C   UNL     1      41.013 -14.749  -3.129  1.00  0.00     0.033 A 
HETATM   16  C   UNL     1      40.988 -15.676  -2.081  1.00  0.00     0.032 A 
HETATM   17  H   UNL     1      41.087 -12.967  -4.924  1.00  0.00     0.169 HD
ENDROOT
BRANCH   1  18
HETATM   18  N   UNL     1      41.051 -16.228   0.250  1.00  0.00    -0.327 N 
HETATM   19  C   UNL     1      42.035 -16.888   0.968  1.00  0.00     0.226 C 
HETATM   20  O   UNL     1      43.229 -16.923   0.679  1.00  0.00    -0.273 OA
HETATM   21  H   UNL     1      40.093 -16.430   0.515  1.00  0.00     0.169 HD
BRANCH  19  22
HETATM   22  C   UNL     1      41.558 -17.466   2.292  1.00  0.00     0.144 C 
BRANCH  22  23
HETATM   23  C   UNL     1      42.612 -18.136   3.113  1.00  0.00    -0.021 A 
HETATM   24  C   UNL     1      43.230 -19.401   2.862  1.00  0.00    -0.001 A 
HETATM   25  C   UNL     1      44.085 -19.677   3.935  1.00  0.00     0.045 A 
HETATM   26  C   UNL     1      43.121 -20.349   1.820  1.00  0.00     0.014 A 
HETATM   27  N   UNL     1      43.969 -18.625   4.825  1.00  0.00    -0.351 N 
HETATM   28  C   UNL     1      44.843 -20.860   3.989  1.00  0.00     0.030 A 
HETATM   29  C   UNL     1      43.123 -17.674   4.308  1.00  0.00     0.100 A 
HETATM   30  C   UNL     1      44.722 -21.775   2.939  1.00  0.00     0.002 A 
HETATM   31  C   UNL     1      43.872 -21.526   1.869  1.00  0.00     0.001 A 
BRANCH  27  32
HETATM   32  C   UNL     1      44.589 -18.545   6.149  1.00  0.00     0.081 C 
HETATM   33  C   UNL     1      43.842 -19.399   7.178  1.00  0.00     0.032 C 
HETATM   34  C   UNL     1      44.728 -17.098   6.619  1.00  0.00     0.032 C 
ENDBRANCH  27  32
ENDBRANCH  22  23
ENDBRANCH  19  22
ENDBRANCH   1  18
TORSDOF 4
ENDMDL
MODEL 5
REMARK VINA RESULT:      -9.5      2.348      9.567
REMARK  4 active torsions:
REMARK  status: ('A' for Active; 'I' for Inactive)
REMARK    1  A    between atoms: C_2  and  N_3 
REMARK    2  A    between atoms: C_10  and  C_11 
REMARK    3  A    between atoms: C_11  and  C_12 
REMARK       I    between atoms: C_12  and  N_13 
REMARK    4  A    between atoms: N_13  and  C_14 
ROOT
HETATM    1  C   UNL     1      40.427 -12.733   5.055  1.00  0.00     0.035 A 
HETATM    2  C   UNL     1      40.944 -13.969   5.445  1.00  0.00     0.049 A 
HETATM    3  C   UNL     1      40.816 -15.112   4.627  1.00  0.00     0.061 A 
HETATM    4  C   UNL     1      40.157 -15.013   3.394  1.00  0.00     0.050 A 
HETATM    5  N   UNL     1      40.051 -16.027   2.427  1.00  0.00    -0.324 N 
HETATM    6  C   UNL     1      40.940 -17.031   2.149  1.00  0.00     0.245 C 
HETATM    7  O   UNL     1      40.762 -17.693   1.124  1.00  0.00    -0.271 OA
HETATM    8  C   UNL     1      42.205 -17.142   2.999  1.00  0.00     0.180 C 
HETATM    9  N   UNL     1      41.861 -17.331   4.399  1.00  0.00    -0.334 N 
HETATM   10  C   UNL     1      41.298 -16.386   5.219  1.00  0.00     0.256 C 
HETATM   11  O   UNL     1      41.186 -16.556   6.431  1.00  0.00    -0.267 OA
HETATM   12  C   UNL     1      43.050 -18.372   2.644  1.00  0.00     0.037 C 
HETATM   13  C   UNL     1      43.617 -18.818   3.985  1.00  0.00     0.022 C 
HETATM   14  C   UNL     1      42.472 -18.533   4.941  1.00  0.00     0.127 C 
HETATM   15  C   UNL     1      39.548 -13.795   3.058  1.00  0.00     0.033 A 
HETATM   16  C   UNL     1      39.692 -12.666   3.870  1.00  0.00     0.032 A 
HETATM   17  H   UNL     1      39.370 -15.913   1.684  1.00  0.00     0.169 HD
ENDROOT
BRANCH   1  18
HETATM   18  N   UNL     1      40.654 -11.524   5.746  1.00  0.00    -0.327 N 
HETATM   19  C   UNL     1      40.062 -11.112   6.929  1.00  0.00     0.226 C 
HETATM   20  O   UNL     1      39.074 -11.625   7.450  1.00  0.00    -0.273 OA
HETATM   21  H   UNL     1      41.354 -10.902   5.356  1.00  0.00     0.169 HD
BRANCH  19  22
HETATM   22  C   UNL     1      40.838 -10.035   7.671  1.00  0.00     0.144 C 
BRANCH  22  23
HETATM   23  C   UNL     1      41.969 -10.528   8.514  1.00  0.00    -0.021 A 
HETATM   24  C   UNL     1      42.318 -10.097   9.832  1.00  0.00    -0.001 A 
HETATM   25  C   UNL     1      43.498 -10.755  10.196  1.00  0.00     0.045 A 
HETATM   26  C   UNL     1      41.741  -9.185  10.743  1.00  0.00     0.014 A 
HETATM   27  N   UNL     1      43.871 -11.541   9.121  1.00  0.00    -0.351 N 
HETATM   28  C   UNL     1      44.106 -10.542  11.445  1.00  0.00     0.030 A 
HETATM   29  C   UNL     1      42.925 -11.445   8.129  1.00  0.00     0.100 A 
HETATM   30  C   UNL     1      43.508  -9.642  12.331  1.00  0.00     0.002 A 
HETATM   31  C   UNL     1      42.342  -8.969  11.986  1.00  0.00     0.001 A 
BRANCH  27  32
HETATM   32  C   UNL     1      45.110 -12.313   9.007  1.00  0.00     0.081 C 
HETATM   33  C   UNL     1      46.326 -11.406   8.802  1.00  0.00     0.032 C 
HETATM   34  C   UNL     1      45.013 -13.374   7.912  1.00  0.00     0.032 C 
ENDBRANCH  27  32
ENDBRANCH  22  23
ENDBRANCH  19  22
ENDBRANCH   1  18
TORSDOF 4
ENDMDL
MODEL 6
REMARK VINA RESULT:      -9.5      4.579      6.505
REMARK  4 active torsions:
REMARK  status: ('A' for Active; 'I' for Inactive)
REMARK    1  A    between atoms: C_2  and  N_3 
REMARK    2  A    between atoms: C_10  and  C_11 
REMARK    3  A    between atoms: C_11  and  C_12 
REMARK       I    between atoms: C_12  and  N_13 
REMARK    4  A    between atoms: N_13  and  C_14 
ROOT
HETATM    1  C   UNL     1      40.787 -16.151   2.768  1.00  0.00     0.035 A 
HETATM    2  C   UNL     1      39.880 -15.397   2.023  1.00  0.00     0.049 A 
HETATM    3  C   UNL     1      39.253 -14.255   2.565  1.00  0.00     0.061 A 
HETATM    4  C   UNL     1      39.540 -13.862   3.878  1.00  0.00     0.050 A 
HETATM    5  N   UNL     1      39.085 -12.694   4.513  1.00  0.00    -0.324 N 
HETATM    6  C   UNL     1      38.804 -11.477   3.950  1.00  0.00     0.245 C 
HETATM    7  O   UNL     1      38.619 -10.519   4.705  1.00  0.00    -0.271 OA
HETATM    8  C   UNL     1      38.937 -11.325   2.436  1.00  0.00     0.180 C 
HETATM    9  N   UNL     1      38.058 -12.259   1.752  1.00  0.00    -0.334 N 
HETATM   10  C   UNL     1      38.217 -13.622   1.708  1.00  0.00     0.256 C 
HETATM   11  O   UNL     1      37.534 -14.335   0.977  1.00  0.00    -0.267 OA
HETATM   12  C   UNL     1      38.490  -9.944   1.938  1.00  0.00     0.037 C 
HETATM   13  C   UNL     1      37.842 -10.241   0.592  1.00  0.00     0.022 C 
HETATM   14  C   UNL     1      37.159 -11.575   0.839  1.00  0.00     0.127 C 
HETATM   15  C   UNL     1      40.368 -14.685   4.656  1.00  0.00     0.033 A 
HETATM   16  C   UNL     1      40.995 -15.807   4.104  1.00  0.00     0.032 A 
HETATM   17  H   UNL     1      39.173 -12.629   5.521  1.00  0.00     0.169 HD
ENDROOT
BRANCH   1  18
HETATM   18  N   UNL     1      41.565 -17.205   2.243  1.00  0.00    -0.327 N 
HETATM   19  C   UNL     1      42.730 -17.097   1.502  1.00  0.00     0.226 C 
HETATM   20  O   UNL     1      43.154 -16.066   0.983  1.00  0.00    -0.273 OA
HETATM   21  H   UNL     1      41.259 -18.147   2.461  1.00  0.00     0.169 HD
BRANCH  19  22
HETATM   22  C   UNL     1      43.586 -18.354   1.499  1.00  0.00     0.144 C 
BRANCH  22  23
HETATM   23  C   UNL     1      43.939 -18.889   2.849  1.00  0.00    -0.021 A 
HETATM   24  C   UNL     1      44.231 -20.246   3.193  1.00  0.00    -0.001 A 
HETATM   25  C   UNL     1      44.411 -20.304   4.580  1.00  0.00     0.045 A 
HETATM   26  C   UNL     1      44.338 -21.439   2.444  1.00  0.00     0.014 A 
HETATM   27  N   UNL     1      44.207 -19.026   5.067  1.00  0.00    -0.351 N 
HETATM   28  C   UNL     1      44.710 -21.512   5.234  1.00  0.00     0.030 A 
HETATM   29  C   UNL     1      43.974 -18.165   4.023  1.00  0.00     0.100 A 
HETATM   30  C   UNL     1      44.821 -22.674   4.467  1.00  0.00     0.002 A 
HETATM   31  C   UNL     1      44.635 -22.641   3.091  1.00  0.00     0.001 A 
BRANCH  27  32
HETATM   32  C   UNL     1      44.173 -18.639   6.479  1.00  0.00     0.081 C 
HETATM   33  C   UNL     1      42.928 -17.811   6.811  1.00  0.00     0.032 C 
HETATM   34  C   UNL     1      45.453 -17.915   6.895  1.00  0.00     0.032 C 
ENDBRANCH  27  32
ENDBRANCH  22  23
ENDBRANCH  19  22
ENDBRANCH   1  18
TORSDOF 4
ENDMDL
MODEL 7
REMARK VINA RESULT:      -9.4      5.523      8.664
REMARK  4 active torsions:
REMARK  status: ('A' for Active; 'I' for Inactive)
REMARK    1  A    between atoms: C_2  and  N_3 
REMARK    2  A    between atoms: C_10  and  C_11 
REMARK    3  A    between atoms: C_11  and  C_12 
REMARK       I    between atoms: C_12  and  N_13 
REMARK    4  A    between atoms: N_13  and  C_14 
ROOT
HETATM    1  C   UNL     1      41.352 -15.119   0.146  1.00  0.00     0.035 A 
HETATM    2  C   UNL     1      41.444 -14.523  -1.112  1.00  0.00     0.049 A 
HETATM    3  C   UNL     1      40.497 -13.569  -1.545  1.00  0.00     0.061 A 
HETATM    4  C   UNL     1      39.439 -13.208  -0.700  1.00  0.00     0.050 A 
HETATM    5  N   UNL     1      38.491 -12.199  -0.943  1.00  0.00    -0.324 N 
HETATM    6  C   UNL     1      38.653 -11.034  -1.645  1.00  0.00     0.245 C 
HETATM    7  O   UNL     1      37.764 -10.183  -1.565  1.00  0.00    -0.271 OA
HETATM    8  C   UNL     1      40.001 -10.764  -2.311  1.00  0.00     0.180 C 
HETATM    9  N   UNL     1      40.315 -11.815  -3.266  1.00  0.00    -0.334 N 
HETATM   10  C   UNL     1      40.641 -13.110  -2.951  1.00  0.00     0.256 C 
HETATM   11  O   UNL     1      41.055 -13.903  -3.794  1.00  0.00    -0.267 OA
HETATM   12  C   UNL     1      40.002  -9.477  -3.146  1.00  0.00     0.037 C 
HETATM   13  C   UNL     1      40.899  -9.817  -4.329  1.00  0.00     0.022 C 
HETATM   14  C   UNL     1      40.565 -11.275  -4.591  1.00  0.00     0.127 C 
HETATM   15  C   UNL     1      39.293 -13.889   0.517  1.00  0.00     0.033 A 
HETATM   16  C   UNL     1      40.245 -14.823   0.941  1.00  0.00     0.032 A 
HETATM   17  H   UNL     1      37.653 -12.180  -0.373  1.00  0.00     0.169 HD
ENDROOT
BRANCH   1  18
HETATM   18  N   UNL     1      42.343 -15.956   0.701  1.00  0.00    -0.327 N 
HETATM   19  C   UNL     1      42.215 -17.293   1.041  1.00  0.00     0.226 C 
HETATM   20  O   UNL     1      41.155 -17.908   1.132  1.00  0.00    -0.273 OA
HETATM   21  H   UNL     1      43.262 -15.547   0.832  1.00  0.00     0.169 HD
BRANCH  19  22
HETATM   22  C   UNL     1      43.536 -18.039   1.145  1.00  0.00     0.144 C 
BRANCH  22  23
HETATM   23  C   UNL     1      43.866 -18.568   2.503  1.00  0.00    -0.021 A 
HETATM   24  C   UNL     1      44.148 -19.925   2.859  1.00  0.00    -0.001 A 
HETATM   25  C   UNL     1      44.304 -19.976   4.248  1.00  0.00     0.045 A 
HETATM   26  C   UNL     1      44.265 -21.121   2.117  1.00  0.00     0.014 A 
HETATM   27  N   UNL     1      44.095 -18.696   4.726  1.00  0.00    -0.351 N 
HETATM   28  C   UNL     1      44.590 -21.182   4.913  1.00  0.00     0.030 A 
HETATM   29  C   UNL     1      43.882 -17.839   3.674  1.00  0.00     0.100 A 
HETATM   30  C   UNL     1      44.710 -22.348   4.153  1.00  0.00     0.002 A 
HETATM   31  C   UNL     1      44.548 -22.321   2.774  1.00  0.00     0.001 A 
BRANCH  27  32
HETATM   32  C   UNL     1      44.038 -18.302   6.136  1.00  0.00     0.081 C 
HETATM   33  C   UNL     1      43.023 -17.180   6.371  1.00  0.00     0.032 C 
HETATM   34  C   UNL     1      45.419 -17.928   6.672  1.00  0.00     0.032 C 
ENDBRANCH  27  32
ENDBRANCH  22  23
ENDBRANCH  19  22
ENDBRANCH   1  18
TORSDOF 4
ENDMDL
MODEL 8
REMARK VINA RESULT:      -9.4      5.011      7.538
REMARK  4 active torsions:
REMARK  status: ('A' for Active; 'I' for Inactive)
REMARK    1  A    between atoms: C_2  and  N_3 
REMARK    2  A    between atoms: C_10  and  C_11 
REMARK    3  A    between atoms: C_11  and  C_12 
REMARK       I    between atoms: C_12  and  N_13 
REMARK    4  A    between atoms: N_13  and  C_14 
ROOT
HETATM    1  C   UNL     1      41.700 -15.043  -0.110  1.00  0.00     0.035 A 
HETATM    2  C   UNL     1      41.314 -13.867   0.536  1.00  0.00     0.049 A 
HETATM    3  C   UNL     1      40.297 -13.041   0.012  1.00  0.00     0.061 A 
HETATM    4  C   UNL     1      39.657 -13.399  -1.181  1.00  0.00     0.050 A 
HETATM    5  N   UNL     1      38.558 -12.742  -1.762  1.00  0.00    -0.324 N 
HETATM    6  C   UNL     1      37.547 -12.064  -1.135  1.00  0.00     0.245 C 
HETATM    7  O   UNL     1      36.564 -11.740  -1.808  1.00  0.00    -0.271 OA
HETATM    8  C   UNL     1      37.590 -11.930   0.386  1.00  0.00     0.180 C 
HETATM    9  N   UNL     1      38.804 -11.246   0.801  1.00  0.00    -0.334 N 
HETATM   10  C   UNL     1      40.075 -11.759   0.731  1.00  0.00     0.256 C 
HETATM   11  O   UNL     1      41.036 -11.196   1.250  1.00  0.00    -0.267 OA
HETATM   12  C   UNL     1      36.453 -11.059   0.937  1.00  0.00     0.037 C 
HETATM   13  C   UNL     1      37.097 -10.327   2.107  1.00  0.00     0.022 C 
HETATM   14  C   UNL     1      38.507 -10.073   1.605  1.00  0.00     0.127 C 
HETATM   15  C   UNL     1      40.123 -14.522  -1.879  1.00  0.00     0.033 A 
HETATM   16  C   UNL     1      41.123 -15.342  -1.344  1.00  0.00     0.032 A 
HETATM   17  H   UNL     1      38.326 -12.955  -2.726  1.00  0.00     0.169 HD
ENDROOT
BRANCH   1  18
HETATM   18  N   UNL     1      42.593 -15.991   0.434  1.00  0.00    -0.327 N 
HETATM   19  C   UNL     1      42.269 -17.189   1.050  1.00  0.00     0.226 C 
HETATM   20  O   UNL     1      41.147 -17.515   1.431  1.00  0.00    -0.273 OA
HETATM   21  H   UNL     1      43.583 -15.794   0.332  1.00  0.00     0.169 HD
BRANCH  19  22
HETATM   22  C   UNL     1      43.406 -18.198   1.086  1.00  0.00     0.144 C 
BRANCH  22  23
HETATM   23  C   UNL     1      43.778 -18.692   2.446  1.00  0.00    -0.021 A 
HETATM   24  C   UNL     1      44.091 -20.036   2.823  1.00  0.00    -0.001 A 
HETATM   25  C   UNL     1      44.284 -20.055   4.209  1.00  0.00     0.045 A 
HETATM   26  C   UNL     1      44.210 -21.247   2.104  1.00  0.00     0.014 A 
HETATM   27  N   UNL     1      44.065 -18.769   4.665  1.00  0.00    -0.351 N 
HETATM   28  C   UNL     1      44.606 -21.241   4.892  1.00  0.00     0.030 A 
HETATM   29  C   UNL     1      43.812 -17.938   3.600  1.00  0.00     0.100 A 
HETATM   30  C   UNL     1      44.726 -22.422   4.154  1.00  0.00     0.002 A 
HETATM   31  C   UNL     1      44.530 -22.428   2.779  1.00  0.00     0.001 A 
BRANCH  27  32
HETATM   32  C   UNL     1      44.037 -18.345   6.066  1.00  0.00     0.081 C 
HETATM   33  C   UNL     1      43.032 -17.214   6.297  1.00  0.00     0.032 C 
HETATM   34  C   UNL     1      45.430 -17.966   6.568  1.00  0.00     0.032 C 
ENDBRANCH  27  32
ENDBRANCH  22  23
ENDBRANCH  19  22
ENDBRANCH   1  18
TORSDOF 4
ENDMDL
MODEL 9
REMARK VINA RESULT:      -9.3      2.410      9.577
REMARK  4 active torsions:
REMARK  status: ('A' for Active; 'I' for Inactive)
REMARK    1  A    between atoms: C_2  and  N_3 
REMARK    2  A    between atoms: C_10  and  C_11 
REMARK    3  A    between atoms: C_11  and  C_12 
REMARK       I    between atoms: C_12  and  N_13 
REMARK    4  A    between atoms: N_13  and  C_14 
ROOT
HETATM    1  C   UNL     1      40.947 -12.604   5.163  1.00  0.00     0.035 A 
HETATM    2  C   UNL     1      41.441 -13.855   5.536  1.00  0.00     0.049 A 
HETATM    3  C   UNL     1      41.165 -15.012   4.775  1.00  0.00     0.061 A 
HETATM    4  C   UNL     1      40.378 -14.912   3.621  1.00  0.00     0.050 A 
HETATM    5  N   UNL     1      40.113 -15.946   2.706  1.00  0.00    -0.324 N 
HETATM    6  C   UNL     1      40.914 -17.004   2.366  1.00  0.00     0.245 C 
HETATM    7  O   UNL     1      40.589 -17.684   1.390  1.00  0.00    -0.271 OA
HETATM    8  C   UNL     1      42.259 -17.159   3.074  1.00  0.00     0.180 C 
HETATM    9  N   UNL     1      42.066 -17.290   4.509  1.00  0.00    -0.334 N 
HETATM   10  C   UNL     1      41.646 -16.293   5.354  1.00  0.00     0.256 C 
HETATM   11  O   UNL     1      41.662 -16.422   6.576  1.00  0.00    -0.267 OA
HETATM   12  C   UNL     1      42.997 -18.442   2.669  1.00  0.00     0.037 C 
HETATM   13  C   UNL     1      43.687 -18.879   3.955  1.00  0.00     0.022 C 
HETATM   14  C   UNL     1      42.672 -18.506   5.020  1.00  0.00     0.127 C 
HETATM   15  C   UNL     1      39.797 -13.674   3.313  1.00  0.00     0.033 A 
HETATM   16  C   UNL     1      40.088 -12.531   4.066  1.00  0.00     0.032 A 
HETATM   17  H   UNL     1      39.360 -15.817   2.040  1.00  0.00     0.169 HD
ENDROOT
BRANCH   1  18
HETATM   18  N   UNL     1      41.310 -11.390   5.783  1.00  0.00    -0.327 N 
HETATM   19  C   UNL     1      40.683 -10.778   6.856  1.00  0.00     0.226 C 
HETATM   20  O   UNL     1      39.573 -11.070   7.297  1.00  0.00    -0.273 OA
HETATM   21  H   UNL     1      42.143 -10.931   5.431  1.00  0.00     0.169 HD
BRANCH  19  22
HETATM   22  C   UNL     1      41.555  -9.779   7.600  1.00  0.00     0.144 C 
BRANCH  22  23
HETATM   23  C   UNL     1      41.851 -10.126   9.024  1.00  0.00    -0.021 A 
HETATM   24  C   UNL     1      42.949 -10.899   9.516  1.00  0.00    -0.001 A 
HETATM   25  C   UNL     1      42.776 -11.052  10.896  1.00  0.00     0.045 A 
HETATM   26  C   UNL     1      44.069 -11.501   8.901  1.00  0.00     0.014 A 
HETATM   27  N   UNL     1      41.594 -10.416  11.228  1.00  0.00    -0.351 N 
HETATM   28  C   UNL     1      43.696 -11.772  11.678  1.00  0.00     0.030 A 
HETATM   29  C   UNL     1      41.064  -9.814  10.113  1.00  0.00     0.100 A 
HETATM   30  C   UNL     1      44.800 -12.349  11.045  1.00  0.00     0.002 A 
HETATM   31  C   UNL     1      44.985 -12.219   9.674  1.00  0.00     0.001 A 
BRANCH  27  32
HETATM   32  C   UNL     1      40.953 -10.423  12.545  1.00  0.00     0.081 C 
HETATM   33  C   UNL     1      40.218 -11.740  12.810  1.00  0.00     0.032 C 
HETATM   34  C   UNL     1      40.030  -9.220  12.729  1.00  0.00     0.032 C 
ENDBRANCH  27  32
ENDBRANCH  22  23
ENDBRANCH  19  22
ENDBRANCH   1  18
TORSDOF 4
ENDMDL
MODEL 10
REMARK VINA RESULT:      -9.1      2.663     10.232
REMARK  4 active torsions:
REMARK  status: ('A' for Active; 'I' for Inactive)
REMARK    1  A    between atoms: C_2  and  N_3 
REMARK    2  A    between atoms: C_10  and  C_11 
REMARK    3  A    between atoms: C_11  and  C_12 
REMARK       I    between atoms: C_12  and  N_13 
REMARK    4  A    between atoms: N_13  and  C_14 
ROOT
HETATM    1  C   UNL     1      40.761 -12.617   5.056  1.00  0.00     0.035 A 
HETATM    2  C   UNL     1      41.250 -13.863   5.452  1.00  0.00     0.049 A 
HETATM    3  C   UNL     1      41.022 -15.022   4.679  1.00  0.00     0.061 A 
HETATM    4  C   UNL     1      40.291 -14.929   3.488  1.00  0.00     0.050 A 
HETATM    5  N   UNL     1      40.080 -15.965   2.562  1.00  0.00    -0.324 N 
HETATM    6  C   UNL     1      40.907 -17.014   2.260  1.00  0.00     0.245 C 
HETATM    7  O   UNL     1      40.637 -17.697   1.269  1.00  0.00    -0.271 OA
HETATM    8  C   UNL     1      42.218 -17.156   3.031  1.00  0.00     0.180 C 
HETATM    9  N   UNL     1      41.958 -17.290   4.455  1.00  0.00    -0.334 N 
HETATM   10  C   UNL     1      41.488 -16.299   5.280  1.00  0.00     0.256 C 
HETATM   11  O   UNL     1      41.447 -16.429   6.501  1.00  0.00    -0.267 OA
HETATM   12  C   UNL     1      42.988 -18.431   2.662  1.00  0.00     0.037 C 
HETATM   13  C   UNL     1      43.620 -18.862   3.979  1.00  0.00     0.022 C 
HETATM   14  C   UNL     1      42.552 -18.501   4.995  1.00  0.00     0.127 C 
HETATM   15  C   UNL     1      39.712 -13.697   3.153  1.00  0.00     0.033 A 
HETATM   16  C   UNL     1      39.955 -12.552   3.919  1.00  0.00     0.032 A 
HETATM   17  H   UNL     1      39.359 -15.843   1.859  1.00  0.00     0.169 HD
ENDROOT
BRANCH   1  18
HETATM   18  N   UNL     1      41.081 -11.400   5.694  1.00  0.00    -0.327 N 
HETATM   19  C   UNL     1      40.299 -10.695   6.594  1.00  0.00     0.226 C 
HETATM   20  O   UNL     1      39.105 -10.891   6.809  1.00  0.00    -0.273 OA
HETATM   21  H   UNL     1      42.000 -11.015   5.503  1.00  0.00     0.169 HD
BRANCH  19  22
HETATM   22  C   UNL     1      41.076  -9.719   7.464  1.00  0.00     0.144 C 
BRANCH  22  23
HETATM   23  C   UNL     1      41.121 -10.058   8.919  1.00  0.00    -0.021 A 
HETATM   24  C   UNL     1      40.121  -9.782   9.903  1.00  0.00    -0.001 A 
HETATM   25  C   UNL     1      40.623 -10.186  11.145  1.00  0.00     0.045 A 
HETATM   26  C   UNL     1      38.833  -9.204   9.847  1.00  0.00     0.014 A 
HETATM   27  N   UNL     1      41.902 -10.666  10.927  1.00  0.00    -0.351 N 
HETATM   28  C   UNL     1      39.873 -10.044  12.325  1.00  0.00     0.030 A 
HETATM   29  C   UNL     1      42.183 -10.637   9.582  1.00  0.00     0.100 A 
HETATM   30  C   UNL     1      38.598  -9.478  12.239  1.00  0.00     0.002 A 
HETATM   31  C   UNL     1      38.084  -9.061  11.018  1.00  0.00     0.001 A 
BRANCH  27  32
HETATM   32  C   UNL     1      42.852 -11.083  11.960  1.00  0.00     0.081 C 
HETATM   33  C   UNL     1      43.499  -9.882  12.654  1.00  0.00     0.032 C 
HETATM   34  C   UNL     1      43.905 -12.040  11.402  1.00  0.00     0.032 C 
ENDBRANCH  27  32
ENDBRANCH  22  23
ENDBRANCH  19  22
ENDBRANCH   1  18
TORSDOF 4
ENDMDL
