MODEL 1
REMARK VINA RESULT:      -8.7      0.000      0.000
REMARK  11 active torsions:
REMARK  status: ('A' for Active; 'I' for Inactive)
REMARK    1  A    between atoms: C_2  and  C_3 
REMARK    2  A    between atoms: C_3  and  C_4 
REMARK       I    between atoms: C_4  and  N_6 
REMARK    3  A    between atoms: N_6  and  C_7 
REMARK    4  A    between atoms: C_11  and  C_13 
REMARK    5  A    between atoms: C_15  and  N_16 
REMARK    6  A    between atoms: N_16  and  C_17 
REMARK    7  A    between atoms: C_29  and  O_30 
REMARK    8  A    between atoms: O_30  and  C_31 
REMARK    9  A    between atoms: C_31  and  C_32 
REMARK   10  A    between atoms: C_32  and  N_33 
REMARK   11  A    between atoms: C_41  and  O_42 
ROOT
HETATM    1  C   UNL     1      42.567 -13.355   5.513  1.00  0.00     0.162 A 
HETATM    2  N   UNL     1      42.265 -14.641   5.286  1.00  0.00    -0.215 NA
HETATM    3  C   UNL     1      41.288 -14.915   4.414  1.00  0.00     0.122 A 
HETATM    4  C   UNL     1      40.593 -13.901   3.740  1.00  0.00     0.036 A 
HETATM    5  C   UNL     1      39.532 -14.126   2.827  1.00  0.00     0.057 A 
HETATM    6  C   UNL     1      38.884 -13.060   2.206  1.00  0.00     0.103 A 
HETATM    7  C   UNL     1      39.351 -11.765   2.443  1.00  0.00     0.103 A 
HETATM    8  C   UNL     1      40.385 -11.547   3.359  1.00  0.00     0.072 A 
HETATM    9  C   UNL     1      41.017 -12.595   4.014  1.00  0.00     0.075 A 
HETATM   10  N   UNL     1      41.992 -12.318   4.883  1.00  0.00    -0.228 NA
ENDROOT
BRANCH   1  11
HETATM   11  C   UNL     1      43.533 -13.077   6.589  1.00  0.00     0.014 A 
HETATM   12  C   UNL     1      44.810 -13.660   6.616  1.00  0.00     0.015 A 
HETATM   13  C   UNL     1      45.704 -13.379   7.650  1.00  0.00     0.003 A 
HETATM   14  C   UNL     1      45.345 -12.492   8.668  1.00  0.00     0.029 A 
HETATM   15  C   UNL     1      44.093 -11.871   8.655  1.00  0.00     0.035 A 
HETATM   16  C   UNL     1      43.200 -12.182   7.629  1.00  0.00     0.044 A 
BRANCH  15  17
HETATM   17  N   UNL     1      43.795 -10.967   9.698  1.00  0.00    -0.327 N 
HETATM   18  C   UNL     1      43.755 -11.246  11.056  1.00  0.00     0.222 C 
HETATM   19  O   UNL     1      43.882 -12.349  11.577  1.00  0.00    -0.273 OA
HETATM   20  H   UNL     1      43.518 -10.035   9.416  1.00  0.00     0.169 HD
BRANCH  18  21
HETATM   21  C   UNL     1      43.502  -9.994  11.881  1.00  0.00     0.103 C 
BRANCH  21  22
HETATM   22  C   UNL     1      42.837 -10.316  13.220  1.00  0.00     0.005 C 
HETATM   23  C   UNL     1      43.107  -9.240  14.256  1.00  0.00     0.005 C 
ENDBRANCH  21  22
ENDBRANCH  18  21
ENDBRANCH  15  17
ENDBRANCH   1  11
BRANCH   3  24
HETATM   24  N   UNL     1      40.892 -16.271   4.239  1.00  0.00    -0.243 NA
HETATM   25  H   UNL     1      40.392 -16.549   5.079  1.00  0.00     0.135 HD
BRANCH  24  26
HETATM   26  C   UNL     1      41.720 -17.328   3.778  1.00  0.00     0.015 A 
HETATM   27  C   UNL     1      41.800 -17.583   2.399  1.00  0.00     0.026 A 
HETATM   28  C   UNL     1      42.652 -18.563   1.870  1.00  0.00     0.034 A 
HETATM   29  C   UNL     1      43.451 -19.262   2.775  1.00  0.00     0.061 A 
HETATM   30  N   UNL     1      44.371 -20.264   2.602  1.00  0.00    -0.278 N 
HETATM   31  C   UNL     1      43.432 -19.017   4.142  1.00  0.00     0.013 A 
HETATM   32  H   UNL     1      44.641 -20.711   1.734  1.00  0.00     0.189 HD
HETATM   33  N   UNL     1      44.967 -20.666   3.738  1.00  0.00    -0.186 NA
HETATM   34  C   UNL     1      44.385 -19.912   4.675  1.00  0.00     0.152 A 
HETATM   35  C   UNL     1      42.568 -18.031   4.651  1.00  0.00     0.039 A 
ENDBRANCH  24  26
ENDBRANCH   3  24
BRANCH   7  36
HETATM   36  O   UNL     1      38.795 -10.637   1.893  1.00  0.00    -0.353 OA
HETATM   37  C   UNL     1      39.743  -9.833   1.193  1.00  0.00     0.210 C 
ENDBRANCH   7  36
BRANCH   6  38
HETATM   38  O   UNL     1      37.825 -13.221   1.355  1.00  0.00    -0.347 OA
BRANCH  38  39
HETATM   39  C   UNL     1      38.072 -14.054   0.216  1.00  0.00     0.206 C 
BRANCH  39  40
HETATM   40  C   UNL     1      38.639 -13.150  -0.892  1.00  0.00     0.299 C 
BRANCH  40  41
HETATM   41  N   UNL     1      39.795 -13.714  -1.618  1.00  0.00     0.093 N 
HETATM   42  C   UNL     1      40.930 -14.064  -0.740  1.00  0.00     0.300 C 
HETATM   43  C   UNL     1      41.724 -12.863  -0.186  1.00  0.00     0.264 C 
HETATM   44  N   UNL     1      42.173 -11.962  -1.325  1.00  0.00    -0.072 N 
HETATM   45  H   UNL     1      42.804 -12.524  -1.913  1.00  0.00     0.279 HD
HETATM   46  C   UNL     1      42.952 -10.779  -0.834  1.00  0.00     0.269 C 
HETATM   47  C   UNL     1      41.006 -11.553  -2.210  1.00  0.00     0.264 C 
HETATM   48  C   UNL     1      40.245 -12.806  -2.694  1.00  0.00     0.300 C 
ENDBRANCH  40  41
ENDBRANCH  39  40
ENDBRANCH  38  39
ENDBRANCH   6  38
TORSDOF 11
ENDMDL
MODEL 2
REMARK VINA RESULT:      -8.6      2.265      3.326
REMARK  11 active torsions:
REMARK  status: ('A' for Active; 'I' for Inactive)
REMARK    1  A    between atoms: C_2  and  C_3 
REMARK    2  A    between atoms: C_3  and  C_4 
REMARK       I    between atoms: C_4  and  N_6 
REMARK    3  A    between atoms: N_6  and  C_7 
REMARK    4  A    between atoms: C_11  and  C_13 
REMARK    5  A    between atoms: C_15  and  N_16 
REMARK    6  A    between atoms: N_16  and  C_17 
REMARK    7  A    between atoms: C_29  and  O_30 
REMARK    8  A    between atoms: O_30  and  C_31 
REMARK    9  A    between atoms: C_31  and  C_32 
REMARK   10  A    between atoms: C_32  and  N_33 
REMARK   11  A    between atoms: C_41  and  O_42 
ROOT
HETATM    1  C   UNL     1      41.189 -11.814   5.838  1.00  0.00     0.162 A 
HETATM    2  N   UNL     1      42.297 -12.568   5.846  1.00  0.00    -0.215 NA
HETATM    3  C   UNL     1      42.400 -13.546   4.938  1.00  0.00     0.122 A 
HETATM    4  C   UNL     1      41.393 -13.786   3.993  1.00  0.00     0.036 A 
HETATM    5  C   UNL     1      41.431 -14.822   3.026  1.00  0.00     0.057 A 
HETATM    6  C   UNL     1      40.381 -15.001   2.126  1.00  0.00     0.103 A 
HETATM    7  C   UNL     1      39.322 -14.091   2.146  1.00  0.00     0.103 A 
HETATM    8  C   UNL     1      39.281 -13.082   3.115  1.00  0.00     0.072 A 
HETATM    9  C   UNL     1      40.299 -12.913   4.041  1.00  0.00     0.075 A 
HETATM   10  N   UNL     1      40.194 -11.935   4.945  1.00  0.00    -0.228 NA
ENDROOT
BRANCH   1  11
HETATM   11  C   UNL     1      41.031 -10.851   6.941  1.00  0.00     0.014 A 
HETATM   12  C   UNL     1      40.053  -9.845   6.921  1.00  0.00     0.015 A 
HETATM   13  C   UNL     1      39.928  -8.945   7.981  1.00  0.00     0.003 A 
HETATM   14  C   UNL     1      40.769  -9.048   9.092  1.00  0.00     0.029 A 
HETATM   15  C   UNL     1      41.733 -10.057   9.158  1.00  0.00     0.035 A 
HETATM   16  C   UNL     1      41.863 -10.933   8.079  1.00  0.00     0.044 A 
BRANCH  15  17
HETATM   17  N   UNL     1      42.537 -10.125  10.317  1.00  0.00    -0.327 N 
HETATM   18  C   UNL     1      42.238 -10.783  11.501  1.00  0.00     0.222 C 
HETATM   19  O   UNL     1      41.181 -11.342  11.776  1.00  0.00    -0.273 OA
HETATM   20  H   UNL     1      43.391  -9.582  10.301  1.00  0.00     0.169 HD
BRANCH  18  21
HETATM   21  C   UNL     1      43.394 -10.724  12.486  1.00  0.00     0.103 C 
BRANCH  21  22
HETATM   22  C   UNL     1      43.296  -9.511  13.411  1.00  0.00     0.005 C 
HETATM   23  C   UNL     1      42.527  -9.831  14.680  1.00  0.00     0.005 C 
ENDBRANCH  21  22
ENDBRANCH  18  21
ENDBRANCH  15  17
ENDBRANCH   1  11
BRANCH   3  24
HETATM   24  N   UNL     1      43.525 -14.417   4.999  1.00  0.00    -0.243 NA
HETATM   25  H   UNL     1      43.828 -14.584   4.044  1.00  0.00     0.135 HD
BRANCH  24  26
HETATM   26  C   UNL     1      43.616 -15.606   5.768  1.00  0.00     0.015 A 
HETATM   27  C   UNL     1      43.510 -15.528   7.167  1.00  0.00     0.026 A 
HETATM   28  C   UNL     1      43.520 -16.669   7.981  1.00  0.00     0.034 A 
HETATM   29  C   UNL     1      43.608 -17.905   7.338  1.00  0.00     0.061 A 
HETATM   30  N   UNL     1      43.644 -19.188   7.820  1.00  0.00    -0.278 N 
HETATM   31  C   UNL     1      43.675 -18.031   5.957  1.00  0.00     0.013 A 
HETATM   32  H   UNL     1      43.627 -19.485   8.788  1.00  0.00     0.189 HD
HETATM   33  N   UNL     1      43.702 -20.132   6.864  1.00  0.00    -0.186 NA
HETATM   34  C   UNL     1      43.732 -19.424   5.732  1.00  0.00     0.152 A 
HETATM   35  C   UNL     1      43.667 -16.873   5.159  1.00  0.00     0.039 A 
ENDBRANCH  24  26
ENDBRANCH   3  24
BRANCH   7  36
HETATM   36  O   UNL     1      38.233 -14.163   1.315  1.00  0.00    -0.353 OA
HETATM   37  C   UNL     1      37.681 -12.884   1.007  1.00  0.00     0.210 C 
ENDBRANCH   7  36
BRANCH   6  38
HETATM   38  O   UNL     1      40.348 -16.013   1.206  1.00  0.00    -0.347 OA
BRANCH  38  39
HETATM   39  C   UNL     1      41.436 -16.034   0.275  1.00  0.00     0.206 C 
BRANCH  39  40
HETATM   40  C   UNL     1      41.241 -14.842  -0.677  1.00  0.00     0.299 C 
BRANCH  40  41
HETATM   41  N   UNL     1      40.502 -15.157  -1.917  1.00  0.00     0.093 N 
HETATM   42  C   UNL     1      41.304 -14.975  -3.144  1.00  0.00     0.300 C 
HETATM   43  C   UNL     1      41.568 -13.508  -3.543  1.00  0.00     0.264 C 
HETATM   44  N   UNL     1      40.255 -12.746  -3.631  1.00  0.00    -0.072 N 
HETATM   45  H   UNL     1      39.706 -13.191  -4.379  1.00  0.00     0.279 HD
HETATM   46  C   UNL     1      40.462 -11.312  -4.018  1.00  0.00     0.269 C 
HETATM   47  C   UNL     1      39.440 -12.883  -2.355  1.00  0.00     0.264 C 
HETATM   48  C   UNL     1      39.250 -14.375  -2.007  1.00  0.00     0.300 C 
ENDBRANCH  40  41
ENDBRANCH  39  40
ENDBRANCH  38  39
ENDBRANCH   6  38
TORSDOF 11
ENDMDL
MODEL 3
REMARK VINA RESULT:      -8.5      3.649      7.175
REMARK  11 active torsions:
REMARK  status: ('A' for Active; 'I' for Inactive)
REMARK    1  A    between atoms: C_2  and  C_3 
REMARK    2  A    between atoms: C_3  and  C_4 
REMARK       I    between atoms: C_4  and  N_6 
REMARK    3  A    between atoms: N_6  and  C_7 
REMARK    4  A    between atoms: C_11  and  C_13 
REMARK    5  A    between atoms: C_15  and  N_16 
REMARK    6  A    between atoms: N_16  and  C_17 
REMARK    7  A    between atoms: C_29  and  O_30 
REMARK    8  A    between atoms: O_30  and  C_31 
REMARK    9  A    between atoms: C_31  and  C_32 
REMARK   10  A    between atoms: C_32  and  N_33 
REMARK   11  A    between atoms: C_41  and  O_42 
ROOT
HETATM    1  C   UNL     1      41.981 -16.602   1.441  1.00  0.00     0.162 A 
HETATM    2  N   UNL     1      41.696 -15.496   2.142  1.00  0.00    -0.215 NA
HETATM    3  C   UNL     1      41.150 -14.461   1.491  1.00  0.00     0.122 A 
HETATM    4  C   UNL     1      40.870 -14.516   0.119  1.00  0.00     0.036 A 
HETATM    5  C   UNL     1      40.319 -13.446  -0.630  1.00  0.00     0.057 A 
HETATM    6  C   UNL     1      40.079 -13.577  -1.997  1.00  0.00     0.103 A 
HETATM    7  C   UNL     1      40.323 -14.812  -2.602  1.00  0.00     0.103 A 
HETATM    8  C   UNL     1      40.885 -15.858  -1.862  1.00  0.00     0.072 A 
HETATM    9  C   UNL     1      41.163 -15.732  -0.509  1.00  0.00     0.075 A 
HETATM   10  N   UNL     1      41.707 -16.767   0.138  1.00  0.00    -0.228 NA
ENDROOT
BRANCH   1  11
HETATM   11  C   UNL     1      42.722 -17.663   2.144  1.00  0.00     0.014 A 
HETATM   12  C   UNL     1      43.425 -18.664   1.457  1.00  0.00     0.015 A 
HETATM   13  C   UNL     1      44.117 -19.659   2.151  1.00  0.00     0.003 A 
HETATM   14  C   UNL     1      44.135 -19.658   3.548  1.00  0.00     0.029 A 
HETATM   15  C   UNL     1      43.471 -18.658   4.263  1.00  0.00     0.035 A 
HETATM   16  C   UNL     1      42.762 -17.686   3.555  1.00  0.00     0.044 A 
BRANCH  15  17
HETATM   17  N   UNL     1      43.544 -18.696   5.672  1.00  0.00    -0.327 N 
HETATM   18  C   UNL     1      44.656 -18.424   6.456  1.00  0.00     0.222 C 
HETATM   19  O   UNL     1      45.791 -18.193   6.054  1.00  0.00    -0.273 OA
HETATM   20  H   UNL     1      42.715 -19.019   6.154  1.00  0.00     0.169 HD
BRANCH  18  21
HETATM   21  C   UNL     1      44.323 -18.464   7.939  1.00  0.00     0.103 C 
BRANCH  21  22
HETATM   22  C   UNL     1      43.322 -17.377   8.330  1.00  0.00     0.005 C 
HETATM   23  C   UNL     1      43.692 -16.030   7.736  1.00  0.00     0.005 C 
ENDBRANCH  21  22
ENDBRANCH  18  21
ENDBRANCH  15  17
ENDBRANCH   1  11
BRANCH   3  24
HETATM   24  N   UNL     1      40.934 -13.247   2.203  1.00  0.00    -0.243 NA
HETATM   25  H   UNL     1      41.767 -12.677   2.085  1.00  0.00     0.135 HD
BRANCH  24  26
HETATM   26  C   UNL     1      40.436 -13.135   3.527  1.00  0.00     0.015 A 
HETATM   27  C   UNL     1      40.221 -14.302   4.279  1.00  0.00     0.026 A 
HETATM   28  C   UNL     1      39.798 -14.261   5.615  1.00  0.00     0.034 A 
HETATM   29  C   UNL     1      39.628 -13.000   6.187  1.00  0.00     0.061 A 
HETATM   30  N   UNL     1      39.232 -12.607   7.439  1.00  0.00    -0.278 N 
HETATM   31  C   UNL     1      39.867 -11.821   5.493  1.00  0.00     0.013 A 
HETATM   32  H   UNL     1      38.962 -13.199   8.216  1.00  0.00     0.189 HD
HETATM   33  N   UNL     1      39.221 -11.275   7.620  1.00  0.00    -0.186 NA
HETATM   34  C   UNL     1      39.597 -10.799   6.430  1.00  0.00     0.152 A 
HETATM   35  C   UNL     1      40.287 -11.885   4.153  1.00  0.00     0.039 A 
ENDBRANCH  24  26
ENDBRANCH   3  24
BRANCH   7  36
HETATM   36  O   UNL     1      40.130 -15.064  -3.937  1.00  0.00    -0.353 OA
HETATM   37  C   UNL     1      39.077 -15.994  -4.183  1.00  0.00     0.210 C 
ENDBRANCH   7  36
BRANCH   6  38
HETATM   38  O   UNL     1      39.594 -12.560  -2.773  1.00  0.00    -0.347 OA
BRANCH  38  39
HETATM   39  C   UNL     1      38.299 -12.071  -2.407  1.00  0.00     0.206 C 
BRANCH  39  40
HETATM   40  C   UNL     1      37.279 -12.750  -3.336  1.00  0.00     0.299 C 
BRANCH  40  41
HETATM   41  N   UNL     1      36.693 -11.863  -4.362  1.00  0.00     0.093 N 
HETATM   42  C   UNL     1      35.909 -10.746  -3.798  1.00  0.00     0.300 C 
HETATM   43  C   UNL     1      34.542 -11.140  -3.201  1.00  0.00     0.264 C 
HETATM   44  N   UNL     1      33.728 -11.916  -4.225  1.00  0.00    -0.072 N 
HETATM   45  H   UNL     1      33.564 -11.277  -5.016  1.00  0.00     0.279 HD
HETATM   46  C   UNL     1      32.388 -12.320  -3.689  1.00  0.00     0.269 C 
HETATM   47  C   UNL     1      34.505 -13.100  -4.779  1.00  0.00     0.264 C 
HETATM   48  C   UNL     1      35.870 -12.628  -5.324  1.00  0.00     0.300 C 
ENDBRANCH  40  41
ENDBRANCH  39  40
ENDBRANCH  38  39
ENDBRANCH   6  38
TORSDOF 11
ENDMDL
MODEL 4
REMARK VINA RESULT:      -8.4      2.987      7.212
REMARK  11 active torsions:
REMARK  status: ('A' for Active; 'I' for Inactive)
REMARK    1  A    between atoms: C_2  and  C_3 
REMARK    2  A    between atoms: C_3  and  C_4 
REMARK       I    between atoms: C_4  and  N_6 
REMARK    3  A    between atoms: N_6  and  C_7 
REMARK    4  A    between atoms: C_11  and  C_13 
REMARK    5  A    between atoms: C_15  and  N_16 
REMARK    6  A    between atoms: N_16  and  C_17 
REMARK    7  A    between atoms: C_29  and  O_30 
REMARK    8  A    between atoms: O_30  and  C_31 
REMARK    9  A    between atoms: C_31  and  C_32 
REMARK   10  A    between atoms: C_32  and  N_33 
REMARK   11  A    between atoms: C_41  and  O_42 
ROOT
HETATM    1  C   UNL     1      42.393 -15.599   4.925  1.00  0.00     0.162 A 
HETATM    2  N   UNL     1      41.581 -15.881   3.896  1.00  0.00    -0.215 NA
HETATM    3  C   UNL     1      40.608 -15.010   3.603  1.00  0.00     0.122 A 
HETATM    4  C   UNL     1      40.430 -13.828   4.335  1.00  0.00     0.036 A 
HETATM    5  C   UNL     1      39.403 -12.881   4.092  1.00  0.00     0.057 A 
HETATM    6  C   UNL     1      39.288 -11.733   4.874  1.00  0.00     0.103 A 
HETATM    7  C   UNL     1      40.251 -11.495   5.856  1.00  0.00     0.103 A 
HETATM    8  C   UNL     1      41.251 -12.441   6.104  1.00  0.00     0.072 A 
HETATM    9  C   UNL     1      41.359 -13.607   5.359  1.00  0.00     0.075 A 
HETATM   10  N   UNL     1      42.332 -14.473   5.653  1.00  0.00    -0.228 NA
ENDROOT
BRANCH   1  11
HETATM   11  C   UNL     1      43.351 -16.644   5.322  1.00  0.00     0.014 A 
HETATM   12  C   UNL     1      44.154 -16.524   6.468  1.00  0.00     0.015 A 
HETATM   13  C   UNL     1      45.056 -17.531   6.819  1.00  0.00     0.003 A 
HETATM   14  C   UNL     1      45.157 -18.686   6.040  1.00  0.00     0.029 A 
HETATM   15  C   UNL     1      44.352 -18.850   4.910  1.00  0.00     0.035 A 
HETATM   16  C   UNL     1      43.474 -17.824   4.557  1.00  0.00     0.044 A 
BRANCH  15  17
HETATM   17  N   UNL     1      44.482 -20.049   4.176  1.00  0.00    -0.327 N 
HETATM   18  C   UNL     1      44.553 -21.336   4.688  1.00  0.00     0.222 C 
HETATM   19  O   UNL     1      44.605 -21.646   5.874  1.00  0.00    -0.273 OA
HETATM   20  H   UNL     1      44.603 -19.949   3.176  1.00  0.00     0.169 HD
BRANCH  18  21
HETATM   21  C   UNL     1      44.584 -22.381   3.584  1.00  0.00     0.103 C 
BRANCH  21  22
HETATM   22  C   UNL     1      44.750 -21.749   2.203  1.00  0.00     0.005 C 
HETATM   23  C   UNL     1      43.476 -21.844   1.382  1.00  0.00     0.005 C 
ENDBRANCH  21  22
ENDBRANCH  18  21
ENDBRANCH  15  17
ENDBRANCH   1  11
BRANCH   3  24
HETATM   24  N   UNL     1      39.680 -15.346   2.578  1.00  0.00    -0.243 NA
HETATM   25  H   UNL     1      39.525 -16.349   2.627  1.00  0.00     0.135 HD
BRANCH  24  26
HETATM   26  C   UNL     1      39.741 -14.916   1.226  1.00  0.00     0.015 A 
HETATM   27  C   UNL     1      40.803 -15.353   0.416  1.00  0.00     0.026 A 
HETATM   28  C   UNL     1      40.887 -15.026  -0.945  1.00  0.00     0.034 A 
HETATM   29  C   UNL     1      39.845 -14.267  -1.478  1.00  0.00     0.061 A 
HETATM   30  N   UNL     1      39.619 -13.780  -2.740  1.00  0.00    -0.278 N 
HETATM   31  C   UNL     1      38.757 -13.846  -0.725  1.00  0.00     0.013 A 
HETATM   32  H   UNL     1      40.210 -13.880  -3.556  1.00  0.00     0.189 HD
HETATM   33  N   UNL     1      38.463 -13.105  -2.870  1.00  0.00    -0.186 NA
HETATM   34  C   UNL     1      37.947 -13.137  -1.638  1.00  0.00     0.152 A 
HETATM   35  C   UNL     1      38.695 -14.183   0.640  1.00  0.00     0.039 A 
ENDBRANCH  24  26
ENDBRANCH   3  24
BRANCH   7  36
HETATM   36  O   UNL     1      40.244 -10.404   6.689  1.00  0.00    -0.353 OA
HETATM   37  C   UNL     1      39.986 -10.744   8.050  1.00  0.00     0.210 C 
ENDBRANCH   7  36
BRANCH   6  38
HETATM   38  O   UNL     1      38.287 -10.814   4.711  1.00  0.00    -0.347 OA
BRANCH  38  39
HETATM   39  C   UNL     1      38.009 -10.442   3.356  1.00  0.00     0.206 C 
BRANCH  39  40
HETATM   40  C   UNL     1      39.047  -9.380   2.956  1.00  0.00     0.299 C 
BRANCH  40  41
HETATM   41  N   UNL     1      38.939  -8.906   1.561  1.00  0.00     0.093 N 
HETATM   42  C   UNL     1      38.907  -9.999   0.568  1.00  0.00     0.300 C 
HETATM   43  C   UNL     1      40.254 -10.714   0.336  1.00  0.00     0.264 C 
HETATM   44  N   UNL     1      41.334  -9.699  -0.004  1.00  0.00    -0.072 N 
HETATM   45  H   UNL     1      41.050  -9.252  -0.886  1.00  0.00     0.279 HD
HETATM   46  C   UNL     1      42.664 -10.350  -0.239  1.00  0.00     0.269 C 
HETATM   47  C   UNL     1      41.413  -8.594   1.038  1.00  0.00     0.264 C 
HETATM   48  C   UNL     1      40.022  -7.954   1.235  1.00  0.00     0.300 C 
ENDBRANCH  40  41
ENDBRANCH  39  40
ENDBRANCH  38  39
ENDBRANCH   6  38
TORSDOF 11
ENDMDL
MODEL 5
REMARK VINA RESULT:      -8.4      2.635      9.762
REMARK  11 active torsions:
REMARK  status: ('A' for Active; 'I' for Inactive)
REMARK    1  A    between atoms: C_2  and  C_3 
REMARK    2  A    between atoms: C_3  and  C_4 
REMARK       I    between atoms: C_4  and  N_6 
REMARK    3  A    between atoms: N_6  and  C_7 
REMARK    4  A    between atoms: C_11  and  C_13 
REMARK    5  A    between atoms: C_15  and  N_16 
REMARK    6  A    between atoms: N_16  and  C_17 
REMARK    7  A    between atoms: C_29  and  O_30 
REMARK    8  A    between atoms: O_30  and  C_31 
REMARK    9  A    between atoms: C_31  and  C_32 
REMARK   10  A    between atoms: C_32  and  N_33 
REMARK   11  A    between atoms: C_41  and  O_42 
ROOT
HETATM    1  C   UNL     1      41.565 -12.435   1.569  1.00  0.00     0.162 A 
HETATM    2  N   UNL     1      42.564 -13.057   2.211  1.00  0.00    -0.215 NA
HETATM    3  C   UNL     1      42.628 -12.940   3.542  1.00  0.00     0.122 A 
HETATM    4  C   UNL     1      41.681 -12.200   4.265  1.00  0.00     0.036 A 
HETATM    5  C   UNL     1      41.710 -12.017   5.670  1.00  0.00     0.057 A 
HETATM    6  C   UNL     1      40.735 -11.256   6.313  1.00  0.00     0.103 A 
HETATM    7  C   UNL     1      39.684 -10.738   5.554  1.00  0.00     0.103 A 
HETATM    8  C   UNL     1      39.671 -10.906   4.165  1.00  0.00     0.072 A 
HETATM    9  C   UNL     1      40.653 -11.629   3.505  1.00  0.00     0.075 A 
HETATM   10  N   UNL     1      40.587 -11.745   2.176  1.00  0.00    -0.228 NA
ENDROOT
BRANCH   1  11
HETATM   11  C   UNL     1      41.608 -12.449   0.097  1.00  0.00     0.014 A 
HETATM   12  C   UNL     1      42.598 -11.768  -0.628  1.00  0.00     0.015 A 
HETATM   13  C   UNL     1      42.612 -11.798  -2.024  1.00  0.00     0.003 A 
HETATM   14  C   UNL     1      41.645 -12.527  -2.720  1.00  0.00     0.029 A 
HETATM   15  C   UNL     1      40.663 -13.241  -2.029  1.00  0.00     0.035 A 
HETATM   16  C   UNL     1      40.647 -13.180  -0.634  1.00  0.00     0.044 A 
BRANCH  15  17
HETATM   17  N   UNL     1      39.727 -13.978  -2.786  1.00  0.00    -0.327 N 
HETATM   18  C   UNL     1      39.943 -15.189  -3.427  1.00  0.00     0.222 C 
HETATM   19  O   UNL     1      41.013 -15.783  -3.520  1.00  0.00    -0.273 OA
HETATM   20  H   UNL     1      38.825 -13.541  -2.929  1.00  0.00     0.169 HD
BRANCH  18  21
HETATM   21  C   UNL     1      38.668 -15.730  -4.055  1.00  0.00     0.103 C 
BRANCH  21  22
HETATM   22  C   UNL     1      37.417 -15.119  -3.424  1.00  0.00     0.005 C 
HETATM   23  C   UNL     1      36.539 -14.440  -4.460  1.00  0.00     0.005 C 
ENDBRANCH  21  22
ENDBRANCH  18  21
ENDBRANCH  15  17
ENDBRANCH   1  11
BRANCH   3  24
HETATM   24  N   UNL     1      43.739 -13.512   4.224  1.00  0.00    -0.243 NA
HETATM   25  H   UNL     1      44.538 -13.452   3.600  1.00  0.00     0.135 HD
BRANCH  24  26
HETATM   26  C   UNL     1      43.741 -14.749   4.921  1.00  0.00     0.015 A 
HETATM   27  C   UNL     1      44.029 -14.760   6.296  1.00  0.00     0.026 A 
HETATM   28  C   UNL     1      43.980 -15.935   7.059  1.00  0.00     0.034 A 
HETATM   29  C   UNL     1      43.596 -17.103   6.399  1.00  0.00     0.061 A 
HETATM   30  N   UNL     1      43.449 -18.395   6.833  1.00  0.00    -0.278 N 
HETATM   31  C   UNL     1      43.265 -17.131   5.050  1.00  0.00     0.013 A 
HETATM   32  H   UNL     1      43.616 -18.757   7.764  1.00  0.00     0.189 HD
HETATM   33  N   UNL     1      43.025 -19.248   5.884  1.00  0.00    -0.186 NA
HETATM   34  C   UNL     1      42.925 -18.478   4.798  1.00  0.00     0.152 A 
HETATM   35  C   UNL     1      43.325 -15.941   4.303  1.00  0.00     0.039 A 
ENDBRANCH  24  26
ENDBRANCH   3  24
BRANCH   7  36
HETATM   36  O   UNL     1      38.669  -9.973   6.070  1.00  0.00    -0.353 OA
HETATM   37  C   UNL     1      38.844  -8.578   5.830  1.00  0.00     0.210 C 
ENDBRANCH   7  36
BRANCH   6  38
HETATM   38  O   UNL     1      40.745 -11.009   7.659  1.00  0.00    -0.347 OA
BRANCH  38  39
HETATM   39  C   UNL     1      41.593  -9.934   8.081  1.00  0.00     0.206 C 
BRANCH  39  40
HETATM   40  C   UNL     1      41.381  -9.757   9.594  1.00  0.00     0.299 C 
BRANCH  40  41
HETATM   41  N   UNL     1      41.612 -10.975  10.397  1.00  0.00     0.093 N 
HETATM   42  C   UNL     1      40.775 -11.050  11.611  1.00  0.00     0.300 C 
HETATM   43  C   UNL     1      41.182 -10.090  12.748  1.00  0.00     0.264 C 
HETATM   44  N   UNL     1      42.652 -10.276  13.088  1.00  0.00    -0.072 N 
HETATM   45  H   UNL     1      42.757 -11.242  13.427  1.00  0.00     0.279 HD
HETATM   46  C   UNL     1      43.094  -9.362  14.192  1.00  0.00     0.269 C 
HETATM   47  C   UNL     1      43.532 -10.151  11.854  1.00  0.00     0.264 C 
HETATM   48  C   UNL     1      43.040 -11.116  10.754  1.00  0.00     0.300 C 
ENDBRANCH  40  41
ENDBRANCH  39  40
ENDBRANCH  38  39
ENDBRANCH   6  38
TORSDOF 11
ENDMDL
MODEL 6
REMARK VINA RESULT:      -8.4      3.408      7.678
REMARK  11 active torsions:
REMARK  status: ('A' for Active; 'I' for Inactive)
REMARK    1  A    between atoms: C_2  and  C_3 
REMARK    2  A    between atoms: C_3  and  C_4 
REMARK       I    between atoms: C_4  and  N_6 
REMARK    3  A    between atoms: N_6  and  C_7 
REMARK    4  A    between atoms: C_11  and  C_13 
REMARK    5  A    between atoms: C_15  and  N_16 
REMARK    6  A    between atoms: N_16  and  C_17 
REMARK    7  A    between atoms: C_29  and  O_30 
REMARK    8  A    between atoms: O_30  and  C_31 
REMARK    9  A    between atoms: C_31  and  C_32 
REMARK   10  A    between atoms: C_32  and  N_33 
REMARK   11  A    between atoms: C_41  and  O_42 
ROOT
HETATM    1  C   UNL     1      42.427 -15.586   4.994  1.00  0.00     0.162 A 
HETATM    2  N   UNL     1      41.507 -15.913   4.076  1.00  0.00    -0.215 NA
HETATM    3  C   UNL     1      40.524 -15.040   3.829  1.00  0.00     0.122 A 
HETATM    4  C   UNL     1      40.444 -13.809   4.496  1.00  0.00     0.036 A 
HETATM    5  C   UNL     1      39.413 -12.856   4.299  1.00  0.00     0.057 A 
HETATM    6  C   UNL     1      39.401 -11.658   5.012  1.00  0.00     0.103 A 
HETATM    7  C   UNL     1      40.466 -11.381   5.871  1.00  0.00     0.103 A 
HETATM    8  C   UNL     1      41.470 -12.333   6.076  1.00  0.00     0.072 A 
HETATM    9  C   UNL     1      41.478 -13.546   5.402  1.00  0.00     0.075 A 
HETATM   10  N   UNL     1      42.462 -14.416   5.650  1.00  0.00    -0.228 NA
ENDROOT
BRANCH   1  11
HETATM   11  C   UNL     1      43.403 -16.626   5.359  1.00  0.00     0.014 A 
HETATM   12  C   UNL     1      44.233 -16.511   6.485  1.00  0.00     0.015 A 
HETATM   13  C   UNL     1      45.151 -17.512   6.804  1.00  0.00     0.003 A 
HETATM   14  C   UNL     1      45.243 -18.659   6.012  1.00  0.00     0.029 A 
HETATM   15  C   UNL     1      44.411 -18.820   4.901  1.00  0.00     0.035 A 
HETATM   16  C   UNL     1      43.517 -17.798   4.580  1.00  0.00     0.044 A 
BRANCH  15  17
HETATM   17  N   UNL     1      44.534 -20.011   4.152  1.00  0.00    -0.327 N 
HETATM   18  C   UNL     1      44.556 -21.307   4.647  1.00  0.00     0.222 C 
HETATM   19  O   UNL     1      44.564 -21.635   5.828  1.00  0.00    -0.273 OA
HETATM   20  H   UNL     1      44.688 -19.900   3.158  1.00  0.00     0.169 HD
BRANCH  18  21
HETATM   21  C   UNL     1      44.594 -22.336   3.528  1.00  0.00     0.103 C 
BRANCH  21  22
HETATM   22  C   UNL     1      44.596 -21.680   2.147  1.00  0.00     0.005 C 
HETATM   23  C   UNL     1      43.248 -21.807   1.461  1.00  0.00     0.005 C 
ENDBRANCH  21  22
ENDBRANCH  18  21
ENDBRANCH  15  17
ENDBRANCH   1  11
BRANCH   3  24
HETATM   24  N   UNL     1      39.488 -15.417   2.929  1.00  0.00    -0.243 NA
HETATM   25  H   UNL     1      39.406 -16.429   2.971  1.00  0.00     0.135 HD
BRANCH  24  26
HETATM   26  C   UNL     1      39.337 -14.959   1.593  1.00  0.00     0.015 A 
HETATM   27  C   UNL     1      38.114 -14.394   1.197  1.00  0.00     0.026 A 
HETATM   28  C   UNL     1      37.920 -13.857  -0.084  1.00  0.00     0.034 A 
HETATM   29  C   UNL     1      39.014 -13.877  -0.951  1.00  0.00     0.061 A 
HETATM   30  N   UNL     1      39.167 -13.449  -2.244  1.00  0.00    -0.278 N 
HETATM   31  C   UNL     1      40.252 -14.391  -0.588  1.00  0.00     0.013 A 
HETATM   32  H   UNL     1      38.466 -13.028  -2.842  1.00  0.00     0.189 HD
HETATM   33  N   UNL     1      40.406 -13.618  -2.736  1.00  0.00    -0.186 NA
HETATM   34  C   UNL     1      41.062 -14.202  -1.729  1.00  0.00     0.152 A 
HETATM   35  C   UNL     1      40.424 -14.927   0.701  1.00  0.00     0.039 A 
ENDBRANCH  24  26
ENDBRANCH   3  24
BRANCH   7  36
HETATM   36  O   UNL     1      40.565 -10.240   6.627  1.00  0.00    -0.353 OA
HETATM   37  C   UNL     1      40.451 -10.487   8.028  1.00  0.00     0.210 C 
ENDBRANCH   7  36
BRANCH   6  38
HETATM   38  O   UNL     1      38.404 -10.727   4.894  1.00  0.00    -0.347 OA
BRANCH  38  39
HETATM   39  C   UNL     1      38.292 -10.107   3.607  1.00  0.00     0.206 C 
BRANCH  39  40
HETATM   40  C   UNL     1      36.966  -9.329   3.593  1.00  0.00     0.299 C 
BRANCH  40  41
HETATM   41  N   UNL     1      36.652  -8.667   2.310  1.00  0.00     0.093 N 
HETATM   42  C   UNL     1      35.431  -7.837   2.358  1.00  0.00     0.300 C 
HETATM   43  C   UNL     1      34.105  -8.624   2.402  1.00  0.00     0.264 C 
HETATM   44  N   UNL     1      34.046  -9.616   1.250  1.00  0.00    -0.072 N 
HETATM   45  H   UNL     1      34.065  -9.061   0.384  1.00  0.00     0.279 HD
HETATM   46  C   UNL     1      32.772 -10.405   1.251  1.00  0.00     0.269 C 
HETATM   47  C   UNL     1      35.275 -10.511   1.219  1.00  0.00     0.264 C 
HETATM   48  C   UNL     1      36.556  -9.651   1.210  1.00  0.00     0.300 C 
ENDBRANCH  40  41
ENDBRANCH  39  40
ENDBRANCH  38  39
ENDBRANCH   6  38
TORSDOF 11
ENDMDL
MODEL 7
REMARK VINA RESULT:      -8.3      2.523      9.024
REMARK  11 active torsions:
REMARK  status: ('A' for Active; 'I' for Inactive)
REMARK    1  A    between atoms: C_2  and  C_3 
REMARK    2  A    between atoms: C_3  and  C_4 
REMARK       I    between atoms: C_4  and  N_6 
REMARK    3  A    between atoms: N_6  and  C_7 
REMARK    4  A    between atoms: C_11  and  C_13 
REMARK    5  A    between atoms: C_15  and  N_16 
REMARK    6  A    between atoms: N_16  and  C_17 
REMARK    7  A    between atoms: C_29  and  O_30 
REMARK    8  A    between atoms: O_30  and  C_31 
REMARK    9  A    between atoms: C_31  and  C_32 
REMARK   10  A    between atoms: C_32  and  N_33 
REMARK   11  A    between atoms: C_41  and  O_42 
ROOT
HETATM    1  C   UNL     1      40.395 -14.406   0.807  1.00  0.00     0.162 A 
HETATM    2  N   UNL     1      40.617 -15.435   1.637  1.00  0.00    -0.215 NA
HETATM    3  C   UNL     1      40.372 -15.258   2.941  1.00  0.00     0.122 A 
HETATM    4  C   UNL     1      39.890 -14.042   3.443  1.00  0.00     0.036 A 
HETATM    5  C   UNL     1      39.638 -13.785   4.815  1.00  0.00     0.057 A 
HETATM    6  C   UNL     1      39.168 -12.542   5.236  1.00  0.00     0.103 A 
HETATM    7  C   UNL     1      38.878 -11.575   4.270  1.00  0.00     0.103 A 
HETATM    8  C   UNL     1      39.147 -11.828   2.921  1.00  0.00     0.072 A 
HETATM    9  C   UNL     1      39.649 -13.047   2.488  1.00  0.00     0.075 A 
HETATM   10  N   UNL     1      39.891 -13.220   1.186  1.00  0.00    -0.228 NA
ENDROOT
BRANCH   1  11
HETATM   11  C   UNL     1      40.820 -14.575  -0.592  1.00  0.00     0.014 A 
HETATM   12  C   UNL     1      40.667 -15.790  -1.278  1.00  0.00     0.015 A 
HETATM   13  C   UNL     1      41.080 -15.921  -2.605  1.00  0.00     0.003 A 
HETATM   14  C   UNL     1      41.638 -14.831  -3.278  1.00  0.00     0.029 A 
HETATM   15  C   UNL     1      41.777 -13.598  -2.634  1.00  0.00     0.035 A 
HETATM   16  C   UNL     1      41.383 -13.490  -1.299  1.00  0.00     0.044 A 
BRANCH  15  17
HETATM   17  N   UNL     1      42.326 -12.527  -3.372  1.00  0.00    -0.327 N 
HETATM   18  C   UNL     1      41.630 -11.591  -4.123  1.00  0.00     0.222 C 
HETATM   19  O   UNL     1      40.424 -11.589  -4.349  1.00  0.00    -0.273 OA
HETATM   20  H   UNL     1      43.336 -12.480  -3.408  1.00  0.00     0.169 HD
BRANCH  18  21
HETATM   21  C   UNL     1      42.554 -10.524  -4.690  1.00  0.00     0.103 C 
BRANCH  21  22
HETATM   22  C   UNL     1      42.313  -9.158  -4.047  1.00  0.00     0.005 C 
HETATM   23  C   UNL     1      42.726  -9.143  -2.586  1.00  0.00     0.005 C 
ENDBRANCH  21  22
ENDBRANCH  18  21
ENDBRANCH  15  17
ENDBRANCH   1  11
BRANCH   3  24
HETATM   24  N   UNL     1      40.696 -16.310   3.843  1.00  0.00    -0.243 NA
HETATM   25  H   UNL     1      40.607 -15.938   4.784  1.00  0.00     0.135 HD
BRANCH  24  26
HETATM   26  C   UNL     1      41.823 -17.169   3.750  1.00  0.00     0.015 A 
HETATM   27  C   UNL     1      42.807 -17.119   4.752  1.00  0.00     0.026 A 
HETATM   28  C   UNL     1      43.908 -17.987   4.760  1.00  0.00     0.034 A 
HETATM   29  C   UNL     1      43.972 -18.937   3.740  1.00  0.00     0.061 A 
HETATM   30  N   UNL     1      44.891 -19.913   3.454  1.00  0.00    -0.278 N 
HETATM   31  C   UNL     1      43.003 -19.048   2.752  1.00  0.00     0.013 A 
HETATM   32  H   UNL     1      45.746 -20.124   3.955  1.00  0.00     0.189 HD
HETATM   33  N   UNL     1      44.581 -20.662   2.381  1.00  0.00    -0.186 NA
HETATM   34  C   UNL     1      43.437 -20.126   1.950  1.00  0.00     0.152 A 
HETATM   35  C   UNL     1      41.908 -18.165   2.761  1.00  0.00     0.039 A 
ENDBRANCH  24  26
ENDBRANCH   3  24
BRANCH   7  36
HETATM   36  O   UNL     1      38.415 -10.317   4.559  1.00  0.00    -0.353 OA
HETATM   37  C   UNL     1      37.643  -9.750   3.502  1.00  0.00     0.210 C 
ENDBRANCH   7  36
BRANCH   6  38
HETATM   38  O   UNL     1      38.955 -12.228   6.550  1.00  0.00    -0.347 OA
BRANCH  38  39
HETATM   39  C   UNL     1      40.002 -11.481   7.182  1.00  0.00     0.206 C 
BRANCH  39  40
HETATM   40  C   UNL     1      39.590 -11.276   8.649  1.00  0.00     0.299 C 
BRANCH  40  41
HETATM   41  N   UNL     1      40.117 -10.044   9.271  1.00  0.00     0.093 N 
HETATM   42  C   UNL     1      41.558  -9.831   9.030  1.00  0.00     0.300 C 
HETATM   43  C   UNL     1      42.500 -10.763   9.819  1.00  0.00     0.264 C 
HETATM   44  N   UNL     1      42.180 -10.695  11.304  1.00  0.00    -0.072 N 
HETATM   45  H   UNL     1      42.361  -9.726  11.600  1.00  0.00     0.279 HD
HETATM   46  C   UNL     1      43.073 -11.587  12.114  1.00  0.00     0.269 C 
HETATM   47  C   UNL     1      40.707 -10.962  11.573  1.00  0.00     0.264 C 
HETATM   48  C   UNL     1      39.834 -10.015  10.723  1.00  0.00     0.300 C 
ENDBRANCH  40  41
ENDBRANCH  39  40
ENDBRANCH  38  39
ENDBRANCH   6  38
TORSDOF 11
ENDMDL
MODEL 8
REMARK VINA RESULT:      -8.3      1.902      2.738
REMARK  11 active torsions:
REMARK  status: ('A' for Active; 'I' for Inactive)
REMARK    1  A    between atoms: C_2  and  C_3 
REMARK    2  A    between atoms: C_3  and  C_4 
REMARK       I    between atoms: C_4  and  N_6 
REMARK    3  A    between atoms: N_6  and  C_7 
REMARK    4  A    between atoms: C_11  and  C_13 
REMARK    5  A    between atoms: C_15  and  N_16 
REMARK    6  A    between atoms: N_16  and  C_17 
REMARK    7  A    between atoms: C_29  and  O_30 
REMARK    8  A    between atoms: O_30  and  C_31 
REMARK    9  A    between atoms: C_31  and  C_32 
REMARK   10  A    between atoms: C_32  and  N_33 
REMARK   11  A    between atoms: C_41  and  O_42 
ROOT
HETATM    1  C   UNL     1      40.397 -11.222   5.006  1.00  0.00     0.162 A 
HETATM    2  N   UNL     1      40.379 -12.562   5.053  1.00  0.00    -0.215 NA
HETATM    3  C   UNL     1      39.923 -13.224   3.984  1.00  0.00     0.122 A 
HETATM    4  C   UNL     1      39.480 -12.556   2.834  1.00  0.00     0.036 A 
HETATM    5  C   UNL     1      38.962 -13.200   1.682  1.00  0.00     0.057 A 
HETATM    6  C   UNL     1      38.531 -12.460   0.582  1.00  0.00     0.103 A 
HETATM    7  C   UNL     1      38.690 -11.073   0.605  1.00  0.00     0.103 A 
HETATM    8  C   UNL     1      39.185 -10.442   1.752  1.00  0.00     0.072 A 
HETATM    9  C   UNL     1      39.583 -11.160   2.870  1.00  0.00     0.075 A 
HETATM   10  N   UNL     1      40.039 -10.496   3.936  1.00  0.00    -0.228 NA
ENDROOT
BRANCH   1  11
HETATM   11  C   UNL     1      40.754 -10.516   6.248  1.00  0.00     0.014 A 
HETATM   12  C   UNL     1      40.443  -9.163   6.454  1.00  0.00     0.015 A 
HETATM   13  C   UNL     1      40.796  -8.520   7.642  1.00  0.00     0.003 A 
HETATM   14  C   UNL     1      41.449  -9.225   8.655  1.00  0.00     0.029 A 
HETATM   15  C   UNL     1      41.746 -10.581   8.495  1.00  0.00     0.035 A 
HETATM   16  C   UNL     1      41.411 -11.204   7.292  1.00  0.00     0.044 A 
BRANCH  15  17
HETATM   17  N   UNL     1      42.387 -11.246   9.563  1.00  0.00    -0.327 N 
HETATM   18  C   UNL     1      43.735 -11.194   9.887  1.00  0.00     0.222 C 
HETATM   19  O   UNL     1      44.617 -10.633   9.246  1.00  0.00    -0.273 OA
HETATM   20  H   UNL     1      41.812 -11.878  10.106  1.00  0.00     0.169 HD
BRANCH  18  21
HETATM   21  C   UNL     1      44.036 -11.958  11.167  1.00  0.00     0.103 C 
BRANCH  21  22
HETATM   22  C   UNL     1      43.214 -11.442  12.348  1.00  0.00     0.005 C 
HETATM   23  C   UNL     1      43.551 -10.000  12.681  1.00  0.00     0.005 C 
ENDBRANCH  21  22
ENDBRANCH  18  21
ENDBRANCH  15  17
ENDBRANCH   1  11
BRANCH   3  24
HETATM   24  N   UNL     1      39.806 -14.641   4.059  1.00  0.00    -0.243 NA
HETATM   25  H   UNL     1      39.291 -14.856   4.909  1.00  0.00     0.135 HD
BRANCH  24  26
HETATM   26  C   UNL     1      40.857 -15.575   3.863  1.00  0.00     0.015 A 
HETATM   27  C   UNL     1      41.072 -16.577   4.824  1.00  0.00     0.026 A 
HETATM   28  C   UNL     1      42.045 -17.573   4.659  1.00  0.00     0.034 A 
HETATM   29  C   UNL     1      42.779 -17.550   3.473  1.00  0.00     0.061 A 
HETATM   30  N   UNL     1      43.784 -18.354   3.002  1.00  0.00    -0.278 N 
HETATM   31  C   UNL     1      42.574 -16.602   2.479  1.00  0.00     0.013 A 
HETATM   32  H   UNL     1      44.209 -19.149   3.465  1.00  0.00     0.189 HD
HETATM   33  N   UNL     1      44.226 -18.021   1.776  1.00  0.00    -0.186 NA
HETATM   34  C   UNL     1      43.494 -16.947   1.465  1.00  0.00     0.152 A 
HETATM   35  C   UNL     1      41.595 -15.610   2.666  1.00  0.00     0.039 A 
ENDBRANCH  24  26
ENDBRANCH   3  24
BRANCH   7  36
HETATM   36  O   UNL     1      38.304 -10.239  -0.413  1.00  0.00    -0.353 OA
HETATM   37  C   UNL     1      39.368  -9.921  -1.309  1.00  0.00     0.210 C 
ENDBRANCH   7  36
BRANCH   6  38
HETATM   38  O   UNL     1      37.979 -13.030  -0.533  1.00  0.00    -0.347 OA
BRANCH  38  39
HETATM   39  C   UNL     1      38.718 -14.121  -1.096  1.00  0.00     0.206 C 
BRANCH  39  40
HETATM   40  C   UNL     1      39.653 -13.532  -2.165  1.00  0.00     0.299 C 
BRANCH  40  41
HETATM   41  N   UNL     1      41.040 -14.038  -2.119  1.00  0.00     0.093 N 
HETATM   42  C   UNL     1      41.686 -13.871  -0.801  1.00  0.00     0.300 C 
HETATM   43  C   UNL     1      42.086 -12.424  -0.446  1.00  0.00     0.264 C 
HETATM   44  N   UNL     1      42.944 -11.832  -1.553  1.00  0.00    -0.072 N 
HETATM   45  H   UNL     1      43.800 -12.402  -1.599  1.00  0.00     0.279 HD
HETATM   46  C   UNL     1      43.359 -10.424  -1.251  1.00  0.00     0.269 C 
HETATM   47  C   UNL     1      42.269 -11.952  -2.910  1.00  0.00     0.264 C 
HETATM   48  C   UNL     1      41.870 -13.420  -3.175  1.00  0.00     0.300 C 
ENDBRANCH  40  41
ENDBRANCH  39  40
ENDBRANCH  38  39
ENDBRANCH   6  38
TORSDOF 11
ENDMDL
MODEL 9
REMARK VINA RESULT:      -8.2      3.926      8.170
REMARK  11 active torsions:
REMARK  status: ('A' for Active; 'I' for Inactive)
REMARK    1  A    between atoms: C_2  and  C_3 
REMARK    2  A    between atoms: C_3  and  C_4 
REMARK       I    between atoms: C_4  and  N_6 
REMARK    3  A    between atoms: N_6  and  C_7 
REMARK    4  A    between atoms: C_11  and  C_13 
REMARK    5  A    between atoms: C_15  and  N_16 
REMARK    6  A    between atoms: N_16  and  C_17 
REMARK    7  A    between atoms: C_29  and  O_30 
REMARK    8  A    between atoms: O_30  and  C_31 
REMARK    9  A    between atoms: C_31  and  C_32 
REMARK   10  A    between atoms: C_32  and  N_33 
REMARK   11  A    between atoms: C_41  and  O_42 
ROOT
HETATM    1  C   UNL     1      40.490 -13.992   4.356  1.00  0.00     0.162 A 
HETATM    2  N   UNL     1      40.169 -13.894   3.059  1.00  0.00    -0.215 NA
HETATM    3  C   UNL     1      39.605 -12.757   2.634  1.00  0.00     0.122 A 
HETATM    4  C   UNL     1      39.356 -11.685   3.503  1.00  0.00     0.036 A 
HETATM    5  C   UNL     1      38.738 -10.469   3.119  1.00  0.00     0.057 A 
HETATM    6  C   UNL     1      38.516  -9.454   4.048  1.00  0.00     0.103 A 
HETATM    7  C   UNL     1      38.984  -9.629   5.352  1.00  0.00     0.103 A 
HETATM    8  C   UNL     1      39.576 -10.838   5.730  1.00  0.00     0.072 A 
HETATM    9  C   UNL     1      39.771 -11.873   4.826  1.00  0.00     0.075 A 
HETATM   10  N   UNL     1      40.335 -13.006   5.254  1.00  0.00    -0.228 NA
ENDROOT
BRANCH   1  11
HETATM   11  C   UNL     1      40.963 -15.305   4.828  1.00  0.00     0.014 A 
HETATM   12  C   UNL     1      40.705 -15.769   6.127  1.00  0.00     0.015 A 
HETATM   13  C   UNL     1      41.168 -17.018   6.546  1.00  0.00     0.003 A 
HETATM   14  C   UNL     1      41.880 -17.835   5.666  1.00  0.00     0.029 A 
HETATM   15  C   UNL     1      42.128 -17.416   4.356  1.00  0.00     0.035 A 
HETATM   16  C   UNL     1      41.682 -16.154   3.959  1.00  0.00     0.044 A 
BRANCH  15  17
HETATM   17  N   UNL     1      42.833 -18.295   3.505  1.00  0.00    -0.327 N 
HETATM   18  C   UNL     1      42.608 -18.502   2.151  1.00  0.00     0.222 C 
HETATM   19  O   UNL     1      41.697 -18.025   1.483  1.00  0.00    -0.273 OA
HETATM   20  H   UNL     1      43.531 -18.881   3.945  1.00  0.00     0.169 HD
BRANCH  18  21
HETATM   21  C   UNL     1      43.636 -19.445   1.548  1.00  0.00     0.103 C 
BRANCH  21  22
HETATM   22  C   UNL     1      44.136 -20.473   2.563  1.00  0.00     0.005 C 
HETATM   23  C   UNL     1      44.262 -21.856   1.950  1.00  0.00     0.005 C 
ENDBRANCH  21  22
ENDBRANCH  18  21
ENDBRANCH  15  17
ENDBRANCH   1  11
BRANCH   3  24
HETATM   24  N   UNL     1      39.169 -12.678   1.281  1.00  0.00    -0.243 NA
HETATM   25  H   UNL     1      38.262 -13.134   1.229  1.00  0.00     0.135 HD
BRANCH  24  26
HETATM   26  C   UNL     1      39.948 -12.986   0.135  1.00  0.00     0.015 A 
HETATM   27  C   UNL     1      41.167 -12.316  -0.065  1.00  0.00     0.026 A 
HETATM   28  C   UNL     1      42.019 -12.622  -1.135  1.00  0.00     0.034 A 
HETATM   29  C   UNL     1      41.621 -13.653  -1.987  1.00  0.00     0.061 A 
HETATM   30  N   UNL     1      42.202 -14.193  -3.105  1.00  0.00    -0.278 N 
HETATM   31  C   UNL     1      40.444 -14.368  -1.805  1.00  0.00     0.013 A 
HETATM   32  H   UNL     1      43.070 -13.915  -3.547  1.00  0.00     0.189 HD
HETATM   33  N   UNL     1      41.512 -15.215  -3.643  1.00  0.00    -0.186 NA
HETATM   34  C   UNL     1      40.437 -15.311  -2.855  1.00  0.00     0.152 A 
HETATM   35  C   UNL     1      39.602 -14.042  -0.726  1.00  0.00     0.039 A 
ENDBRANCH  24  26
ENDBRANCH   3  24
BRANCH   7  36
HETATM   36  O   UNL     1      38.824  -8.706   6.355  1.00  0.00    -0.353 OA
HETATM   37  C   UNL     1      39.146  -9.222   7.645  1.00  0.00     0.210 C 
ENDBRANCH   7  36
BRANCH   6  38
HETATM   38  O   UNL     1      37.881  -8.282   3.739  1.00  0.00    -0.347 OA
BRANCH  38  39
HETATM   39  C   UNL     1      36.612  -8.423   3.090  1.00  0.00     0.206 C 
BRANCH  39  40
HETATM   40  C   UNL     1      35.568  -8.689   4.188  1.00  0.00     0.299 C 
BRANCH  40  41
HETATM   41  N   UNL     1      34.245  -8.081   3.942  1.00  0.00     0.093 N 
HETATM   42  C   UNL     1      33.232  -8.442   4.954  1.00  0.00     0.300 C 
HETATM   43  C   UNL     1      32.705  -9.890   4.867  1.00  0.00     0.264 C 
HETATM   44  N   UNL     1      32.199 -10.179   3.463  1.00  0.00    -0.072 N 
HETATM   45  H   UNL     1      31.412  -9.538   3.295  1.00  0.00     0.279 HD
HETATM   46  C   UNL     1      31.675 -11.577   3.330  1.00  0.00     0.269 C 
HETATM   47  C   UNL     1      33.251  -9.858   2.411  1.00  0.00     0.264 C 
HETATM   48  C   UNL     1      33.750  -8.408   2.587  1.00  0.00     0.300 C 
ENDBRANCH  40  41
ENDBRANCH  39  40
ENDBRANCH  38  39
ENDBRANCH   6  38
TORSDOF 11
ENDMDL
MODEL 10
REMARK VINA RESULT:      -8.2      2.208      3.233
REMARK  11 active torsions:
REMARK  status: ('A' for Active; 'I' for Inactive)
REMARK    1  A    between atoms: C_2  and  C_3 
REMARK    2  A    between atoms: C_3  and  C_4 
REMARK       I    between atoms: C_4  and  N_6 
REMARK    3  A    between atoms: N_6  and  C_7 
REMARK    4  A    between atoms: C_11  and  C_13 
REMARK    5  A    between atoms: C_15  and  N_16 
REMARK    6  A    between atoms: N_16  and  C_17 
REMARK    7  A    between atoms: C_29  and  O_30 
REMARK    8  A    between atoms: O_30  and  C_31 
REMARK    9  A    between atoms: C_31  and  C_32 
REMARK   10  A    between atoms: C_32  and  N_33 
REMARK   11  A    between atoms: C_41  and  O_42 
ROOT
HETATM    1  C   UNL     1      40.418 -11.895   5.632  1.00  0.00     0.162 A 
HETATM    2  N   UNL     1      40.364 -13.224   5.796  1.00  0.00    -0.215 NA
HETATM    3  C   UNL     1      40.241 -13.990   4.705  1.00  0.00     0.122 A 
HETATM    4  C   UNL     1      40.176 -13.438   3.419  1.00  0.00     0.036 A 
HETATM    5  C   UNL     1      40.018 -14.194   2.229  1.00  0.00     0.057 A 
HETATM    6  C   UNL     1      39.952 -13.566   0.986  1.00  0.00     0.103 A 
HETATM    7  C   UNL     1      40.120 -12.181   0.928  1.00  0.00     0.103 A 
HETATM    8  C   UNL     1      40.256 -11.439   2.105  1.00  0.00     0.072 A 
HETATM    9  C   UNL     1      40.287 -12.044   3.354  1.00  0.00     0.075 A 
HETATM   10  N   UNL     1      40.412 -11.277   4.440  1.00  0.00    -0.228 NA
ENDROOT
BRANCH   1  11
HETATM   11  C   UNL     1      40.396 -11.072   6.852  1.00  0.00     0.014 A 
HETATM   12  C   UNL     1      39.517  -9.989   7.006  1.00  0.00     0.015 A 
HETATM   13  C   UNL     1      39.519  -9.224   8.175  1.00  0.00     0.003 A 
HETATM   14  C   UNL     1      40.390  -9.542   9.220  1.00  0.00     0.029 A 
HETATM   15  C   UNL     1      41.256 -10.633   9.111  1.00  0.00     0.035 A 
HETATM   16  C   UNL     1      41.261 -11.371   7.927  1.00  0.00     0.044 A 
BRANCH  15  17
HETATM   17  N   UNL     1      42.096 -10.919  10.210  1.00  0.00    -0.327 N 
HETATM   18  C   UNL     1      43.479 -10.817  10.249  1.00  0.00     0.222 C 
HETATM   19  O   UNL     1      44.217 -10.548   9.306  1.00  0.00    -0.273 OA
HETATM   20  H   UNL     1      41.644 -11.301  11.031  1.00  0.00     0.169 HD
BRANCH  18  21
HETATM   21  C   UNL     1      44.026 -11.109  11.637  1.00  0.00     0.103 C 
BRANCH  21  22
HETATM   22  C   UNL     1      43.010 -10.786  12.732  1.00  0.00     0.005 C 
HETATM   23  C   UNL     1      43.350  -9.494  13.453  1.00  0.00     0.005 C 
ENDBRANCH  21  22
ENDBRANCH  18  21
ENDBRANCH  15  17
ENDBRANCH   1  11
BRANCH   3  24
HETATM   24  N   UNL     1      40.083 -15.395   4.874  1.00  0.00    -0.243 NA
HETATM   25  H   UNL     1      39.325 -15.535   5.537  1.00  0.00     0.135 HD
BRANCH  24  26
HETATM   26  C   UNL     1      41.127 -16.329   5.104  1.00  0.00     0.015 A 
HETATM   27  C   UNL     1      41.516 -16.610   6.424  1.00  0.00     0.026 A 
HETATM   28  C   UNL     1      42.490 -17.573   6.726  1.00  0.00     0.034 A 
HETATM   29  C   UNL     1      43.042 -18.273   5.653  1.00  0.00     0.061 A 
HETATM   30  N   UNL     1      43.996 -19.255   5.593  1.00  0.00    -0.278 N 
HETATM   31  C   UNL     1      42.660 -18.055   4.336  1.00  0.00     0.013 A 
HETATM   32  H   UNL     1      44.512 -19.664   6.364  1.00  0.00     0.189 HD
HETATM   33  N   UNL     1      44.242 -19.708   4.351  1.00  0.00    -0.186 NA
HETATM   34  C   UNL     1      43.435 -18.967   3.587  1.00  0.00     0.152 A 
HETATM   35  C   UNL     1      41.684 -17.082   4.055  1.00  0.00     0.039 A 
ENDBRANCH  24  26
ENDBRANCH   3  24
BRANCH   7  36
HETATM   36  O   UNL     1      40.072 -11.451  -0.233  1.00  0.00    -0.353 OA
HETATM   37  C   UNL     1      40.838 -10.249  -0.168  1.00  0.00     0.210 C 
ENDBRANCH   7  36
BRANCH   6  38
HETATM   38  O   UNL     1      39.753 -14.245  -0.185  1.00  0.00    -0.347 OA
BRANCH  38  39
HETATM   39  C   UNL     1      40.939 -14.555  -0.926  1.00  0.00     0.206 C 
BRANCH  39  40
HETATM   40  C   UNL     1      40.598 -15.731  -1.856  1.00  0.00     0.299 C 
BRANCH  40  41
HETATM   41  N   UNL     1      40.611 -15.403  -3.296  1.00  0.00     0.093 N 
HETATM   42  C   UNL     1      40.676 -13.953  -3.570  1.00  0.00     0.300 C 
HETATM   43  C   UNL     1      39.374 -13.174  -3.292  1.00  0.00     0.264 C 
HETATM   44  N   UNL     1      38.211 -13.817  -4.031  1.00  0.00    -0.072 N 
HETATM   45  H   UNL     1      38.423 -13.744  -5.035  1.00  0.00     0.279 HD
HETATM   46  C   UNL     1      36.921 -13.092  -3.790  1.00  0.00     0.269 C 
HETATM   47  C   UNL     1      38.101 -15.302  -3.719  1.00  0.00     0.264 C 
HETATM   48  C   UNL     1      39.450 -16.001  -3.990  1.00  0.00     0.300 C 
ENDBRANCH  40  41
ENDBRANCH  39  40
ENDBRANCH  38  39
ENDBRANCH   6  38
TORSDOF 11
ENDMDL
