MODEL 1
REMARK VINA RESULT:      -8.1      0.000      0.000
REMARK  8 active torsions:
REMARK  status: ('A' for Active; 'I' for Inactive)
REMARK    1  A    between atoms: C_2  and  N_3 
REMARK       I    between atoms: N_3  and  C_4 
REMARK    2  A    between atoms: C_4  and  C_5 
REMARK    3  A    between atoms: C_5  and  C_6 
REMARK    4  A    between atoms: C_10  and  C_11 
REMARK    5  A    between atoms: C_11  and  O_12 
REMARK    6  A    between atoms: C_14  and  O_15 
REMARK    7  A    between atoms: C_22  and  N_23 
REMARK       I    between atoms: N_23  and  C_24 
REMARK    8  A    between atoms: C_24  and  C_25 
ROOT
HETATM    1  C   UNL     1      41.786 -13.439   2.513  1.00  0.00     0.056 C 
HETATM    2  C   UNL     1      40.570 -12.616   1.890  1.00  0.00    -0.030 C 
HETATM    3  C   UNL     1      39.327 -12.732   2.833  1.00  0.00     0.016 C 
HETATM    4  C   UNL     1      40.117 -13.157   0.464  1.00  0.00     0.012 C 
HETATM    5  C   UNL     1      40.928 -12.675  -0.814  1.00  0.00     0.008 C 
HETATM    6  C   UNL     1      39.900 -12.598  -1.988  1.00  0.00     0.020 C 
HETATM    7  C   UNL     1      41.489 -11.231  -0.619  1.00  0.00     0.128 C 
HETATM    8  C   UNL     1      40.741 -10.458   0.463  1.00  0.00     0.033 C 
HETATM    9  C   UNL     1      40.949 -11.103   1.831  1.00  0.00     0.013 C 
HETATM   10  C   UNL     1      39.791 -14.676   0.478  1.00  0.00     0.055 C 
HETATM   11  C   UNL     1      40.755 -15.438   1.308  1.00  0.00     0.012 A 
HETATM   12  C   UNL     1      41.618 -14.918   2.252  1.00  0.00     0.056 A 
HETATM   13  N   UNL     1      42.365 -15.866   2.936  1.00  0.00    -0.227 NA
HETATM   14  C   UNL     1      42.094 -17.052   2.454  1.00  0.00     0.174 A 
HETATM   15  S   UNL     1      40.913 -17.130   1.223  1.00  0.00    -0.055 SA
ENDROOT
BRANCH  14  16
HETATM   16  N   UNL     1      42.618 -18.265   2.779  1.00  0.00    -0.300 N 
HETATM   17  C   UNL     1      43.835 -18.708   2.323  1.00  0.00     0.281 C 
HETATM   18  O   UNL     1      44.630 -18.060   1.652  1.00  0.00    -0.265 OA
HETATM   19  H   UNL     1      42.065 -18.877   3.361  1.00  0.00     0.171 HD
BRANCH  17  20
HETATM   20  C   UNL     1      44.108 -20.072   2.742  1.00  0.00     0.142 A 
HETATM   21  O   UNL     1      44.585 -20.306   4.009  1.00  0.00    -0.317 OA
HETATM   22  C   UNL     1      44.738 -21.647   4.139  1.00  0.00     0.143 A 
HETATM   23  C   UNL     1      44.374 -22.290   2.980  1.00  0.00     0.027 A 
HETATM   24  C   UNL     1      43.968 -21.277   2.079  1.00  0.00     0.045 A 
ENDBRANCH  17  20
ENDBRANCH  14  16
BRANCH   1  25
HETATM   25  C   UNL     1      42.008 -13.138   4.010  1.00  0.00     0.114 C 
BRANCH  25  26
HETATM   26  C   UNL     1      43.312 -13.685   4.557  1.00  0.00     0.218 C 
HETATM   27  N   UNL     1      43.213 -14.327   5.763  1.00  0.00    -0.357 N 
HETATM   28  H   UNL     1      42.276 -14.516   6.130  1.00  0.00     0.162 HD
HETATM   29  O   UNL     1      44.371 -13.502   3.957  1.00  0.00    -0.274 OA
BRANCH  27  30
HETATM   30  C   UNL     1      44.339 -14.776   6.567  1.00  0.00     0.076 C 
HETATM   31  C   UNL     1      44.014 -16.066   7.318  1.00  0.00     0.032 C 
HETATM   32  C   UNL     1      44.868 -13.696   7.507  1.00  0.00     0.032 C 
ENDBRANCH  27  30
ENDBRANCH  25  26
ENDBRANCH   1  25
BRANCH   5  33
HETATM   33  C   UNL     1      42.034 -13.644  -1.307  1.00  0.00     0.176 C 
BRANCH  33  34
HETATM   34  O   UNL     1      42.737 -13.159  -2.435  1.00  0.00    -0.400 OA
HETATM   35  H   UNL     1      42.267 -12.335  -2.695  1.00  0.00     0.209 HD
ENDBRANCH  33  34
ENDBRANCH   5  33
BRANCH   7  36
HETATM   36  O   UNL     1      42.880 -11.259  -0.282  1.00  0.00    -0.395 OA
HETATM   37  H   UNL     1      43.039 -12.066   0.244  1.00  0.00     0.210 HD
ENDBRANCH   7  36
TORSDOF 8
ENDMDL
MODEL 2
REMARK VINA RESULT:      -8.1      2.553      7.563
REMARK  8 active torsions:
REMARK  status: ('A' for Active; 'I' for Inactive)
REMARK    1  A    between atoms: C_2  and  N_3 
REMARK       I    between atoms: N_3  and  C_4 
REMARK    2  A    between atoms: C_4  and  C_5 
REMARK    3  A    between atoms: C_5  and  C_6 
REMARK    4  A    between atoms: C_10  and  C_11 
REMARK    5  A    between atoms: C_11  and  O_12 
REMARK    6  A    between atoms: C_14  and  O_15 
REMARK    7  A    between atoms: C_22  and  N_23 
REMARK       I    between atoms: N_23  and  C_24 
REMARK    8  A    between atoms: C_24  and  C_25 
ROOT
HETATM    1  C   UNL     1      41.983 -15.871   1.709  1.00  0.00     0.056 C 
HETATM    2  C   UNL     1      40.978 -16.322   2.862  1.00  0.00    -0.030 C 
HETATM    3  C   UNL     1      39.811 -17.156   2.237  1.00  0.00     0.016 C 
HETATM    4  C   UNL     1      40.309 -15.093   3.620  1.00  0.00     0.012 C 
HETATM    5  C   UNL     1      41.130 -14.395   4.788  1.00  0.00     0.008 C 
HETATM    6  C   UNL     1      40.081 -13.905   5.837  1.00  0.00     0.020 C 
HETATM    7  C   UNL     1      42.052 -15.418   5.524  1.00  0.00     0.128 C 
HETATM    8  C   UNL     1      41.598 -16.861   5.321  1.00  0.00     0.033 C 
HETATM    9  C   UNL     1      41.724 -17.266   3.855  1.00  0.00     0.013 C 
HETATM   10  C   UNL     1      39.610 -14.102   2.651  1.00  0.00     0.055 C 
HETATM   11  C   UNL     1      40.401 -13.891   1.414  1.00  0.00     0.012 A 
HETATM   12  C   UNL     1      41.428 -14.688   0.950  1.00  0.00     0.056 A 
HETATM   13  N   UNL     1      41.953 -14.298  -0.274  1.00  0.00    -0.227 NA
HETATM   14  C   UNL     1      41.358 -13.200  -0.664  1.00  0.00     0.174 A 
HETATM   15  S   UNL     1      40.118 -12.598   0.344  1.00  0.00    -0.055 SA
ENDROOT
BRANCH  14  16
HETATM   16  N   UNL     1      41.578 -12.434  -1.768  1.00  0.00    -0.300 N 
HETATM   17  C   UNL     1      42.540 -11.459  -1.830  1.00  0.00     0.281 C 
HETATM   18  O   UNL     1      43.365 -11.206  -0.960  1.00  0.00    -0.265 OA
HETATM   19  H   UNL     1      40.978 -12.578  -2.567  1.00  0.00     0.171 HD
BRANCH  17  20
HETATM   20  C   UNL     1      42.494 -10.730  -3.087  1.00  0.00     0.142 A 
HETATM   21  O   UNL     1      42.522  -9.357  -3.072  1.00  0.00    -0.317 OA
HETATM   22  C   UNL     1      42.482  -8.940  -4.362  1.00  0.00     0.143 A 
HETATM   23  C   UNL     1      42.424 -10.016  -5.216  1.00  0.00     0.027 A 
HETATM   24  C   UNL     1      42.432 -11.171  -4.396  1.00  0.00     0.045 A 
ENDBRANCH  17  20
ENDBRANCH  14  16
BRANCH   1  25
HETATM   25  C   UNL     1      42.372 -17.030   0.767  1.00  0.00     0.114 C 
BRANCH  25  26
HETATM   26  C   UNL     1      43.567 -17.831   1.245  1.00  0.00     0.218 C 
HETATM   27  N   UNL     1      43.297 -19.130   1.589  1.00  0.00    -0.357 N 
HETATM   28  H   UNL     1      42.369 -19.501   1.369  1.00  0.00     0.162 HD
HETATM   29  O   UNL     1      44.675 -17.306   1.351  1.00  0.00    -0.274 OA
BRANCH  27  30
HETATM   30  C   UNL     1      44.233 -20.036   2.237  1.00  0.00     0.076 C 
HETATM   31  C   UNL     1      43.934 -21.494   1.890  1.00  0.00     0.032 C 
HETATM   32  C   UNL     1      44.321 -19.823   3.745  1.00  0.00     0.032 C 
ENDBRANCH  27  30
ENDBRANCH  25  26
ENDBRANCH   1  25
BRANCH   5  33
HETATM   33  C   UNL     1      41.919 -13.123   4.381  1.00  0.00     0.176 C 
BRANCH  33  34
HETATM   34  O   UNL     1      42.541 -12.480   5.476  1.00  0.00    -0.400 OA
HETATM   35  H   UNL     1      42.999 -11.701   5.089  1.00  0.00     0.209 HD
ENDBRANCH  33  34
ENDBRANCH   5  33
BRANCH   7  36
HETATM   36  O   UNL     1      43.409 -15.300   5.085  1.00  0.00    -0.395 OA
HETATM   37  H   UNL     1      43.646 -14.354   5.113  1.00  0.00     0.210 HD
ENDBRANCH   7  36
TORSDOF 8
ENDMDL
MODEL 3
REMARK VINA RESULT:      -7.5      1.564      1.905
REMARK  8 active torsions:
REMARK  status: ('A' for Active; 'I' for Inactive)
REMARK    1  A    between atoms: C_2  and  N_3 
REMARK       I    between atoms: N_3  and  C_4 
REMARK    2  A    between atoms: C_4  and  C_5 
REMARK    3  A    between atoms: C_5  and  C_6 
REMARK    4  A    between atoms: C_10  and  C_11 
REMARK    5  A    between atoms: C_11  and  O_12 
REMARK    6  A    between atoms: C_14  and  O_15 
REMARK    7  A    between atoms: C_22  and  N_23 
REMARK       I    between atoms: N_23  and  C_24 
REMARK    8  A    between atoms: C_24  and  C_25 
ROOT
HETATM    1  C   UNL     1      40.156 -13.502   2.244  1.00  0.00     0.056 C 
HETATM    2  C   UNL     1      39.271 -12.640   1.236  1.00  0.00    -0.030 C 
HETATM    3  C   UNL     1      37.821 -13.225   1.188  1.00  0.00     0.016 C 
HETATM    4  C   UNL     1      39.825 -12.664  -0.255  1.00  0.00     0.012 C 
HETATM    5  C   UNL     1      40.999 -11.663  -0.636  1.00  0.00     0.008 C 
HETATM    6  C   UNL     1      40.779 -11.269  -2.131  1.00  0.00     0.020 C 
HETATM    7  C   UNL     1      40.910 -10.343   0.191  1.00  0.00     0.128 C 
HETATM    8  C   UNL     1      39.512 -10.104   0.757  1.00  0.00     0.033 C 
HETATM    9  C   UNL     1      39.150 -11.181   1.775  1.00  0.00     0.013 C 
HETATM   10  C   UNL     1      40.015 -14.107  -0.799  1.00  0.00     0.055 C 
HETATM   11  C   UNL     1      40.572 -15.015   0.233  1.00  0.00     0.012 A 
HETATM   12  C   UNL     1      40.604 -14.791   1.594  1.00  0.00     0.056 A 
HETATM   13  N   UNL     1      41.122 -15.840   2.339  1.00  0.00    -0.227 NA
HETATM   14  C   UNL     1      41.516 -16.787   1.528  1.00  0.00     0.174 A 
HETATM   15  S   UNL     1      41.250 -16.531  -0.139  1.00  0.00    -0.055 SA
ENDROOT
BRANCH  14  16
HETATM   16  N   UNL     1      42.126 -17.973   1.803  1.00  0.00    -0.300 N 
HETATM   17  C   UNL     1      43.212 -18.088   2.634  1.00  0.00     0.281 C 
HETATM   18  O   UNL     1      43.714 -17.182   3.289  1.00  0.00    -0.265 OA
HETATM   19  H   UNL     1      41.774 -18.801   1.345  1.00  0.00     0.171 HD
BRANCH  17  20
HETATM   20  C   UNL     1      43.723 -19.448   2.674  1.00  0.00     0.142 A 
HETATM   21  O   UNL     1      44.503 -19.843   3.734  1.00  0.00    -0.317 OA
HETATM   22  C   UNL     1      44.828 -21.144   3.529  1.00  0.00     0.143 A 
HETATM   23  C   UNL     1      44.280 -21.600   2.354  1.00  0.00     0.027 A 
HETATM   24  C   UNL     1      43.567 -20.509   1.802  1.00  0.00     0.045 A 
ENDBRANCH  17  20
ENDBRANCH  14  16
BRANCH   1  25
HETATM   25  C   UNL     1      39.453 -13.752   3.595  1.00  0.00     0.114 C 
BRANCH  25  26
HETATM   26  C   UNL     1      40.360 -13.575   4.798  1.00  0.00     0.218 C 
HETATM   27  N   UNL     1      41.488 -14.352   4.795  1.00  0.00    -0.357 N 
HETATM   28  H   UNL     1      41.710 -14.872   3.941  1.00  0.00     0.162 HD
HETATM   29  O   UNL     1      40.046 -12.818   5.716  1.00  0.00    -0.274 OA
BRANCH  27  30
HETATM   30  C   UNL     1      42.412 -14.491   5.910  1.00  0.00     0.076 C 
HETATM   31  C   UNL     1      43.805 -13.972   5.554  1.00  0.00     0.032 C 
HETATM   32  C   UNL     1      42.467 -15.912   6.464  1.00  0.00     0.032 C 
ENDBRANCH  27  30
ENDBRANCH  25  26
ENDBRANCH   1  25
BRANCH   5  33
HETATM   33  C   UNL     1      42.429 -12.261  -0.582  1.00  0.00     0.176 C 
BRANCH  33  34
HETATM   34  O   UNL     1      43.434 -11.334  -0.943  1.00  0.00    -0.400 OA
HETATM   35  H   UNL     1      43.558 -10.769  -0.148  1.00  0.00     0.209 HD
ENDBRANCH  33  34
ENDBRANCH   5  33
BRANCH   7  36
HETATM   36  O   UNL     1      41.846 -10.346   1.274  1.00  0.00    -0.395 OA
HETATM   37  H   UNL     1      42.629  -9.839   0.986  1.00  0.00     0.210 HD
ENDBRANCH   7  36
TORSDOF 8
ENDMDL
MODEL 4
REMARK VINA RESULT:      -7.5      2.509      7.074
REMARK  8 active torsions:
REMARK  status: ('A' for Active; 'I' for Inactive)
REMARK    1  A    between atoms: C_2  and  N_3 
REMARK       I    between atoms: N_3  and  C_4 
REMARK    2  A    between atoms: C_4  and  C_5 
REMARK    3  A    between atoms: C_5  and  C_6 
REMARK    4  A    between atoms: C_10  and  C_11 
REMARK    5  A    between atoms: C_11  and  O_12 
REMARK    6  A    between atoms: C_14  and  O_15 
REMARK    7  A    between atoms: C_22  and  N_23 
REMARK       I    between atoms: N_23  and  C_24 
REMARK    8  A    between atoms: C_24  and  C_25 
ROOT
HETATM    1  C   UNL     1      41.598 -15.973   3.575  1.00  0.00     0.056 C 
HETATM    2  C   UNL     1      41.522 -15.711   5.146  1.00  0.00    -0.030 C 
HETATM    3  C   UNL     1      40.416 -16.624   5.771  1.00  0.00     0.016 C 
HETATM    4  C   UNL     1      41.138 -14.210   5.509  1.00  0.00     0.012 C 
HETATM    5  C   UNL     1      42.294 -13.120   5.516  1.00  0.00     0.008 C 
HETATM    6  C   UNL     1      41.922 -12.086   6.625  1.00  0.00     0.020 C 
HETATM    7  C   UNL     1      43.663 -13.747   5.931  1.00  0.00     0.128 C 
HETATM    8  C   UNL     1      43.494 -15.056   6.696  1.00  0.00     0.033 C 
HETATM    9  C   UNL     1      42.874 -16.128   5.804  1.00  0.00     0.013 C 
HETATM   10  C   UNL     1      39.827 -13.745   4.819  1.00  0.00     0.055 C 
HETATM   11  C   UNL     1      39.736 -14.236   3.422  1.00  0.00     0.012 A 
HETATM   12  C   UNL     1      40.478 -15.254   2.859  1.00  0.00     0.056 A 
HETATM   13  N   UNL     1      40.142 -15.556   1.547  1.00  0.00    -0.227 NA
HETATM   14  C   UNL     1      39.212 -14.728   1.143  1.00  0.00     0.174 A 
HETATM   15  S   UNL     1      38.640 -13.598   2.287  1.00  0.00    -0.055 SA
ENDROOT
BRANCH  14  16
HETATM   16  N   UNL     1      38.615 -14.615  -0.075  1.00  0.00    -0.300 N 
HETATM   17  C   UNL     1      39.193 -13.974  -1.142  1.00  0.00     0.281 C 
HETATM   18  O   UNL     1      40.324 -13.503  -1.170  1.00  0.00    -0.265 OA
HETATM   19  H   UNL     1      37.688 -15.001  -0.183  1.00  0.00     0.171 HD
BRANCH  17  20
HETATM   20  C   UNL     1      38.301 -13.915  -2.288  1.00  0.00     0.142 A 
HETATM   21  O   UNL     1      37.729 -12.716  -2.636  1.00  0.00    -0.317 OA
HETATM   22  C   UNL     1      36.963 -12.940  -3.733  1.00  0.00     0.143 A 
HETATM   23  C   UNL     1      37.023 -14.263  -4.102  1.00  0.00     0.027 A 
HETATM   24  C   UNL     1      37.885 -14.893  -3.172  1.00  0.00     0.045 A 
ENDBRANCH  17  20
ENDBRANCH  14  16
BRANCH   1  25
HETATM   25  C   UNL     1      41.641 -17.474   3.219  1.00  0.00     0.114 C 
BRANCH  25  26
HETATM   26  C   UNL     1      43.033 -17.990   2.911  1.00  0.00     0.218 C 
HETATM   27  N   UNL     1      43.208 -19.336   3.096  1.00  0.00    -0.357 N 
HETATM   28  H   UNL     1      42.379 -19.907   3.283  1.00  0.00     0.162 HD
HETATM   29  O   UNL     1      43.928 -17.218   2.570  1.00  0.00    -0.274 OA
BRANCH  27  30
HETATM   30  C   UNL     1      44.486 -20.030   3.038  1.00  0.00     0.076 C 
HETATM   31  C   UNL     1      44.403 -21.289   2.177  1.00  0.00     0.032 C 
HETATM   32  C   UNL     1      45.064 -20.329   4.419  1.00  0.00     0.032 C 
ENDBRANCH  27  30
ENDBRANCH  25  26
ENDBRANCH   1  25
BRANCH   5  33
HETATM   33  C   UNL     1      42.432 -12.286   4.215  1.00  0.00     0.176 C 
BRANCH  33  34
HETATM   34  O   UNL     1      41.730 -11.059   4.264  1.00  0.00    -0.400 OA
HETATM   35  H   UNL     1      42.389 -10.399   4.572  1.00  0.00     0.209 HD
ENDBRANCH  33  34
ENDBRANCH   5  33
BRANCH   7  36
HETATM   36  O   UNL     1      44.489 -13.989   4.787  1.00  0.00    -0.395 OA
HETATM   37  H   UNL     1      45.077 -14.737   5.003  1.00  0.00     0.210 HD
ENDBRANCH   7  36
TORSDOF 8
ENDMDL
MODEL 5
REMARK VINA RESULT:      -7.3      4.250      7.528
REMARK  8 active torsions:
REMARK  status: ('A' for Active; 'I' for Inactive)
REMARK    1  A    between atoms: C_2  and  N_3 
REMARK       I    between atoms: N_3  and  C_4 
REMARK    2  A    between atoms: C_4  and  C_5 
REMARK    3  A    between atoms: C_5  and  C_6 
REMARK    4  A    between atoms: C_10  and  C_11 
REMARK    5  A    between atoms: C_11  and  O_12 
REMARK    6  A    between atoms: C_14  and  O_15 
REMARK    7  A    between atoms: C_22  and  N_23 
REMARK       I    between atoms: N_23  and  C_24 
REMARK    8  A    between atoms: C_24  and  C_25 
ROOT
HETATM    1  C   UNL     1      41.768 -14.994   4.518  1.00  0.00     0.056 C 
HETATM    2  C   UNL     1      42.430 -14.898   3.070  1.00  0.00    -0.030 C 
HETATM    3  C   UNL     1      43.860 -14.275   3.192  1.00  0.00     0.016 C 
HETATM    4  C   UNL     1      41.609 -13.970   2.071  1.00  0.00     0.012 C 
HETATM    5  C   UNL     1      40.361 -14.600   1.316  1.00  0.00     0.008 C 
HETATM    6  C   UNL     1      40.290 -13.904  -0.081  1.00  0.00     0.020 C 
HETATM    7  C   UNL     1      40.570 -16.123   1.046  1.00  0.00     0.128 C 
HETATM    8  C   UNL     1      42.042 -16.524   1.089  1.00  0.00     0.033 C 
HETATM    9  C   UNL     1      42.613 -16.335   2.491  1.00  0.00     0.013 C 
HETATM   10  C   UNL     1      41.357 -12.550   2.646  1.00  0.00     0.055 C 
HETATM   11  C   UNL     1      41.024 -12.592   4.090  1.00  0.00     0.012 A 
HETATM   12  C   UNL     1      41.239 -13.647   4.953  1.00  0.00     0.056 A 
HETATM   13  N   UNL     1      40.895 -13.393   6.273  1.00  0.00    -0.227 NA
HETATM   14  C   UNL     1      40.380 -12.193   6.357  1.00  0.00     0.174 A 
HETATM   15  S   UNL     1      40.326 -11.278   4.917  1.00  0.00    -0.055 SA
ENDROOT
BRANCH  14  16
HETATM   16  N   UNL     1      39.860 -11.541   7.433  1.00  0.00    -0.300 N 
HETATM   17  C   UNL     1      40.612 -10.770   8.283  1.00  0.00     0.281 C 
HETATM   18  O   UNL     1      41.801 -10.502   8.149  1.00  0.00    -0.265 OA
HETATM   19  H   UNL     1      38.876 -11.659   7.625  1.00  0.00     0.171 HD
BRANCH  17  20
HETATM   20  C   UNL     1      39.828 -10.271   9.400  1.00  0.00     0.142 A 
HETATM   21  O   UNL     1      40.276 -10.475  10.683  1.00  0.00    -0.317 OA
HETATM   22  C   UNL     1      39.373  -9.903  11.519  1.00  0.00     0.143 A 
HETATM   23  C   UNL     1      38.345  -9.336  10.805  1.00  0.00     0.027 A 
HETATM   24  C   UNL     1      38.636  -9.572   9.439  1.00  0.00     0.045 A 
ENDBRANCH  17  20
ENDBRANCH  14  16
BRANCH   1  25
HETATM   25  C   UNL     1      42.716 -15.609   5.569  1.00  0.00     0.114 C 
BRANCH  25  26
HETATM   26  C   UNL     1      42.487 -17.089   5.808  1.00  0.00     0.218 C 
HETATM   27  N   UNL     1      43.616 -17.863   5.786  1.00  0.00    -0.357 N 
HETATM   28  H   UNL     1      44.523 -17.389   5.757  1.00  0.00     0.162 HD
HETATM   29  O   UNL     1      41.349 -17.532   5.957  1.00  0.00    -0.274 OA
BRANCH  27  30
HETATM   30  C   UNL     1      43.635 -19.318   5.812  1.00  0.00     0.076 C 
HETATM   31  C   UNL     1      43.724 -19.853   7.240  1.00  0.00     0.032 C 
HETATM   32  C   UNL     1      44.718 -19.916   4.918  1.00  0.00     0.032 C 
ENDBRANCH  27  30
ENDBRANCH  25  26
ENDBRANCH   1  25
BRANCH   5  33
HETATM   33  C   UNL     1      38.981 -14.332   1.971  1.00  0.00     0.176 C 
BRANCH  33  34
HETATM   34  O   UNL     1      37.896 -14.805   1.196  1.00  0.00    -0.400 OA
HETATM   35  H   UNL     1      38.298 -15.411   0.535  1.00  0.00     0.209 HD
ENDBRANCH  33  34
ENDBRANCH   5  33
BRANCH   7  36
HETATM   36  O   UNL     1      39.851 -16.920   1.993  1.00  0.00    -0.395 OA
HETATM   37  H   UNL     1      40.508 -17.415   2.519  1.00  0.00     0.210 HD
ENDBRANCH   7  36
TORSDOF 8
ENDMDL
MODEL 6
REMARK VINA RESULT:      -7.3      1.935      2.214
REMARK  8 active torsions:
REMARK  status: ('A' for Active; 'I' for Inactive)
REMARK    1  A    between atoms: C_2  and  N_3 
REMARK       I    between atoms: N_3  and  C_4 
REMARK    2  A    between atoms: C_4  and  C_5 
REMARK    3  A    between atoms: C_5  and  C_6 
REMARK    4  A    between atoms: C_10  and  C_11 
REMARK    5  A    between atoms: C_11  and  O_12 
REMARK    6  A    between atoms: C_14  and  O_15 
REMARK    7  A    between atoms: C_22  and  N_23 
REMARK       I    between atoms: N_23  and  C_24 
REMARK    8  A    between atoms: C_24  and  C_25 
ROOT
HETATM    1  C   UNL     1      40.857 -13.115   2.071  1.00  0.00     0.056 C 
HETATM    2  C   UNL     1      39.907 -12.329   1.060  1.00  0.00    -0.030 C 
HETATM    3  C   UNL     1      38.421 -12.749   1.312  1.00  0.00     0.016 C 
HETATM    4  C   UNL     1      40.223 -12.649  -0.466  1.00  0.00     0.012 C 
HETATM    5  C   UNL     1      41.408 -11.858  -1.170  1.00  0.00     0.008 C 
HETATM    6  C   UNL     1      40.996 -11.682  -2.666  1.00  0.00     0.020 C 
HETATM    7  C   UNL     1      41.562 -10.422  -0.577  1.00  0.00     0.128 C 
HETATM    8  C   UNL     1      40.293  -9.943   0.124  1.00  0.00     0.033 C 
HETATM    9  C   UNL     1      39.998 -10.799   1.352  1.00  0.00     0.013 C 
HETATM   10  C   UNL     1      40.200 -14.171  -0.775  1.00  0.00     0.055 C 
HETATM   11  C   UNL     1      40.826 -14.962   0.312  1.00  0.00     0.012 A 
HETATM   12  C   UNL     1      41.086 -14.532   1.597  1.00  0.00     0.056 A 
HETATM   13  N   UNL     1      41.618 -15.502   2.435  1.00  0.00    -0.227 NA
HETATM   14  C   UNL     1      41.799 -16.603   1.752  1.00  0.00     0.174 A 
HETATM   15  S   UNL     1      41.304 -16.584   0.118  1.00  0.00    -0.055 SA
ENDROOT
BRANCH  14  16
HETATM   16  N   UNL     1      42.338 -17.791   2.141  1.00  0.00    -0.300 N 
HETATM   17  C   UNL     1      43.652 -18.127   1.934  1.00  0.00     0.281 C 
HETATM   18  O   UNL     1      44.515 -17.396   1.463  1.00  0.00    -0.265 OA
HETATM   19  H   UNL     1      41.726 -18.465   2.577  1.00  0.00     0.171 HD
BRANCH  17  20
HETATM   20  C   UNL     1      43.937 -19.488   2.358  1.00  0.00     0.142 A 
HETATM   21  O   UNL     1      44.576 -19.700   3.556  1.00  0.00    -0.317 OA
HETATM   22  C   UNL     1      44.704 -21.042   3.710  1.00  0.00     0.143 A 
HETATM   23  C   UNL     1      44.165 -21.706   2.633  1.00  0.00     0.027 A 
HETATM   24  C   UNL     1      43.670 -20.706   1.761  1.00  0.00     0.045 A 
ENDBRANCH  17  20
ENDBRANCH  14  16
BRANCH   1  25
HETATM   25  C   UNL     1      40.350 -13.069   3.528  1.00  0.00     0.114 C 
BRANCH  25  26
HETATM   26  C   UNL     1      41.280 -12.339   4.477  1.00  0.00     0.218 C 
HETATM   27  N   UNL     1      40.670 -11.446   5.318  1.00  0.00    -0.357 N 
HETATM   28  H   UNL     1      39.647 -11.439   5.349  1.00  0.00     0.162 HD
HETATM   29  O   UNL     1      42.496 -12.523   4.431  1.00  0.00    -0.274 OA
BRANCH  27  30
HETATM   30  C   UNL     1      41.362 -10.506   6.186  1.00  0.00     0.076 C 
HETATM   31  C   UNL     1      40.737 -10.464   7.580  1.00  0.00     0.032 C 
HETATM   32  C   UNL     1      41.479  -9.111   5.580  1.00  0.00     0.032 C 
ENDBRANCH  27  30
ENDBRANCH  25  26
ENDBRANCH   1  25
BRANCH   5  33
HETATM   33  C   UNL     1      42.771 -12.596  -1.209  1.00  0.00     0.176 C 
BRANCH  33  34
HETATM   34  O   UNL     1      43.063 -13.159  -2.474  1.00  0.00    -0.400 OA
HETATM   35  H   UNL     1      42.357 -13.827  -2.625  1.00  0.00     0.209 HD
ENDBRANCH  33  34
ENDBRANCH   5  33
BRANCH   7  36
HETATM   36  O   UNL     1      42.649 -10.359   0.352  1.00  0.00    -0.395 OA
HETATM   37  H   UNL     1      43.384 -10.881  -0.022  1.00  0.00     0.210 HD
ENDBRANCH   7  36
TORSDOF 8
ENDMDL
MODEL 7
REMARK VINA RESULT:      -7.1      2.474      3.772
REMARK  8 active torsions:
REMARK  status: ('A' for Active; 'I' for Inactive)
REMARK    1  A    between atoms: C_2  and  N_3 
REMARK       I    between atoms: N_3  and  C_4 
REMARK    2  A    between atoms: C_4  and  C_5 
REMARK    3  A    between atoms: C_5  and  C_6 
REMARK    4  A    between atoms: C_10  and  C_11 
REMARK    5  A    between atoms: C_11  and  O_12 
REMARK    6  A    between atoms: C_14  and  O_15 
REMARK    7  A    between atoms: C_22  and  N_23 
REMARK       I    between atoms: N_23  and  C_24 
REMARK    8  A    between atoms: C_24  and  C_25 
ROOT
HETATM    1  C   UNL     1      39.494 -12.914   0.491  1.00  0.00     0.056 C 
HETATM    2  C   UNL     1      39.177 -12.663  -1.051  1.00  0.00    -0.030 C 
HETATM    3  C   UNL     1      37.983 -13.573  -1.491  1.00  0.00     0.016 C 
HETATM    4  C   UNL     1      40.401 -13.019  -2.004  1.00  0.00     0.012 C 
HETATM    5  C   UNL     1      41.544 -11.932  -2.196  1.00  0.00     0.008 C 
HETATM    6  C   UNL     1      42.074 -12.099  -3.656  1.00  0.00     0.020 C 
HETATM    7  C   UNL     1      40.973 -10.483  -2.092  1.00  0.00     0.128 C 
HETATM    8  C   UNL     1      39.468 -10.433  -2.340  1.00  0.00     0.033 C 
HETATM    9  C   UNL     1      38.714 -11.187  -1.248  1.00  0.00     0.013 C 
HETATM   10  C   UNL     1      40.926 -14.465  -1.788  1.00  0.00     0.055 C 
HETATM   11  C   UNL     1      40.949 -14.833  -0.351  1.00  0.00     0.012 A 
HETATM   12  C   UNL     1      40.285 -14.189   0.673  1.00  0.00     0.056 A 
HETATM   13  N   UNL     1      40.427 -14.786   1.918  1.00  0.00    -0.227 NA
HETATM   14  C   UNL     1      41.231 -15.812   1.810  1.00  0.00     0.174 A 
HETATM   15  S   UNL     1      41.815 -16.171   0.247  1.00  0.00    -0.055 SA
ENDROOT
BRANCH  14  16
HETATM   16  N   UNL     1      41.695 -16.659   2.770  1.00  0.00    -0.300 N 
HETATM   17  C   UNL     1      42.828 -16.419   3.505  1.00  0.00     0.281 C 
HETATM   18  O   UNL     1      43.510 -15.402   3.462  1.00  0.00    -0.265 OA
HETATM   19  H   UNL     1      41.190 -17.521   2.921  1.00  0.00     0.171 HD
BRANCH  17  20
HETATM   20  C   UNL     1      43.148 -17.528   4.388  1.00  0.00     0.142 A 
HETATM   21  O   UNL     1      44.303 -18.243   4.180  1.00  0.00    -0.317 OA
HETATM   22  C   UNL     1      44.362 -19.199   5.141  1.00  0.00     0.143 A 
HETATM   23  C   UNL     1      43.264 -19.123   5.966  1.00  0.00     0.027 A 
HETATM   24  C   UNL     1      42.481 -18.047   5.482  1.00  0.00     0.045 A 
ENDBRANCH  17  20
ENDBRANCH  14  16
BRANCH   1  25
HETATM   25  C   UNL     1      38.228 -12.889   1.374  1.00  0.00     0.114 C 
BRANCH  25  26
HETATM   26  C   UNL     1      38.311 -11.918   2.535  1.00  0.00     0.218 C 
HETATM   27  N   UNL     1      39.092 -12.330   3.583  1.00  0.00    -0.357 N 
HETATM   28  H   UNL     1      39.663 -13.170   3.454  1.00  0.00     0.162 HD
HETATM   29  O   UNL     1      37.670 -10.868   2.524  1.00  0.00    -0.274 OA
BRANCH  27  30
HETATM   30  C   UNL     1      39.185 -11.661   4.871  1.00  0.00     0.076 C 
HETATM   31  C   UNL     1      40.372 -10.700   4.921  1.00  0.00     0.032 C 
HETATM   32  C   UNL     1      39.198 -12.633   6.048  1.00  0.00     0.032 C 
ENDBRANCH  27  30
ENDBRANCH  25  26
ENDBRANCH   1  25
BRANCH   5  33
HETATM   33  C   UNL     1      42.791 -12.109  -1.291  1.00  0.00     0.176 C 
BRANCH  33  34
HETATM   34  O   UNL     1      43.659 -10.992  -1.316  1.00  0.00    -0.400 OA
HETATM   35  H   UNL     1      43.880 -10.819  -0.374  1.00  0.00     0.209 HD
ENDBRANCH  33  34
ENDBRANCH   5  33
BRANCH   7  36
HETATM   36  O   UNL     1      41.243  -9.912  -0.807  1.00  0.00    -0.395 OA
HETATM   37  H   UNL     1      42.179 -10.094  -0.596  1.00  0.00     0.210 HD
ENDBRANCH   7  36
TORSDOF 8
ENDMDL
MODEL 8
REMARK VINA RESULT:      -7.1      2.724      5.656
REMARK  8 active torsions:
REMARK  status: ('A' for Active; 'I' for Inactive)
REMARK    1  A    between atoms: C_2  and  N_3 
REMARK       I    between atoms: N_3  and  C_4 
REMARK    2  A    between atoms: C_4  and  C_5 
REMARK    3  A    between atoms: C_5  and  C_6 
REMARK    4  A    between atoms: C_10  and  C_11 
REMARK    5  A    between atoms: C_11  and  O_12 
REMARK    6  A    between atoms: C_14  and  O_15 
REMARK    7  A    between atoms: C_22  and  N_23 
REMARK       I    between atoms: N_23  and  C_24 
REMARK    8  A    between atoms: C_24  and  C_25 
ROOT
HETATM    1  C   UNL     1      40.477 -13.284   0.931  1.00  0.00     0.056 C 
HETATM    2  C   UNL     1      40.729 -11.735   1.209  1.00  0.00    -0.030 C 
HETATM    3  C   UNL     1      42.028 -11.278   0.466  1.00  0.00     0.016 C 
HETATM    4  C   UNL     1      40.943 -11.406   2.752  1.00  0.00     0.012 C 
HETATM    5  C   UNL     1      39.656 -11.227   3.667  1.00  0.00     0.008 C 
HETATM    6  C   UNL     1      40.025 -10.164   4.749  1.00  0.00     0.020 C 
HETATM    7  C   UNL     1      38.459 -10.639   2.854  1.00  0.00     0.128 C 
HETATM    8  C   UNL     1      38.914  -9.923   1.586  1.00  0.00     0.033 C 
HETATM    9  C   UNL     1      39.552 -10.906   0.609  1.00  0.00     0.013 C 
HETATM   10  C   UNL     1      42.069 -12.261   3.394  1.00  0.00     0.055 C 
HETATM   11  C   UNL     1      42.037 -13.664   2.914  1.00  0.00     0.012 A 
HETATM   12  C   UNL     1      41.376 -14.135   1.798  1.00  0.00     0.056 A 
HETATM   13  N   UNL     1      41.570 -15.485   1.540  1.00  0.00    -0.227 NA
HETATM   14  C   UNL     1      42.310 -15.999   2.489  1.00  0.00     0.174 A 
HETATM   15  S   UNL     1      42.867 -14.928   3.695  1.00  0.00    -0.055 SA
ENDROOT
BRANCH  14  16
HETATM   16  N   UNL     1      42.713 -17.285   2.679  1.00  0.00    -0.300 N 
HETATM   17  C   UNL     1      43.795 -17.839   2.041  1.00  0.00     0.281 C 
HETATM   18  O   UNL     1      44.573 -17.248   1.302  1.00  0.00    -0.265 OA
HETATM   19  H   UNL     1      42.166 -17.864   3.300  1.00  0.00     0.171 HD
BRANCH  17  20
HETATM   20  C   UNL     1      43.943 -19.251   2.351  1.00  0.00     0.142 A 
HETATM   21  O   UNL     1      43.443 -20.188   1.480  1.00  0.00    -0.317 OA
HETATM   22  C   UNL     1      43.726 -21.410   1.998  1.00  0.00     0.143 A 
HETATM   23  C   UNL     1      44.396 -21.285   3.192  1.00  0.00     0.027 A 
HETATM   24  C   UNL     1      44.537 -19.894   3.421  1.00  0.00     0.045 A 
ENDBRANCH  17  20
ENDBRANCH  14  16
BRANCH   1  25
HETATM   25  C   UNL     1      40.599 -13.652  -0.563  1.00  0.00     0.114 C 
BRANCH  25  26
HETATM   26  C   UNL     1      39.314 -14.181  -1.170  1.00  0.00     0.218 C 
HETATM   27  N   UNL     1      39.451 -14.767  -2.400  1.00  0.00    -0.357 N 
HETATM   28  H   UNL     1      40.398 -14.935  -2.749  1.00  0.00     0.162 HD
HETATM   29  O   UNL     1      38.238 -14.030  -0.592  1.00  0.00    -0.274 OA
BRANCH  27  30
HETATM   30  C   UNL     1      38.350 -15.186  -3.254  1.00  0.00     0.076 C 
HETATM   31  C   UNL     1      38.820 -16.148  -4.345  1.00  0.00     0.032 C 
HETATM   32  C   UNL     1      37.570 -14.012  -3.839  1.00  0.00     0.032 C 
ENDBRANCH  27  30
ENDBRANCH  25  26
ENDBRANCH   1  25
BRANCH   5  33
HETATM   33  C   UNL     1      39.226 -12.485   4.466  1.00  0.00     0.176 C 
BRANCH  33  34
HETATM   34  O   UNL     1      38.642 -12.178   5.717  1.00  0.00    -0.400 OA
HETATM   35  H   UNL     1      39.188 -12.656   6.379  1.00  0.00     0.209 HD
ENDBRANCH  33  34
ENDBRANCH   5  33
BRANCH   7  36
HETATM   36  O   UNL     1      37.528 -11.664   2.491  1.00  0.00    -0.395 OA
HETATM   37  H   UNL     1      37.920 -12.521   2.744  1.00  0.00     0.210 HD
ENDBRANCH   7  36
TORSDOF 8
ENDMDL
MODEL 9
REMARK VINA RESULT:      -6.9      3.080      5.471
REMARK  8 active torsions:
REMARK  status: ('A' for Active; 'I' for Inactive)
REMARK    1  A    between atoms: C_2  and  N_3 
REMARK       I    between atoms: N_3  and  C_4 
REMARK    2  A    between atoms: C_4  and  C_5 
REMARK    3  A    between atoms: C_5  and  C_6 
REMARK    4  A    between atoms: C_10  and  C_11 
REMARK    5  A    between atoms: C_11  and  O_12 
REMARK    6  A    between atoms: C_14  and  O_15 
REMARK    7  A    between atoms: C_22  and  N_23 
REMARK       I    between atoms: N_23  and  C_24 
REMARK    8  A    between atoms: C_24  and  C_25 
ROOT
HETATM    1  C   UNL     1      39.041 -13.317  -0.202  1.00  0.00     0.056 C 
HETATM    2  C   UNL     1      38.991 -13.182  -1.790  1.00  0.00    -0.030 C 
HETATM    3  C   UNL     1      38.070 -14.302  -2.378  1.00  0.00     0.016 C 
HETATM    4  C   UNL     1      40.417 -13.354  -2.474  1.00  0.00     0.012 C 
HETATM    5  C   UNL     1      41.382 -12.092  -2.528  1.00  0.00     0.008 C 
HETATM    6  C   UNL     1      42.204 -12.218  -3.850  1.00  0.00     0.020 C 
HETATM    7  C   UNL     1      40.571 -10.762  -2.631  1.00  0.00     0.128 C 
HETATM    8  C   UNL     1      39.155 -10.984  -3.155  1.00  0.00     0.033 C 
HETATM    9  C   UNL     1      38.338 -11.817  -2.171  1.00  0.00     0.013 C 
HETATM   10  C   UNL     1      41.120 -14.678  -2.065  1.00  0.00     0.055 C 
HETATM   11  C   UNL     1      40.926 -14.982  -0.627  1.00  0.00     0.012 A 
HETATM   12  C   UNL     1      39.981 -14.426   0.210  1.00  0.00     0.056 A 
HETATM   13  N   UNL     1      39.975 -14.943   1.498  1.00  0.00    -0.227 NA
HETATM   14  C   UNL     1      40.942 -15.816   1.612  1.00  0.00     0.174 A 
HETATM   15  S   UNL     1      41.868 -16.125   0.211  1.00  0.00    -0.055 SA
ENDROOT
BRANCH  14  16
HETATM   16  N   UNL     1      41.345 -16.534   2.697  1.00  0.00    -0.300 N 
HETATM   17  C   UNL     1      42.281 -16.084   3.594  1.00  0.00     0.281 C 
HETATM   18  O   UNL     1      42.804 -14.976   3.591  1.00  0.00    -0.265 OA
HETATM   19  H   UNL     1      40.952 -17.455   2.824  1.00  0.00     0.171 HD
BRANCH  17  20
HETATM   20  C   UNL     1      42.595 -17.086   4.598  1.00  0.00     0.142 A 
HETATM   21  O   UNL     1      42.573 -16.738   5.927  1.00  0.00    -0.317 OA
HETATM   22  C   UNL     1      42.887 -17.850   6.638  1.00  0.00     0.143 A 
HETATM   23  C   UNL     1      43.118 -18.913   5.797  1.00  0.00     0.027 A 
HETATM   24  C   UNL     1      42.931 -18.422   4.482  1.00  0.00     0.045 A 
ENDBRANCH  17  20
ENDBRANCH  14  16
BRANCH   1  25
HETATM   25  C   UNL     1      37.642 -13.480   0.429  1.00  0.00     0.114 C 
BRANCH  25  26
HETATM   26  C   UNL     1      37.128 -12.227   1.111  1.00  0.00     0.218 C 
HETATM   27  N   UNL     1      35.916 -11.776   0.660  1.00  0.00    -0.357 N 
HETATM   28  H   UNL     1      35.389 -12.375   0.019  1.00  0.00     0.162 HD
HETATM   29  O   UNL     1      37.802 -11.656   1.967  1.00  0.00    -0.274 OA
BRANCH  27  30
HETATM   30  C   UNL     1      35.305 -10.508   1.029  1.00  0.00     0.076 C 
HETATM   31  C   UNL     1      33.784 -10.625   1.129  1.00  0.00     0.032 C 
HETATM   32  C   UNL     1      35.720  -9.358   0.116  1.00  0.00     0.032 C 
ENDBRANCH  27  30
ENDBRANCH  25  26
ENDBRANCH   1  25
BRANCH   5  33
HETATM   33  C   UNL     1      42.442 -12.015  -1.399  1.00  0.00     0.176 C 
BRANCH  33  34
HETATM   34  O   UNL     1      43.331 -10.924  -1.544  1.00  0.00    -0.400 OA
HETATM   35  H   UNL     1      43.962 -11.007  -0.795  1.00  0.00     0.209 HD
ENDBRANCH  33  34
ENDBRANCH   5  33
BRANCH   7  36
HETATM   36  O   UNL     1      40.491 -10.105  -1.362  1.00  0.00    -0.395 OA
HETATM   37  H   UNL     1      41.301  -9.571  -1.257  1.00  0.00     0.210 HD
ENDBRANCH   7  36
TORSDOF 8
ENDMDL
MODEL 10
REMARK VINA RESULT:      -6.7      3.170      6.300
REMARK  8 active torsions:
REMARK  status: ('A' for Active; 'I' for Inactive)
REMARK    1  A    between atoms: C_2  and  N_3 
REMARK       I    between atoms: N_3  and  C_4 
REMARK    2  A    between atoms: C_4  and  C_5 
REMARK    3  A    between atoms: C_5  and  C_6 
REMARK    4  A    between atoms: C_10  and  C_11 
REMARK    5  A    between atoms: C_11  and  O_12 
REMARK    6  A    between atoms: C_14  and  O_15 
REMARK    7  A    between atoms: C_22  and  N_23 
REMARK       I    between atoms: N_23  and  C_24 
REMARK    8  A    between atoms: C_24  and  C_25 
ROOT
HETATM    1  C   UNL     1      40.929 -12.358   4.014  1.00  0.00     0.056 C 
HETATM    2  C   UNL     1      40.217 -11.577   5.208  1.00  0.00    -0.030 C 
HETATM    3  C   UNL     1      39.383 -12.587   6.065  1.00  0.00     0.016 C 
HETATM    4  C   UNL     1      39.204 -10.459   4.703  1.00  0.00     0.012 C 
HETATM    5  C   UNL     1      39.793  -9.039   4.300  1.00  0.00     0.008 C 
HETATM    6  C   UNL     1      38.702  -7.984   4.669  1.00  0.00     0.020 C 
HETATM    7  C   UNL     1      41.057  -8.688   5.146  1.00  0.00     0.128 C 
HETATM    8  C   UNL     1      41.129  -9.489   6.443  1.00  0.00     0.033 C 
HETATM    9  C   UNL     1      41.304 -10.977   6.152  1.00  0.00     0.013 C 
HETATM   10  C   UNL     1      38.145 -11.015   3.712  1.00  0.00     0.055 C 
HETATM   11  C   UNL     1      38.738 -11.987   2.762  1.00  0.00     0.012 A 
HETATM   12  C   UNL     1      39.950 -12.633   2.896  1.00  0.00     0.056 A 
HETATM   13  N   UNL     1      40.231 -13.547   1.891  1.00  0.00    -0.227 NA
HETATM   14  C   UNL     1      39.266 -13.521   1.008  1.00  0.00     0.174 A 
HETATM   15  S   UNL     1      37.955 -12.477   1.332  1.00  0.00    -0.055 SA
ENDROOT
BRANCH  14  16
HETATM   16  N   UNL     1      39.138 -14.205  -0.162  1.00  0.00    -0.300 N 
HETATM   17  C   UNL     1      39.726 -13.809  -1.337  1.00  0.00     0.281 C 
HETATM   18  O   UNL     1      40.494 -12.863  -1.472  1.00  0.00    -0.265 OA
HETATM   19  H   UNL     1      38.554 -15.028  -0.164  1.00  0.00     0.171 HD
BRANCH  17  20
HETATM   20  C   UNL     1      39.347 -14.663  -2.450  1.00  0.00     0.142 A 
HETATM   21  O   UNL     1      38.044 -14.664  -2.884  1.00  0.00    -0.317 OA
HETATM   22  C   UNL     1      37.969 -15.528  -3.928  1.00  0.00     0.143 A 
HETATM   23  C   UNL     1      39.198 -16.092  -4.176  1.00  0.00     0.027 A 
HETATM   24  C   UNL     1      40.087 -15.536  -3.224  1.00  0.00     0.045 A 
ENDBRANCH  17  20
ENDBRANCH  14  16
BRANCH   1  25
HETATM   25  C   UNL     1      41.645 -13.642   4.482  1.00  0.00     0.114 C 
BRANCH  25  26
HETATM   26  C   UNL     1      42.621 -14.204   3.466  1.00  0.00     0.218 C 
HETATM   27  N   UNL     1      42.320 -15.456   3.001  1.00  0.00    -0.357 N 
HETATM   28  H   UNL     1      41.410 -15.855   3.251  1.00  0.00     0.162 HD
HETATM   29  O   UNL     1      43.627 -13.572   3.146  1.00  0.00    -0.274 OA
BRANCH  27  30
HETATM   30  C   UNL     1      43.188 -16.270   2.165  1.00  0.00     0.076 C 
HETATM   31  C   UNL     1      42.490 -16.692   0.872  1.00  0.00     0.032 C 
HETATM   32  C   UNL     1      43.774 -17.469   2.904  1.00  0.00     0.032 C 
ENDBRANCH  27  30
ENDBRANCH  25  26
ENDBRANCH   1  25
BRANCH   5  33
HETATM   33  C   UNL     1      40.059  -8.833   2.786  1.00  0.00     0.176 C 
BRANCH  33  34
HETATM   34  O   UNL     1      40.555  -7.544   2.478  1.00  0.00    -0.400 OA
HETATM   35  H   UNL     1      41.030  -7.253   3.287  1.00  0.00     0.209 HD
ENDBRANCH  33  34
ENDBRANCH   5  33
BRANCH   7  36
HETATM   36  O   UNL     1      42.258  -8.917   4.401  1.00  0.00    -0.395 OA
HETATM   37  H   UNL     1      42.934  -9.242   5.026  1.00  0.00     0.210 HD
ENDBRANCH   7  36
TORSDOF 8
ENDMDL
