MODEL 1
REMARK VINA RESULT:      -8.2      0.000      0.000
REMARK  4 active torsions:
REMARK  status: ('A' for Active; 'I' for Inactive)
REMARK    1  A    between atoms: C_6  and  C_7 
REMARK    2  A    between atoms: C_9  and  C_10 
REMARK    3  A    between atoms: C_10  and  C_11 
REMARK    4  A    between atoms: C_15  and  N_16 
ROOT
HETATM    1  C   UNL     1      41.283 -16.310   1.767  1.00  0.00     0.112 A 
HETATM    2  O   UNL     1      41.418 -15.771   0.514  1.00  0.00    -0.308 OA
HETATM    3  C   UNL     1      40.475 -14.782   0.324  1.00  0.00     0.077 A 
HETATM    4  C   UNL     1      39.714 -14.724   1.485  1.00  0.00     0.040 A 
HETATM    5  C   UNL     1      40.229 -15.677   2.395  1.00  0.00     0.043 A 
ENDROOT
BRANCH   3   6
HETATM    6  C   UNL     1      40.408 -14.082  -0.914  1.00  0.00     0.059 C 
BRANCH   6   7
HETATM    7  C   UNL     1      39.730 -14.444  -2.009  1.00  0.00     0.053 A 
HETATM    8  S   UNL     1      38.077 -14.215  -2.422  1.00  0.00    -0.024 SA
HETATM    9  C   UNL     1      38.306 -15.087  -3.943  1.00  0.00     0.312 A 
HETATM   10  O   UNL     1      37.376 -15.278  -4.710  1.00  0.00    -0.258 OA
HETATM   11  N   UNL     1      39.603 -15.498  -4.155  1.00  0.00    -0.191 NA
HETATM   12  C   UNL     1      40.375 -15.167  -3.156  1.00  0.00     0.122 A 
BRANCH  12  13
HETATM   13  N   UNL     1      41.700 -15.497  -3.234  1.00  0.00    -0.286 NA
HETATM   14  H   UNL     1      41.942 -16.330  -3.756  1.00  0.00     0.125 HD
HETATM   15  H   UNL     1      42.156 -15.468  -2.326  1.00  0.00     0.125 HD
ENDBRANCH  12  13
ENDBRANCH   6   7
ENDBRANCH   3   6
BRANCH   1  16
HETATM   16  C   UNL     1      42.116 -17.362   2.287  1.00  0.00     0.133 A 
HETATM   17  S   UNL     1      42.897 -17.239   3.808  1.00  0.00    -0.066 SA
HETATM   18  C   UNL     1      43.586 -18.801   3.582  1.00  0.00     0.035 A 
HETATM   19  C   UNL     1      43.162 -19.307   2.351  1.00  0.00     0.075 A 
HETATM   20  C   UNL     1      44.439 -19.526   4.429  1.00  0.00     0.021 A 
HETATM   21  C   UNL     1      43.608 -20.584   1.955  1.00  0.00     0.033 A 
HETATM   22  N   UNL     1      42.325 -18.479   1.624  1.00  0.00    -0.238 NA
HETATM   23  C   UNL     1      44.457 -21.316   2.791  1.00  0.00     0.002 A 
HETATM   24  C   UNL     1      44.866 -20.791   4.012  1.00  0.00     0.002 A 
ENDBRANCH   1  16
TORSDOF 4
ENDMDL
MODEL 2
REMARK VINA RESULT:      -8.0      5.782      6.734
REMARK  4 active torsions:
REMARK  status: ('A' for Active; 'I' for Inactive)
REMARK    1  A    between atoms: C_6  and  C_7 
REMARK    2  A    between atoms: C_9  and  C_10 
REMARK    3  A    between atoms: C_10  and  C_11 
REMARK    4  A    between atoms: C_15  and  N_16 
ROOT
HETATM    1  C   UNL     1      43.688 -16.679   5.273  1.00  0.00     0.112 A 
HETATM    2  O   UNL     1      42.973 -15.670   4.683  1.00  0.00    -0.308 OA
HETATM    3  C   UNL     1      42.987 -14.550   5.489  1.00  0.00     0.077 A 
HETATM    4  C   UNL     1      43.711 -14.883   6.626  1.00  0.00     0.040 A 
HETATM    5  C   UNL     1      44.159 -16.217   6.486  1.00  0.00     0.043 A 
ENDROOT
BRANCH   3   6
HETATM    6  C   UNL     1      42.295 -13.370   5.091  1.00  0.00     0.059 C 
BRANCH   6   7
HETATM    7  C   UNL     1      41.316 -12.746   5.757  1.00  0.00     0.053 A 
HETATM    8  S   UNL     1      41.291 -11.202   6.512  1.00  0.00    -0.024 SA
HETATM    9  C   UNL     1      39.633 -11.468   7.065  1.00  0.00     0.312 A 
HETATM   10  O   UNL     1      39.050 -10.636   7.742  1.00  0.00    -0.258 OA
HETATM   11  N   UNL     1      39.098 -12.667   6.651  1.00  0.00    -0.191 NA
HETATM   12  C   UNL     1      39.959 -13.356   5.955  1.00  0.00     0.122 A 
BRANCH  12  13
HETATM   13  N   UNL     1      39.560 -14.568   5.461  1.00  0.00    -0.286 NA
HETATM   14  H   UNL     1      39.261 -15.268   6.130  1.00  0.00     0.125 HD
HETATM   15  H   UNL     1      40.221 -14.943   4.785  1.00  0.00     0.125 HD
ENDBRANCH  12  13
ENDBRANCH   6   7
ENDBRANCH   3   6
BRANCH   1  16
HETATM   16  C   UNL     1      43.876 -17.981   4.693  1.00  0.00     0.133 A 
HETATM   17  S   UNL     1      44.638 -19.258   5.545  1.00  0.00    -0.066 SA
HETATM   18  C   UNL     1      44.429 -20.293   4.184  1.00  0.00     0.035 A 
HETATM   19  C   UNL     1      43.783 -19.581   3.171  1.00  0.00     0.075 A 
HETATM   20  C   UNL     1      44.807 -21.635   4.023  1.00  0.00     0.021 A 
HETATM   21  C   UNL     1      43.506 -20.236   1.954  1.00  0.00     0.033 A 
HETATM   22  N   UNL     1      43.474 -18.266   3.473  1.00  0.00    -0.238 NA
HETATM   23  C   UNL     1      43.878 -21.573   1.782  1.00  0.00     0.002 A 
HETATM   24  C   UNL     1      44.521 -22.262   2.806  1.00  0.00     0.002 A 
ENDBRANCH   1  16
TORSDOF 4
ENDMDL
MODEL 3
REMARK VINA RESULT:      -8.0      6.957      9.218
REMARK  4 active torsions:
REMARK  status: ('A' for Active; 'I' for Inactive)
REMARK    1  A    between atoms: C_6  and  C_7 
REMARK    2  A    between atoms: C_9  and  C_10 
REMARK    3  A    between atoms: C_10  and  C_11 
REMARK    4  A    between atoms: C_15  and  N_16 
ROOT
HETATM    1  C   UNL     1      44.042 -16.530   6.118  1.00  0.00     0.112 A 
HETATM    2  O   UNL     1      45.094 -15.757   6.537  1.00  0.00    -0.308 OA
HETATM    3  C   UNL     1      44.650 -14.489   6.850  1.00  0.00     0.077 A 
HETATM    4  C   UNL     1      43.285 -14.466   6.591  1.00  0.00     0.040 A 
HETATM    5  C   UNL     1      42.902 -15.751   6.141  1.00  0.00     0.043 A 
ENDROOT
BRANCH   3   6
HETATM    6  C   UNL     1      45.567 -13.496   7.298  1.00  0.00     0.059 C 
BRANCH   6   7
HETATM    7  C   UNL     1      45.380 -12.611   8.284  1.00  0.00     0.053 A 
HETATM    8  S   UNL     1      44.128 -12.500   9.458  1.00  0.00    -0.024 SA
HETATM    9  C   UNL     1      44.847 -11.030  10.127  1.00  0.00     0.312 A 
HETATM   10  O   UNL     1      44.322 -10.433  11.053  1.00  0.00    -0.258 OA
HETATM   11  N   UNL     1      46.023 -10.660   9.513  1.00  0.00    -0.191 NA
HETATM   12  C   UNL     1      46.331 -11.479   8.545  1.00  0.00     0.122 A 
BRANCH  12  13
HETATM   13  N   UNL     1      47.487 -11.246   7.852  1.00  0.00    -0.286 NA
HETATM   14  H   UNL     1      48.007 -12.053   7.530  1.00  0.00     0.125 HD
HETATM   15  H   UNL     1      48.084 -10.568   8.320  1.00  0.00     0.125 HD
ENDBRANCH  12  13
ENDBRANCH   6   7
ENDBRANCH   3   6
BRANCH   1  16
HETATM   16  C   UNL     1      44.160 -17.907   5.721  1.00  0.00     0.133 A 
HETATM   17  S   UNL     1      44.233 -19.182   6.864  1.00  0.00    -0.066 SA
HETATM   18  C   UNL     1      44.361 -20.326   5.583  1.00  0.00     0.035 A 
HETATM   19  C   UNL     1      44.334 -19.643   4.365  1.00  0.00     0.075 A 
HETATM   20  C   UNL     1      44.475 -21.724   5.648  1.00  0.00     0.021 A 
HETATM   21  C   UNL     1      44.426 -20.386   3.170  1.00  0.00     0.033 A 
HETATM   22  N   UNL     1      44.220 -18.267   4.457  1.00  0.00    -0.238 NA
HETATM   23  C   UNL     1      44.540 -21.778   3.223  1.00  0.00     0.002 A 
HETATM   24  C   UNL     1      44.564 -22.437   4.448  1.00  0.00     0.002 A 
ENDBRANCH   1  16
TORSDOF 4
ENDMDL
MODEL 4
REMARK VINA RESULT:      -7.9      1.386      1.728
REMARK  4 active torsions:
REMARK  status: ('A' for Active; 'I' for Inactive)
REMARK    1  A    between atoms: C_6  and  C_7 
REMARK    2  A    between atoms: C_9  and  C_10 
REMARK    3  A    between atoms: C_10  and  C_11 
REMARK    4  A    between atoms: C_15  and  N_16 
ROOT
HETATM    1  C   UNL     1      42.360 -15.272   1.548  1.00  0.00     0.112 A 
HETATM    2  O   UNL     1      42.071 -15.081   0.222  1.00  0.00    -0.308 OA
HETATM    3  C   UNL     1      41.562 -13.813   0.030  1.00  0.00     0.077 A 
HETATM    4  C   UNL     1      41.509 -13.208   1.279  1.00  0.00     0.040 A 
HETATM    5  C   UNL     1      42.019 -14.121   2.230  1.00  0.00     0.043 A 
ENDROOT
BRANCH   3   6
HETATM    6  C   UNL     1      41.172 -13.384  -1.271  1.00  0.00     0.059 C 
BRANCH   6   7
HETATM    7  C   UNL     1      40.362 -14.024  -2.122  1.00  0.00     0.053 A 
HETATM    8  S   UNL     1      38.646 -14.030  -2.233  1.00  0.00    -0.024 SA
HETATM    9  C   UNL     1      38.708 -15.177  -3.577  1.00  0.00     0.312 A 
HETATM   10  O   UNL     1      37.688 -15.604  -4.094  1.00  0.00    -0.258 OA
HETATM   11  N   UNL     1      39.988 -15.509  -3.962  1.00  0.00    -0.191 NA
HETATM   12  C   UNL     1      40.878 -14.911  -3.218  1.00  0.00     0.122 A 
BRANCH  12  13
HETATM   13  N   UNL     1      42.199 -15.133  -3.495  1.00  0.00    -0.286 NA
HETATM   14  H   UNL     1      42.542 -16.081  -3.393  1.00  0.00     0.125 HD
HETATM   15  H   UNL     1      42.805 -14.455  -3.040  1.00  0.00     0.125 HD
ENDBRANCH  12  13
ENDBRANCH   6   7
ENDBRANCH   3   6
BRANCH   1  16
HETATM   16  C   UNL     1      42.911 -16.486   2.087  1.00  0.00     0.133 A 
HETATM   17  S   UNL     1      43.505 -17.743   1.084  1.00  0.00    -0.066 SA
HETATM   18  C   UNL     1      43.904 -18.670   2.479  1.00  0.00     0.035 A 
HETATM   19  C   UNL     1      43.555 -17.943   3.619  1.00  0.00     0.075 A 
HETATM   20  C   UNL     1      44.485 -19.946   2.561  1.00  0.00     0.021 A 
HETATM   21  C   UNL     1      43.793 -18.514   4.886  1.00  0.00     0.033 A 
HETATM   22  N   UNL     1      42.990 -16.702   3.383  1.00  0.00    -0.238 NA
HETATM   23  C   UNL     1      44.371 -19.784   4.980  1.00  0.00     0.002 A 
HETATM   24  C   UNL     1      44.711 -20.489   3.830  1.00  0.00     0.002 A 
ENDBRANCH   1  16
TORSDOF 4
ENDMDL
MODEL 5
REMARK VINA RESULT:      -7.7      5.042      6.022
REMARK  4 active torsions:
REMARK  status: ('A' for Active; 'I' for Inactive)
REMARK    1  A    between atoms: C_6  and  C_7 
REMARK    2  A    between atoms: C_9  and  C_10 
REMARK    3  A    between atoms: C_10  and  C_11 
REMARK    4  A    between atoms: C_15  and  N_16 
ROOT
HETATM    1  C   UNL     1      43.844 -16.800   5.459  1.00  0.00     0.112 A 
HETATM    2  O   UNL     1      43.165 -15.659   5.120  1.00  0.00    -0.308 OA
HETATM    3  C   UNL     1      43.322 -14.708   6.107  1.00  0.00     0.077 A 
HETATM    4  C   UNL     1      44.100 -15.286   7.102  1.00  0.00     0.040 A 
HETATM    5  C   UNL     1      44.436 -16.596   6.690  1.00  0.00     0.043 A 
ENDROOT
BRANCH   3   6
HETATM    6  C   UNL     1      42.694 -13.435   5.985  1.00  0.00     0.059 C 
BRANCH   6   7
HETATM    7  C   UNL     1      41.707 -13.100   5.147  1.00  0.00     0.053 A 
HETATM    8  S   UNL     1      41.761 -12.631   3.493  1.00  0.00    -0.024 SA
HETATM    9  C   UNL     1      40.009 -12.399   3.472  1.00  0.00     0.312 A 
HETATM   10  O   UNL     1      39.434 -12.005   2.470  1.00  0.00    -0.258 OA
HETATM   11  N   UNL     1      39.395 -12.712   4.664  1.00  0.00    -0.191 NA
HETATM   12  C   UNL     1      40.264 -13.090   5.561  1.00  0.00     0.122 A 
BRANCH  12  13
HETATM   13  N   UNL     1      39.796 -13.450   6.795  1.00  0.00    -0.286 NA
HETATM   14  H   UNL     1      39.418 -12.715   7.381  1.00  0.00     0.125 HD
HETATM   15  H   UNL     1      40.455 -14.039   7.298  1.00  0.00     0.125 HD
ENDBRANCH  12  13
ENDBRANCH   6   7
ENDBRANCH   3   6
BRANCH   1  16
HETATM   16  C   UNL     1      43.891 -17.984   4.644  1.00  0.00     0.133 A 
HETATM   17  S   UNL     1      43.260 -18.020   3.051  1.00  0.00    -0.066 SA
HETATM   18  C   UNL     1      43.718 -19.674   2.905  1.00  0.00     0.035 A 
HETATM   19  C   UNL     1      44.328 -20.080   4.094  1.00  0.00     0.075 A 
HETATM   20  C   UNL     1      43.552 -20.550   1.821  1.00  0.00     0.021 A 
HETATM   21  C   UNL     1      44.787 -21.408   4.202  1.00  0.00     0.033 A 
HETATM   22  N   UNL     1      44.420 -19.109   5.077  1.00  0.00    -0.238 NA
HETATM   23  C   UNL     1      44.627 -22.289   3.127  1.00  0.00     0.002 A 
HETATM   24  C   UNL     1      44.016 -21.863   1.952  1.00  0.00     0.002 A 
ENDBRANCH   1  16
TORSDOF 4
ENDMDL
MODEL 6
REMARK VINA RESULT:      -7.7      4.890      5.693
REMARK  4 active torsions:
REMARK  status: ('A' for Active; 'I' for Inactive)
REMARK    1  A    between atoms: C_6  and  C_7 
REMARK    2  A    between atoms: C_9  and  C_10 
REMARK    3  A    between atoms: C_10  and  C_11 
REMARK    4  A    between atoms: C_15  and  N_16 
ROOT
HETATM    1  C   UNL     1      43.925 -16.872   5.476  1.00  0.00     0.112 A 
HETATM    2  O   UNL     1      43.225 -15.740   5.147  1.00  0.00    -0.308 OA
HETATM    3  C   UNL     1      43.402 -14.779   6.121  1.00  0.00     0.077 A 
HETATM    4  C   UNL     1      44.214 -15.341   7.098  1.00  0.00     0.040 A 
HETATM    5  C   UNL     1      44.550 -16.652   6.687  1.00  0.00     0.043 A 
ENDROOT
BRANCH   3   6
HETATM    6  C   UNL     1      42.758 -13.513   6.007  1.00  0.00     0.059 C 
BRANCH   6   7
HETATM    7  C   UNL     1      41.841 -13.154   5.102  1.00  0.00     0.053 A 
HETATM    8  S   UNL     1      40.169 -12.801   5.290  1.00  0.00    -0.024 SA
HETATM    9  C   UNL     1      40.000 -12.534   3.551  1.00  0.00     0.312 A 
HETATM   10  O   UNL     1      38.920 -12.255   3.055  1.00  0.00    -0.258 OA
HETATM   11  N   UNL     1      41.181 -12.661   2.855  1.00  0.00    -0.191 NA
HETATM   12  C   UNL     1      42.167 -12.980   3.647  1.00  0.00     0.122 A 
BRANCH  12  13
HETATM   13  N   UNL     1      43.411 -13.125   3.095  1.00  0.00    -0.286 NA
HETATM   14  H   UNL     1      43.490 -13.712   2.274  1.00  0.00     0.125 HD
HETATM   15  H   UNL     1      44.116 -13.346   3.794  1.00  0.00     0.125 HD
ENDBRANCH  12  13
ENDBRANCH   6   7
ENDBRANCH   3   6
BRANCH   1  16
HETATM   16  C   UNL     1      43.959 -18.062   4.669  1.00  0.00     0.133 A 
HETATM   17  S   UNL     1      43.348 -18.097   3.069  1.00  0.00    -0.066 SA
HETATM   18  C   UNL     1      43.777 -19.761   2.940  1.00  0.00     0.035 A 
HETATM   19  C   UNL     1      44.364 -20.169   4.139  1.00  0.00     0.075 A 
HETATM   20  C   UNL     1      43.608 -20.641   1.859  1.00  0.00     0.021 A 
HETATM   21  C   UNL     1      44.797 -21.505   4.261  1.00  0.00     0.033 A 
HETATM   22  N   UNL     1      44.462 -19.193   5.116  1.00  0.00    -0.238 NA
HETATM   23  C   UNL     1      44.634 -22.390   3.191  1.00  0.00     0.002 A 
HETATM   24  C   UNL     1      44.046 -21.961   2.006  1.00  0.00     0.002 A 
ENDBRANCH   1  16
TORSDOF 4
ENDMDL
MODEL 7
REMARK VINA RESULT:      -7.5      2.456      2.996
REMARK  4 active torsions:
REMARK  status: ('A' for Active; 'I' for Inactive)
REMARK    1  A    between atoms: C_6  and  C_7 
REMARK    2  A    between atoms: C_9  and  C_10 
REMARK    3  A    between atoms: C_10  and  C_11 
REMARK    4  A    between atoms: C_15  and  N_16 
ROOT
HETATM    1  C   UNL     1      43.176 -15.870   2.804  1.00  0.00     0.112 A 
HETATM    2  O   UNL     1      42.574 -15.273   1.728  1.00  0.00    -0.308 OA
HETATM    3  C   UNL     1      42.417 -13.923   1.966  1.00  0.00     0.077 A 
HETATM    4  C   UNL     1      42.913 -13.679   3.240  1.00  0.00     0.040 A 
HETATM    5  C   UNL     1      43.399 -14.900   3.762  1.00  0.00     0.043 A 
ENDROOT
BRANCH   3   6
HETATM    6  C   UNL     1      41.798 -13.088   0.991  1.00  0.00     0.059 C 
BRANCH   6   7
HETATM    7  C   UNL     1      41.738 -13.298  -0.329  1.00  0.00     0.053 A 
HETATM    8  S   UNL     1      40.865 -14.471  -1.232  1.00  0.00    -0.024 SA
HETATM    9  C   UNL     1      41.553 -13.864  -2.742  1.00  0.00     0.312 A 
HETATM   10  O   UNL     1      41.286 -14.383  -3.814  1.00  0.00    -0.258 OA
HETATM   11  N   UNL     1      42.381 -12.777  -2.575  1.00  0.00    -0.191 NA
HETATM   12  C   UNL     1      42.491 -12.453  -1.316  1.00  0.00     0.122 A 
BRANCH  12  13
HETATM   13  N   UNL     1      43.273 -11.377  -0.997  1.00  0.00    -0.286 NA
HETATM   14  H   UNL     1      44.046 -11.164  -1.615  1.00  0.00     0.125 HD
HETATM   15  H   UNL     1      43.555 -11.384  -0.020  1.00  0.00     0.125 HD
ENDBRANCH  12  13
ENDBRANCH   6   7
ENDBRANCH   3   6
BRANCH   1  16
HETATM   16  C   UNL     1      43.491 -17.271   2.879  1.00  0.00     0.133 A 
HETATM   17  S   UNL     1      43.287 -18.324   1.542  1.00  0.00    -0.066 SA
HETATM   18  C   UNL     1      43.854 -19.643   2.494  1.00  0.00     0.035 A 
HETATM   19  C   UNL     1      44.163 -19.177   3.773  1.00  0.00     0.075 A 
HETATM   20  C   UNL     1      44.015 -20.992   2.136  1.00  0.00     0.021 A 
HETATM   21  C   UNL     1      44.649 -20.092   4.729  1.00  0.00     0.033 A 
HETATM   22  N   UNL     1      43.952 -17.825   3.980  1.00  0.00    -0.238 NA
HETATM   23  C   UNL     1      44.814 -21.438   4.384  1.00  0.00     0.002 A 
HETATM   24  C   UNL     1      44.499 -21.879   3.103  1.00  0.00     0.002 A 
ENDBRANCH   1  16
TORSDOF 4
ENDMDL
MODEL 8
REMARK VINA RESULT:      -7.4      2.171      2.615
REMARK  4 active torsions:
REMARK  status: ('A' for Active; 'I' for Inactive)
REMARK    1  A    between atoms: C_6  and  C_7 
REMARK    2  A    between atoms: C_9  and  C_10 
REMARK    3  A    between atoms: C_10  and  C_11 
REMARK    4  A    between atoms: C_15  and  N_16 
ROOT
HETATM    1  C   UNL     1      40.792 -15.961   1.537  1.00  0.00     0.112 A 
HETATM    2  O   UNL     1      40.982 -15.465   0.274  1.00  0.00    -0.308 OA
HETATM    3  C   UNL     1      39.999 -14.543  -0.022  1.00  0.00     0.077 A 
HETATM    4  C   UNL     1      39.157 -14.485   1.082  1.00  0.00     0.040 A 
HETATM    5  C   UNL     1      39.662 -15.369   2.064  1.00  0.00     0.043 A 
ENDROOT
BRANCH   3   6
HETATM    6  C   UNL     1      39.978 -13.897  -1.291  1.00  0.00     0.059 C 
BRANCH   6   7
HETATM    7  C   UNL     1      40.876 -13.028  -1.769  1.00  0.00     0.053 A 
HETATM    8  S   UNL     1      41.181 -11.392  -1.339  1.00  0.00    -0.024 SA
HETATM    9  C   UNL     1      42.440 -11.272  -2.575  1.00  0.00     0.312 A 
HETATM   10  O   UNL     1      43.044 -10.228  -2.765  1.00  0.00    -0.258 OA
HETATM   11  N   UNL     1      42.656 -12.446  -3.260  1.00  0.00    -0.191 NA
HETATM   12  C   UNL     1      41.852 -13.389  -2.852  1.00  0.00     0.122 A 
BRANCH  12  13
HETATM   13  N   UNL     1      41.963 -14.622  -3.433  1.00  0.00    -0.286 NA
HETATM   14  H   UNL     1      42.890 -14.928  -3.702  1.00  0.00     0.125 HD
HETATM   15  H   UNL     1      41.285 -14.757  -4.179  1.00  0.00     0.125 HD
ENDBRANCH  12  13
ENDBRANCH   6   7
ENDBRANCH   3   6
BRANCH   1  16
HETATM   16  C   UNL     1      41.645 -16.939   2.157  1.00  0.00     0.133 A 
HETATM   17  S   UNL     1      42.060 -16.865   3.818  1.00  0.00    -0.066 SA
HETATM   18  C   UNL     1      43.010 -18.291   3.645  1.00  0.00     0.035 A 
HETATM   19  C   UNL     1      42.937 -18.725   2.320  1.00  0.00     0.075 A 
HETATM   20  C   UNL     1      43.766 -18.978   4.610  1.00  0.00     0.021 A 
HETATM   21  C   UNL     1      43.644 -19.886   1.947  1.00  0.00     0.033 A 
HETATM   22  N   UNL     1      42.157 -17.947   1.482  1.00  0.00    -0.238 NA
HETATM   23  C   UNL     1      44.399 -20.578   2.899  1.00  0.00     0.002 A 
HETATM   24  C   UNL     1      44.457 -20.127   4.214  1.00  0.00     0.002 A 
ENDBRANCH   1  16
TORSDOF 4
ENDMDL
MODEL 9
REMARK VINA RESULT:      -7.3      2.838      3.186
REMARK  4 active torsions:
REMARK  status: ('A' for Active; 'I' for Inactive)
REMARK    1  A    between atoms: C_6  and  C_7 
REMARK    2  A    between atoms: C_9  and  C_10 
REMARK    3  A    between atoms: C_10  and  C_11 
REMARK    4  A    between atoms: C_15  and  N_16 
ROOT
HETATM    1  C   UNL     1      43.020 -16.173   3.271  1.00  0.00     0.112 A 
HETATM    2  O   UNL     1      42.276 -15.627   2.258  1.00  0.00    -0.308 OA
HETATM    3  C   UNL     1      42.082 -14.281   2.490  1.00  0.00     0.077 A 
HETATM    4  C   UNL     1      42.704 -13.988   3.698  1.00  0.00     0.040 A 
HETATM    5  C   UNL     1      43.301 -15.175   4.182  1.00  0.00     0.043 A 
ENDROOT
BRANCH   3   6
HETATM    6  C   UNL     1      41.321 -13.496   1.577  1.00  0.00     0.059 C 
BRANCH   6   7
HETATM    7  C   UNL     1      41.729 -13.006   0.401  1.00  0.00     0.053 A 
HETATM    8  S   UNL     1      42.195 -11.411  -0.039  1.00  0.00    -0.024 SA
HETATM    9  C   UNL     1      42.448 -11.916  -1.714  1.00  0.00     0.312 A 
HETATM   10  O   UNL     1      42.791 -11.118  -2.572  1.00  0.00    -0.258 OA
HETATM   11  N   UNL     1      42.233 -13.259  -1.925  1.00  0.00    -0.191 NA
HETATM   12  C   UNL     1      41.860 -13.859  -0.828  1.00  0.00     0.122 A 
BRANCH  12  13
HETATM   13  N   UNL     1      41.626 -15.205  -0.881  1.00  0.00    -0.286 NA
HETATM   14  H   UNL     1      41.537 -15.697  -0.000  1.00  0.00     0.125 HD
HETATM   15  H   UNL     1      42.257 -15.679  -1.522  1.00  0.00     0.125 HD
ENDBRANCH  12  13
ENDBRANCH   6   7
ENDBRANCH   3   6
BRANCH   1  16
HETATM   16  C   UNL     1      43.407 -17.557   3.333  1.00  0.00     0.133 A 
HETATM   17  S   UNL     1      44.126 -18.242   4.729  1.00  0.00    -0.066 SA
HETATM   18  C   UNL     1      44.225 -19.766   3.933  1.00  0.00     0.035 A 
HETATM   19  C   UNL     1      43.694 -19.639   2.648  1.00  0.00     0.075 A 
HETATM   20  C   UNL     1      44.735 -20.985   4.409  1.00  0.00     0.021 A 
HETATM   21  C   UNL     1      43.672 -20.772   1.809  1.00  0.00     0.033 A 
HETATM   22  N   UNL     1      43.231 -18.377   2.318  1.00  0.00    -0.238 NA
HETATM   23  C   UNL     1      44.177 -21.991   2.273  1.00  0.00     0.002 A 
HETATM   24  C   UNL     1      44.701 -22.094   3.557  1.00  0.00     0.002 A 
ENDBRANCH   1  16
TORSDOF 4
ENDMDL
MODEL 10
REMARK VINA RESULT:      -7.3      4.849      6.052
REMARK  4 active torsions:
REMARK  status: ('A' for Active; 'I' for Inactive)
REMARK    1  A    between atoms: C_6  and  C_7 
REMARK    2  A    between atoms: C_9  and  C_10 
REMARK    3  A    between atoms: C_10  and  C_11 
REMARK    4  A    between atoms: C_15  and  N_16 
ROOT
HETATM    1  C   UNL     1      42.613 -16.247   3.947  1.00  0.00     0.112 A 
HETATM    2  O   UNL     1      41.298 -15.933   4.166  1.00  0.00    -0.308 OA
HETATM    3  C   UNL     1      41.156 -14.566   4.295  1.00  0.00     0.077 A 
HETATM    4  C   UNL     1      42.427 -14.018   4.180  1.00  0.00     0.040 A 
HETATM    5  C   UNL     1      43.341 -15.073   3.951  1.00  0.00     0.043 A 
ENDROOT
BRANCH   3   6
HETATM    6  C   UNL     1      39.875 -13.996   4.543  1.00  0.00     0.059 C 
BRANCH   6   7
HETATM    7  C   UNL     1      39.603 -12.720   4.837  1.00  0.00     0.053 A 
HETATM    8  S   UNL     1      39.432 -11.353   3.809  1.00  0.00    -0.024 SA
HETATM    9  C   UNL     1      39.162 -10.301   5.204  1.00  0.00     0.312 A 
HETATM   10  O   UNL     1      38.993  -9.100   5.069  1.00  0.00    -0.258 OA
HETATM   11  N   UNL     1      39.154 -10.970   6.408  1.00  0.00    -0.191 NA
HETATM   12  C   UNL     1      39.377 -12.245   6.243  1.00  0.00     0.122 A 
BRANCH  12  13
HETATM   13  N   UNL     1      39.382 -13.043   7.355  1.00  0.00    -0.286 NA
HETATM   14  H   UNL     1      38.873 -12.713   8.166  1.00  0.00     0.125 HD
HETATM   15  H   UNL     1      40.318 -13.361   7.593  1.00  0.00     0.125 HD
ENDBRANCH  12  13
ENDBRANCH   6   7
ENDBRANCH   3   6
BRANCH   1  16
HETATM   16  C   UNL     1      43.103 -17.587   3.763  1.00  0.00     0.133 A 
HETATM   17  S   UNL     1      44.078 -18.371   4.934  1.00  0.00    -0.066 SA
HETATM   18  C   UNL     1      44.161 -19.769   3.932  1.00  0.00     0.035 A 
HETATM   19  C   UNL     1      43.429 -19.532   2.766  1.00  0.00     0.075 A 
HETATM   20  C   UNL     1      44.825 -20.985   4.157  1.00  0.00     0.021 A 
HETATM   21  C   UNL     1      43.359 -20.549   1.792  1.00  0.00     0.033 A 
HETATM   22  N   UNL     1      42.832 -18.287   2.682  1.00  0.00    -0.238 NA
HETATM   23  C   UNL     1      44.015 -21.765   2.007  1.00  0.00     0.002 A 
HETATM   24  C   UNL     1      44.739 -21.978   3.175  1.00  0.00     0.002 A 
ENDBRANCH   1  16
TORSDOF 4
ENDMDL
