MODEL 1
REMARK VINA RESULT:      -8.8      0.000      0.000
REMARK  3 active torsions:
REMARK  status: ('A' for Active; 'I' for Inactive)
REMARK    1  A    between atoms: N_7  and  C_9 
REMARK    2  A    between atoms: C_9  and  C_10 
REMARK    3  A    between atoms: C_13  and  C_14 
ROOT
HETATM    1  C   UNL     1      38.023 -13.510  -2.172  1.00  0.00     0.269 C 
HETATM    2  N   UNL     1      38.999 -14.291  -1.315  1.00  0.00    -0.074 N 
HETATM    3  H   UNL     1      38.447 -15.079  -0.945  1.00  0.00     0.279 HD
HETATM    4  C   UNL     1      39.530 -13.459  -0.173  1.00  0.00     0.245 C 
HETATM    5  C   UNL     1      40.434 -14.295   0.786  1.00  0.00     0.008 C 
HETATM    6  C   UNL     1      41.051 -13.299   1.817  1.00  0.00     0.246 C 
HETATM    7  N   UNL     1      41.674 -13.946   3.034  1.00  0.00    -0.063 N 
HETATM    8  H   UNL     1      41.756 -13.170   3.715  1.00  0.00     0.280 HD
HETATM    9  C   UNL     1      40.792 -14.955   3.717  1.00  0.00     0.235 C 
HETATM   10  C   UNL     1      40.312 -15.992   2.716  1.00  0.00     0.029 C 
HETATM   11  C   UNL     1      39.578 -15.342   1.543  1.00  0.00     0.014 C 
HETATM   12  C   UNL     1      41.533 -14.973  -0.072  1.00  0.00     0.014 C 
HETATM   13  C   UNL     1      40.997 -15.734  -1.290  1.00  0.00     0.029 C 
HETATM   14  C   UNL     1      40.100 -14.876  -2.166  1.00  0.00     0.234 C 
ENDROOT
BRANCH   7  15
HETATM   15  C   UNL     1      43.148 -14.374   2.929  1.00  0.00     0.323 C 
BRANCH  15  16
HETATM   16  C   UNL     1      43.378 -15.763   3.395  1.00  0.00     0.199 A 
HETATM   17  O   UNL     1      43.454 -15.972   4.732  1.00  0.00    -0.194 OA
HETATM   18  N   UNL     1      43.642 -17.336   4.900  1.00  0.00    -0.106 NA
HETATM   19  C   UNL     1      43.689 -17.825   3.648  1.00  0.00     0.189 A 
HETATM   20  N   UNL     1      43.466 -16.860   2.676  1.00  0.00    -0.202 NA
BRANCH  19  21
HETATM   21  C   UNL     1      43.935 -19.225   3.323  1.00  0.00     0.016 A 
HETATM   22  C   UNL     1      44.474 -20.088   4.288  1.00  0.00     0.039 A 
HETATM   23  C   UNL     1      44.697 -21.433   3.984  1.00  0.00     0.035 A 
HETATM   24 CL   UNL     1      45.362 -22.469   5.186  1.00  0.00    -0.084 Cl
HETATM   25  C   UNL     1      44.387 -21.937   2.725  1.00  0.00     0.024 A 
HETATM   26  C   UNL     1      43.849 -21.089   1.758  1.00  0.00     0.003 A 
HETATM   27  C   UNL     1      43.624 -19.741   2.054  1.00  0.00     0.015 A 
ENDBRANCH  19  21
ENDBRANCH  15  16
ENDBRANCH   7  15
TORSDOF 3
ENDMDL
MODEL 2
REMARK VINA RESULT:      -8.6      2.621      3.823
REMARK  3 active torsions:
REMARK  status: ('A' for Active; 'I' for Inactive)
REMARK    1  A    between atoms: N_7  and  C_9 
REMARK    2  A    between atoms: C_9  and  C_10 
REMARK    3  A    between atoms: C_13  and  C_14 
ROOT
HETATM    1  C   UNL     1      39.211 -10.288  -5.417  1.00  0.00     0.269 C 
HETATM    2  N   UNL     1      40.178 -11.225  -4.721  1.00  0.00    -0.074 N 
HETATM    3  H   UNL     1      40.360 -11.969  -5.411  1.00  0.00     0.279 HD
HETATM    4  C   UNL     1      39.575 -11.823  -3.472  1.00  0.00     0.245 C 
HETATM    5  C   UNL     1      40.515 -12.885  -2.823  1.00  0.00     0.008 C 
HETATM    6  C   UNL     1      39.866 -13.302  -1.466  1.00  0.00     0.246 C 
HETATM    7  N   UNL     1      40.432 -14.562  -0.850  1.00  0.00    -0.063 N 
HETATM    8  H   UNL     1      39.719 -14.841  -0.151  1.00  0.00     0.280 HD
HETATM    9  C   UNL     1      40.510 -15.730  -1.794  1.00  0.00     0.235 C 
HETATM   10  C   UNL     1      41.264 -15.336  -3.052  1.00  0.00     0.029 C 
HETATM   11  C   UNL     1      40.620 -14.131  -3.738  1.00  0.00     0.014 C 
HETATM   12  C   UNL     1      41.901 -12.222  -2.606  1.00  0.00     0.014 C 
HETATM   13  C   UNL     1      42.463 -11.528  -3.851  1.00  0.00     0.029 C 
HETATM   14  C   UNL     1      41.491 -10.529  -4.454  1.00  0.00     0.234 C 
ENDROOT
BRANCH   7  15
HETATM   15  C   UNL     1      41.662 -14.412   0.062  1.00  0.00     0.323 C 
BRANCH  15  16
HETATM   16  C   UNL     1      41.791 -15.521   1.039  1.00  0.00     0.199 A 
HETATM   17  O   UNL     1      40.824 -15.643   1.981  1.00  0.00    -0.194 OA
HETATM   18  N   UNL     1      41.161 -16.755   2.739  1.00  0.00    -0.106 NA
HETATM   19  C   UNL     1      42.315 -17.189   2.203  1.00  0.00     0.189 A 
HETATM   20  N   UNL     1      42.708 -16.462   1.088  1.00  0.00    -0.202 NA
BRANCH  19  21
HETATM   21  C   UNL     1      43.087 -18.315   2.717  1.00  0.00     0.016 A 
HETATM   22  C   UNL     1      43.245 -19.473   1.942  1.00  0.00     0.039 A 
HETATM   23  C   UNL     1      43.996 -20.546   2.425  1.00  0.00     0.035 A 
HETATM   24 CL   UNL     1      44.171 -21.956   1.455  1.00  0.00    -0.084 Cl
HETATM   25  C   UNL     1      44.599 -20.484   3.678  1.00  0.00     0.024 A 
HETATM   26  C   UNL     1      44.450 -19.338   4.457  1.00  0.00     0.003 A 
HETATM   27  C   UNL     1      43.699 -18.259   3.981  1.00  0.00     0.015 A 
ENDBRANCH  19  21
ENDBRANCH  15  16
ENDBRANCH   7  15
TORSDOF 3
ENDMDL
MODEL 3
REMARK VINA RESULT:      -8.6      2.474      4.457
REMARK  3 active torsions:
REMARK  status: ('A' for Active; 'I' for Inactive)
REMARK    1  A    between atoms: N_7  and  C_9 
REMARK    2  A    between atoms: C_9  and  C_10 
REMARK    3  A    between atoms: C_13  and  C_14 
ROOT
HETATM    1  C   UNL     1      39.391 -11.431   8.311  1.00  0.00     0.269 C 
HETATM    2  N   UNL     1      39.886 -11.599   6.888  1.00  0.00    -0.074 N 
HETATM    3  H   UNL     1      39.261 -11.005   6.324  1.00  0.00     0.279 HD
HETATM    4  C   UNL     1      39.784 -13.033   6.427  1.00  0.00     0.245 C 
HETATM    5  C   UNL     1      40.170 -13.189   4.923  1.00  0.00     0.008 C 
HETATM    6  C   UNL     1      40.188 -14.719   4.612  1.00  0.00     0.246 C 
HETATM    7  N   UNL     1      40.198 -15.070   3.141  1.00  0.00    -0.063 N 
HETATM    8  H   UNL     1      39.917 -16.067   3.120  1.00  0.00     0.280 HD
HETATM    9  C   UNL     1      39.145 -14.366   2.331  1.00  0.00     0.235 C 
HETATM   10  C   UNL     1      39.235 -12.865   2.548  1.00  0.00     0.029 C 
HETATM   11  C   UNL     1      39.107 -12.504   4.028  1.00  0.00     0.014 C 
HETATM   12  C   UNL     1      41.572 -12.556   4.726  1.00  0.00     0.014 C 
HETATM   13  C   UNL     1      41.702 -11.136   5.287  1.00  0.00     0.029 C 
HETATM   14  C   UNL     1      41.283 -11.043   6.745  1.00  0.00     0.234 C 
ENDROOT
BRANCH   7  15
HETATM   15  C   UNL     1      41.567 -15.158   2.444  1.00  0.00     0.323 C 
BRANCH  15  16
HETATM   16  C   UNL     1      42.370 -16.320   2.900  1.00  0.00     0.199 A 
HETATM   17  O   UNL     1      43.200 -16.133   3.955  1.00  0.00    -0.194 OA
HETATM   18  N   UNL     1      43.803 -17.360   4.193  1.00  0.00    -0.106 NA
HETATM   19  C   UNL     1      43.302 -18.170   3.245  1.00  0.00     0.189 A 
HETATM   20  N   UNL     1      42.348 -17.554   2.447  1.00  0.00    -0.202 NA
BRANCH  19  21
HETATM   21  C   UNL     1      43.698 -19.562   3.061  1.00  0.00     0.016 A 
HETATM   22  C   UNL     1      44.296 -20.269   4.113  1.00  0.00     0.039 A 
HETATM   23  C   UNL     1      44.663 -21.605   3.946  1.00  0.00     0.035 A 
HETATM   24 CL   UNL     1      45.398 -22.448   5.253  1.00  0.00    -0.084 Cl
HETATM   25  C   UNL     1      44.439 -22.256   2.736  1.00  0.00     0.024 A 
HETATM   26  C   UNL     1      43.844 -21.564   1.683  1.00  0.00     0.003 A 
HETATM   27  C   UNL     1      43.475 -20.225   1.843  1.00  0.00     0.015 A 
ENDBRANCH  19  21
ENDBRANCH  15  16
ENDBRANCH   7  15
TORSDOF 3
ENDMDL
MODEL 4
REMARK VINA RESULT:      -8.5      1.888      2.726
REMARK  3 active torsions:
REMARK  status: ('A' for Active; 'I' for Inactive)
REMARK    1  A    between atoms: N_7  and  C_9 
REMARK    2  A    between atoms: C_9  and  C_10 
REMARK    3  A    between atoms: C_13  and  C_14 
ROOT
HETATM    1  C   UNL     1      42.482 -12.065  -3.677  1.00  0.00     0.269 C 
HETATM    2  N   UNL     1      41.454 -12.875  -2.912  1.00  0.00    -0.074 N 
HETATM    3  H   UNL     1      40.553 -12.426  -3.132  1.00  0.00     0.279 HD
HETATM    4  C   UNL     1      41.700 -12.825  -1.423  1.00  0.00     0.245 C 
HETATM    5  C   UNL     1      40.572 -13.549  -0.623  1.00  0.00     0.008 C 
HETATM    6  C   UNL     1      41.019 -13.576   0.873  1.00  0.00     0.246 C 
HETATM    7  N   UNL     1      39.924 -13.918   1.858  1.00  0.00    -0.063 N 
HETATM    8  H   UNL     1      40.304 -13.609   2.772  1.00  0.00     0.280 HD
HETATM    9  C   UNL     1      38.663 -13.117   1.685  1.00  0.00     0.235 C 
HETATM   10  C   UNL     1      38.175 -13.215   0.250  1.00  0.00     0.029 C 
HETATM   11  C   UNL     1      39.246 -12.756  -0.740  1.00  0.00     0.014 C 
HETATM   12  C   UNL     1      40.430 -14.983  -1.197  1.00  0.00     0.014 C 
HETATM   13  C   UNL     1      40.283 -15.035  -2.721  1.00  0.00     0.029 C 
HETATM   14  C   UNL     1      41.392 -14.288  -3.441  1.00  0.00     0.234 C 
ENDROOT
BRANCH   7  15
HETATM   15  C   UNL     1      39.681 -15.408   2.155  1.00  0.00     0.323 C 
BRANCH  15  16
HETATM   16  C   UNL     1      40.835 -16.056   2.826  1.00  0.00     0.199 A 
HETATM   17  O   UNL     1      41.510 -15.330   3.751  1.00  0.00    -0.194 OA
HETATM   18  N   UNL     1      42.508 -16.162   4.240  1.00  0.00    -0.106 NA
HETATM   19  C   UNL     1      42.362 -17.304   3.547  1.00  0.00     0.189 A 
HETATM   20  N   UNL     1      41.274 -17.287   2.686  1.00  0.00    -0.202 NA
BRANCH  19  21
HETATM   21  C   UNL     1      43.240 -18.462   3.680  1.00  0.00     0.016 A 
HETATM   22  C   UNL     1      43.288 -19.429   2.665  1.00  0.00     0.039 A 
HETATM   23  C   UNL     1      44.138 -20.530   2.782  1.00  0.00     0.035 A 
HETATM   24 CL   UNL     1      44.176 -21.703   1.524  1.00  0.00    -0.084 Cl
HETATM   25  C   UNL     1      44.950 -20.684   3.901  1.00  0.00     0.024 A 
HETATM   26  C   UNL     1      44.912 -19.729   4.916  1.00  0.00     0.003 A 
HETATM   27  C   UNL     1      44.062 -18.624   4.807  1.00  0.00     0.015 A 
ENDBRANCH  19  21
ENDBRANCH  15  16
ENDBRANCH   7  15
TORSDOF 3
ENDMDL
MODEL 5
REMARK VINA RESULT:      -8.4      2.856      3.774
REMARK  3 active torsions:
REMARK  status: ('A' for Active; 'I' for Inactive)
REMARK    1  A    between atoms: N_7  and  C_9 
REMARK    2  A    between atoms: C_9  and  C_10 
REMARK    3  A    between atoms: C_13  and  C_14 
ROOT
HETATM    1  C   UNL     1      41.982  -8.241  -2.181  1.00  0.00     0.269 C 
HETATM    2  N   UNL     1      41.649  -9.700  -2.428  1.00  0.00    -0.074 N 
HETATM    3  H   UNL     1      40.747  -9.680  -2.926  1.00  0.00     0.279 HD
HETATM    4  C   UNL     1      41.502 -10.465  -1.134  1.00  0.00     0.245 C 
HETATM    5  C   UNL     1      41.034 -11.934  -1.377  1.00  0.00     0.008 C 
HETATM    6  C   UNL     1      41.080 -12.662   0.003  1.00  0.00     0.246 C 
HETATM    7  N   UNL     1      40.341 -13.981   0.052  1.00  0.00    -0.063 N 
HETATM    8  H   UNL     1      40.226 -14.166   1.065  1.00  0.00     0.280 HD
HETATM    9  C   UNL     1      38.937 -13.923  -0.482  1.00  0.00     0.235 C 
HETATM   10  C   UNL     1      38.934 -13.332  -1.882  1.00  0.00     0.029 C 
HETATM   11  C   UNL     1      39.577 -11.945  -1.907  1.00  0.00     0.014 C 
HETATM   12  C   UNL     1      42.012 -12.581  -2.391  1.00  0.00     0.014 C 
HETATM   13  C   UNL     1      42.238 -11.751  -3.660  1.00  0.00     0.029 C 
HETATM   14  C   UNL     1      42.662 -10.324  -3.357  1.00  0.00     0.234 C 
ENDROOT
BRANCH   7  15
HETATM   15  C   UNL     1      41.118 -15.242  -0.368  1.00  0.00     0.323 C 
BRANCH  15  16
HETATM   16  C   UNL     1      41.453 -16.118   0.781  1.00  0.00     0.199 A 
HETATM   17  O   UNL     1      40.736 -15.960   1.921  1.00  0.00    -0.194 OA
HETATM   18  N   UNL     1      41.221 -16.903   2.816  1.00  0.00    -0.106 NA
HETATM   19  C   UNL     1      42.205 -17.528   2.145  1.00  0.00     0.189 A 
HETATM   20  N   UNL     1      42.335 -17.091   0.834  1.00  0.00    -0.202 NA
BRANCH  19  21
HETATM   21  C   UNL     1      43.053 -18.569   2.714  1.00  0.00     0.016 A 
HETATM   22  C   UNL     1      43.331 -19.731   1.979  1.00  0.00     0.039 A 
HETATM   23  C   UNL     1      44.154 -20.723   2.514  1.00  0.00     0.035 A 
HETATM   24 CL   UNL     1      44.476 -22.139   1.592  1.00  0.00    -0.084 Cl
HETATM   25  C   UNL     1      44.713 -20.574   3.780  1.00  0.00     0.024 A 
HETATM   26  C   UNL     1      44.445 -19.424   4.519  1.00  0.00     0.003 A 
HETATM   27  C   UNL     1      43.620 -18.426   3.991  1.00  0.00     0.015 A 
ENDBRANCH  19  21
ENDBRANCH  15  16
ENDBRANCH   7  15
TORSDOF 3
ENDMDL
MODEL 6
REMARK VINA RESULT:      -8.4      1.952      2.878
REMARK  3 active torsions:
REMARK  status: ('A' for Active; 'I' for Inactive)
REMARK    1  A    between atoms: N_7  and  C_9 
REMARK    2  A    between atoms: C_9  and  C_10 
REMARK    3  A    between atoms: C_13  and  C_14 
ROOT
HETATM    1  C   UNL     1      37.669  -9.788   2.440  1.00  0.00     0.269 C 
HETATM    2  N   UNL     1      38.797 -10.756   2.140  1.00  0.00    -0.074 N 
HETATM    3  H   UNL     1      38.540 -11.184   1.239  1.00  0.00     0.279 HD
HETATM    4  C   UNL     1      38.912 -11.825   3.200  1.00  0.00     0.245 C 
HETATM    5  C   UNL     1      39.986 -12.896   2.832  1.00  0.00     0.008 C 
HETATM    6  C   UNL     1      40.130 -13.842   4.066  1.00  0.00     0.246 C 
HETATM    7  N   UNL     1      40.856 -15.140   3.792  1.00  0.00    -0.063 N 
HETATM    8  H   UNL     1      40.606 -15.741   4.598  1.00  0.00     0.280 HD
HETATM    9  C   UNL     1      40.349 -15.891   2.592  1.00  0.00     0.235 C 
HETATM   10  C   UNL     1      40.344 -14.985   1.373  1.00  0.00     0.029 C 
HETATM   11  C   UNL     1      39.510 -13.725   1.612  1.00  0.00     0.014 C 
HETATM   12  C   UNL     1      41.313 -12.153   2.531  1.00  0.00     0.014 C 
HETATM   13  C   UNL     1      41.172 -11.001   1.530  1.00  0.00     0.029 C 
HETATM   14  C   UNL     1      40.093 -10.009   1.928  1.00  0.00     0.234 C 
ENDROOT
BRANCH   7  15
HETATM   15  C   UNL     1      42.389 -15.133   3.923  1.00  0.00     0.323 C 
BRANCH  15  16
HETATM   16  C   UNL     1      43.024 -16.321   3.301  1.00  0.00     0.199 A 
HETATM   17  O   UNL     1      43.695 -16.137   2.138  1.00  0.00    -0.194 OA
HETATM   18  N   UNL     1      44.209 -17.378   1.788  1.00  0.00    -0.106 NA
HETATM   19  C   UNL     1      43.779 -18.204   2.757  1.00  0.00     0.189 A 
HETATM   20  N   UNL     1      43.075 -17.552   3.760  1.00  0.00    -0.202 NA
BRANCH  19  21
HETATM   21  C   UNL     1      44.026 -19.642   2.779  1.00  0.00     0.016 A 
HETATM   22  C   UNL     1      44.495 -20.258   3.948  1.00  0.00     0.039 A 
HETATM   23  C   UNL     1      44.718 -21.636   3.977  1.00  0.00     0.035 A 
HETATM   24 CL   UNL     1      45.298 -22.366   5.423  1.00  0.00    -0.084 Cl
HETATM   25  C   UNL     1      44.476 -22.418   2.851  1.00  0.00     0.024 A 
HETATM   26  C   UNL     1      44.008 -21.817   1.684  1.00  0.00     0.003 A 
HETATM   27  C   UNL     1      43.784 -20.437   1.647  1.00  0.00     0.015 A 
ENDBRANCH  19  21
ENDBRANCH  15  16
ENDBRANCH   7  15
TORSDOF 3
ENDMDL
MODEL 7
REMARK VINA RESULT:      -8.3      4.319      8.346
REMARK  3 active torsions:
REMARK  status: ('A' for Active; 'I' for Inactive)
REMARK    1  A    between atoms: N_7  and  C_9 
REMARK    2  A    between atoms: C_9  and  C_10 
REMARK    3  A    between atoms: C_13  and  C_14 
ROOT
HETATM    1  C   UNL     1      43.632 -16.316   7.494  1.00  0.00     0.269 C 
HETATM    2  N   UNL     1      42.991 -16.902   6.252  1.00  0.00    -0.074 N 
HETATM    3  H   UNL     1      43.363 -17.861   6.194  1.00  0.00     0.279 HD
HETATM    4  C   UNL     1      43.372 -16.130   5.011  1.00  0.00     0.245 C 
HETATM    5  C   UNL     1      42.820 -16.803   3.715  1.00  0.00     0.008 C 
HETATM    6  C   UNL     1      43.130 -15.836   2.530  1.00  0.00     0.246 C 
HETATM    7  N   UNL     1      42.992 -16.450   1.154  1.00  0.00    -0.063 N 
HETATM    8  H   UNL     1      43.501 -15.793   0.535  1.00  0.00     0.280 HD
HETATM    9  C   UNL     1      43.711 -17.759   0.986  1.00  0.00     0.235 C 
HETATM   10  C   UNL     1      43.290 -18.730   2.076  1.00  0.00     0.029 C 
HETATM   11  C   UNL     1      43.541 -18.153   3.470  1.00  0.00     0.014 C 
HETATM   12  C   UNL     1      41.292 -17.001   3.898  1.00  0.00     0.014 C 
HETATM   13  C   UNL     1      40.903 -17.694   5.208  1.00  0.00     0.029 C 
HETATM   14  C   UNL     1      41.495 -17.010   6.429  1.00  0.00     0.234 C 
ENDROOT
BRANCH   7  15
HETATM   15  C   UNL     1      41.599 -16.413   0.501  1.00  0.00     0.323 C 
BRANCH  15  16
HETATM   16  C   UNL     1      41.502 -15.414  -0.591  1.00  0.00     0.199 A 
HETATM   17  O   UNL     1      40.777 -15.751  -1.686  1.00  0.00    -0.194 OA
HETATM   18  N   UNL     1      40.822 -14.651  -2.531  1.00  0.00    -0.106 NA
HETATM   19  C   UNL     1      41.592 -13.760  -1.882  1.00  0.00     0.189 A 
HETATM   20  N   UNL     1      41.989 -14.194  -0.625  1.00  0.00    -0.202 NA
BRANCH  19  21
HETATM   21  C   UNL     1      41.974 -12.460  -2.421  1.00  0.00     0.016 A 
HETATM   22  C   UNL     1      42.693 -11.553  -1.629  1.00  0.00     0.039 A 
HETATM   23  C   UNL     1      43.073 -10.313  -2.147  1.00  0.00     0.035 A 
HETATM   24 CL   UNL     1      43.951  -9.218  -1.152  1.00  0.00    -0.084 Cl
HETATM   25  C   UNL     1      42.749  -9.960  -3.453  1.00  0.00     0.024 A 
HETATM   26  C   UNL     1      42.036 -10.854  -4.251  1.00  0.00     0.003 A 
HETATM   27  C   UNL     1      41.650 -12.096  -3.739  1.00  0.00     0.015 A 
ENDBRANCH  19  21
ENDBRANCH  15  16
ENDBRANCH   7  15
TORSDOF 3
ENDMDL
MODEL 8
REMARK VINA RESULT:      -8.3      1.679      2.382
REMARK  3 active torsions:
REMARK  status: ('A' for Active; 'I' for Inactive)
REMARK    1  A    between atoms: N_7  and  C_9 
REMARK    2  A    between atoms: C_9  and  C_10 
REMARK    3  A    between atoms: C_13  and  C_14 
ROOT
HETATM    1  C   UNL     1      41.649 -12.191  -1.008  1.00  0.00     0.269 C 
HETATM    2  N   UNL     1      40.918 -12.746   0.198  1.00  0.00    -0.074 N 
HETATM    3  H   UNL     1      40.165 -12.067   0.380  1.00  0.00     0.279 HD
HETATM    4  C   UNL     1      41.822 -12.841   1.404  1.00  0.00     0.245 C 
HETATM    5  C   UNL     1      41.045 -13.290   2.680  1.00  0.00     0.008 C 
HETATM    6  C   UNL     1      42.103 -13.512   3.806  1.00  0.00     0.246 C 
HETATM    7  N   UNL     1      41.535 -13.611   5.204  1.00  0.00    -0.063 N 
HETATM    8  H   UNL     1      42.356 -13.461   5.819  1.00  0.00     0.280 HD
HETATM    9  C   UNL     1      40.586 -12.502   5.566  1.00  0.00     0.235 C 
HETATM   10  C   UNL     1      39.488 -12.393   4.522  1.00  0.00     0.029 C 
HETATM   11  C   UNL     1      40.063 -12.175   3.122  1.00  0.00     0.014 C 
HETATM   12  C   UNL     1      40.295 -14.605   2.341  1.00  0.00     0.014 C 
HETATM   13  C   UNL     1      39.458 -14.535   1.059  1.00  0.00     0.029 C 
HETATM   14  C   UNL     1      40.263 -14.064  -0.140  1.00  0.00     0.234 C 
ENDROOT
BRANCH   7  15
HETATM   15  C   UNL     1      41.084 -15.001   5.687  1.00  0.00     0.323 C 
BRANCH  15  16
HETATM   16  C   UNL     1      42.113 -16.047   5.466  1.00  0.00     0.199 A 
HETATM   17  O   UNL     1      43.288 -15.921   6.131  1.00  0.00    -0.194 OA
HETATM   18  N   UNL     1      44.051 -17.024   5.777  1.00  0.00    -0.106 NA
HETATM   19  C   UNL     1      43.279 -17.703   4.911  1.00  0.00     0.189 A 
HETATM   20  N   UNL     1      42.023 -17.139   4.740  1.00  0.00    -0.202 NA
BRANCH  19  21
HETATM   21  C   UNL     1      43.695 -18.918   4.219  1.00  0.00     0.016 A 
HETATM   22  C   UNL     1      44.282 -19.971   4.935  1.00  0.00     0.039 A 
HETATM   23  C   UNL     1      44.667 -21.141   4.279  1.00  0.00     0.035 A 
HETATM   24 CL   UNL     1      45.387 -22.416   5.181  1.00  0.00    -0.084 Cl
HETATM   25  C   UNL     1      44.473 -21.282   2.908  1.00  0.00     0.024 A 
HETATM   26  C   UNL     1      43.889 -20.243   2.185  1.00  0.00     0.003 A 
HETATM   27  C   UNL     1      43.502 -19.068   2.836  1.00  0.00     0.015 A 
ENDBRANCH  19  21
ENDBRANCH  15  16
ENDBRANCH   7  15
TORSDOF 3
ENDMDL
MODEL 9
REMARK VINA RESULT:      -8.0      2.195      4.249
REMARK  3 active torsions:
REMARK  status: ('A' for Active; 'I' for Inactive)
REMARK    1  A    between atoms: N_7  and  C_9 
REMARK    2  A    between atoms: C_9  and  C_10 
REMARK    3  A    between atoms: C_13  and  C_14 
ROOT
HETATM    1  C   UNL     1      39.577 -12.634   6.575  1.00  0.00     0.269 C 
HETATM    2  N   UNL     1      40.444 -12.631   5.331  1.00  0.00    -0.074 N 
HETATM    3  H   UNL     1      40.482 -11.643   5.043  1.00  0.00     0.279 HD
HETATM    4  C   UNL     1      39.837 -13.462   4.226  1.00  0.00     0.245 C 
HETATM    5  C   UNL     1      40.658 -13.359   2.902  1.00  0.00     0.008 C 
HETATM    6  C   UNL     1      40.036 -14.380   1.898  1.00  0.00     0.246 C 
HETATM    7  N   UNL     1      40.457 -14.193   0.457  1.00  0.00    -0.063 N 
HETATM    8  H   UNL     1      39.754 -14.731  -0.080  1.00  0.00     0.280 HD
HETATM    9  C   UNL     1      40.319 -12.783  -0.049  1.00  0.00     0.235 C 
HETATM   10  C   UNL     1      41.047 -11.823   0.876  1.00  0.00     0.029 C 
HETATM   11  C   UNL     1      40.536 -11.931   2.313  1.00  0.00     0.014 C 
HETATM   12  C   UNL     1      42.131 -13.715   3.231  1.00  0.00     0.014 C 
HETATM   13  C   UNL     1      42.712 -12.942   4.419  1.00  0.00     0.029 C 
HETATM   14  C   UNL     1      41.853 -13.056   5.667  1.00  0.00     0.234 C 
ENDROOT
BRANCH   7  15
HETATM   15  C   UNL     1      41.746 -14.898   0.001  1.00  0.00     0.323 C 
BRANCH  15  16
HETATM   16  C   UNL     1      41.967 -16.194   0.688  1.00  0.00     0.199 A 
HETATM   17  O   UNL     1      41.021 -17.153   0.536  1.00  0.00    -0.194 OA
HETATM   18  N   UNL     1      41.473 -18.257   1.245  1.00  0.00    -0.106 NA
HETATM   19  C   UNL     1      42.638 -17.856   1.782  1.00  0.00     0.189 A 
HETATM   20  N   UNL     1      43.005 -16.574   1.399  1.00  0.00    -0.202 NA
BRANCH  19  21
HETATM   21  C   UNL     1      43.456 -18.674   2.671  1.00  0.00     0.016 A 
HETATM   22  C   UNL     1      43.852 -18.176   3.921  1.00  0.00     0.039 A 
HETATM   23  C   UNL     1      44.622 -18.962   4.780  1.00  0.00     0.035 A 
HETATM   24 CL   UNL     1      45.097 -18.325   6.306  1.00  0.00    -0.084 Cl
HETATM   25  C   UNL     1      45.006 -20.248   4.413  1.00  0.00     0.024 A 
HETATM   26  C   UNL     1      44.617 -20.754   3.174  1.00  0.00     0.003 A 
HETATM   27  C   UNL     1      43.847 -19.973   2.307  1.00  0.00     0.015 A 
ENDBRANCH  19  21
ENDBRANCH  15  16
ENDBRANCH   7  15
TORSDOF 3
ENDMDL
MODEL 10
REMARK VINA RESULT:      -8.0      1.497      2.101
REMARK  3 active torsions:
REMARK  status: ('A' for Active; 'I' for Inactive)
REMARK    1  A    between atoms: N_7  and  C_9 
REMARK    2  A    between atoms: C_9  and  C_10 
REMARK    3  A    between atoms: C_13  and  C_14 
ROOT
HETATM    1  C   UNL     1      36.603 -11.392  -2.117  1.00  0.00     0.269 C 
HETATM    2  N   UNL     1      37.496 -12.508  -1.609  1.00  0.00    -0.074 N 
HETATM    3  H   UNL     1      36.843 -13.226  -1.264  1.00  0.00     0.279 HD
HETATM    4  C   UNL     1      38.386 -12.042  -0.482  1.00  0.00     0.245 C 
HETATM    5  C   UNL     1      39.213 -13.215   0.130  1.00  0.00     0.008 C 
HETATM    6  C   UNL     1      40.205 -12.588   1.159  1.00  0.00     0.246 C 
HETATM    7  N   UNL     1      40.850 -13.575   2.106  1.00  0.00    -0.063 N 
HETATM    8  H   UNL     1      41.221 -12.982   2.871  1.00  0.00     0.280 HD
HETATM    9  C   UNL     1      39.880 -14.502   2.786  1.00  0.00     0.235 C 
HETATM   10  C   UNL     1      39.015 -15.202   1.752  1.00  0.00     0.029 C 
HETATM   11  C   UNL     1      38.271 -14.199   0.870  1.00  0.00     0.014 C 
HETATM   12  C   UNL     1      39.969 -13.916  -1.030  1.00  0.00     0.014 C 
HETATM   13  C   UNL     1      39.079 -14.296  -2.217  1.00  0.00     0.029 C 
HETATM   14  C   UNL     1      38.277 -13.120  -2.748  1.00  0.00     0.234 C 
ENDROOT
BRANCH   7  15
HETATM   15  C   UNL     1      42.146 -14.259   1.639  1.00  0.00     0.323 C 
BRANCH  15  16
HETATM   16  C   UNL     1      42.680 -15.221   2.635  1.00  0.00     0.199 A 
HETATM   17  O   UNL     1      43.000 -14.739   3.861  1.00  0.00    -0.194 OA
HETATM   18  N   UNL     1      43.442 -15.828   4.599  1.00  0.00    -0.106 NA
HETATM   19  C   UNL     1      43.373 -16.863   3.745  1.00  0.00     0.189 A 
HETATM   20  N   UNL     1      42.839 -16.519   2.511  1.00  0.00    -0.202 NA
BRANCH  19  21
HETATM   21  C   UNL     1      43.799 -18.221   4.064  1.00  0.00     0.016 A 
HETATM   22  C   UNL     1      43.982 -19.161   3.040  1.00  0.00     0.039 A 
HETATM   23  C   UNL     1      44.405 -20.457   3.341  1.00  0.00     0.035 A 
HETATM   24 CL   UNL     1      44.618 -21.592   2.065  1.00  0.00    -0.084 Cl
HETATM   25  C   UNL     1      44.654 -20.835   4.657  1.00  0.00     0.024 A 
HETATM   26  C   UNL     1      44.478 -19.909   5.683  1.00  0.00     0.003 A 
HETATM   27  C   UNL     1      44.053 -18.609   5.390  1.00  0.00     0.015 A 
ENDBRANCH  19  21
ENDBRANCH  15  16
ENDBRANCH   7  15
TORSDOF 3
ENDMDL
