MODEL 1
REMARK VINA RESULT:      -7.7      0.000      0.000
REMARK  5 active torsions:
REMARK  status: ('A' for Active; 'I' for Inactive)
REMARK    1  A    between atoms: C_8  and  N_9 
REMARK       I    between atoms: N_9  and  C_10 
REMARK       I    between atoms: C_10  and  N_11 
REMARK    2  A    between atoms: N_11  and  C_12 
REMARK    3  A    between atoms: C_13  and  O_14 
REMARK    4  A    between atoms: O_14  and  C_15 
REMARK    5  A    between atoms: C_15  and  C_16 
ROOT
HETATM    1  N   UNL     1      42.041 -15.694   0.257  1.00  0.00    -0.305 N 
HETATM    2  C   UNL     1      42.069 -16.924   0.887  1.00  0.00     0.325 C 
HETATM    3  N   UNL     1      43.363 -17.238   1.262  1.00  0.00    -0.306 N 
HETATM    4  O   UNL     1      41.094 -17.632   1.102  1.00  0.00    -0.247 OA
HETATM    5  H   UNL     1      42.723 -15.026   0.583  1.00  0.00     0.171 HD
HETATM    6  H   UNL     1      44.097 -16.858   0.676  1.00  0.00     0.171 HD
ENDROOT
BRANCH   3   7
HETATM    7  C   UNL     1      43.756 -18.278   2.129  1.00  0.00     0.070 A 
HETATM    8  C   UNL     1      43.803 -18.005   3.507  1.00  0.00     0.097 A 
HETATM    9  C   UNL     1      44.106 -19.006   4.430  1.00  0.00     0.063 A 
HETATM   10  C   UNL     1      44.401 -20.288   3.969  1.00  0.00     0.036 A 
HETATM   11 CL   UNL     1      44.783 -21.531   5.095  1.00  0.00    -0.084 Cl
HETATM   12  C   UNL     1      44.387 -20.570   2.604  1.00  0.00     0.026 A 
HETATM   13  C   UNL     1      44.061 -19.566   1.685  1.00  0.00     0.034 A 
BRANCH   8  14
HETATM   14  O   UNL     1      43.519 -16.727   3.927  1.00  0.00    -0.340 OA
BRANCH  14  15
HETATM   15  C   UNL     1      42.883 -16.738   5.221  1.00  0.00     0.293 C 
BRANCH  15  16
HETATM   16  C   UNL     1      41.372 -16.770   5.063  1.00  0.00     0.408 C 
HETATM   17  F   UNL     1      40.987 -16.174   3.911  1.00  0.00    -0.169 F 
HETATM   18  F   UNL     1      40.899 -18.035   5.052  1.00  0.00    -0.169 F 
HETATM   19  F   UNL     1      40.770 -16.118   6.083  1.00  0.00    -0.169 F 
ENDBRANCH  15  16
ENDBRANCH  14  15
ENDBRANCH   8  14
ENDBRANCH   3   7
BRANCH   1  20
HETATM   20  C   UNL     1      40.947 -15.177  -0.417  1.00  0.00     0.086 A 
HETATM   21  C   UNL     1      39.903 -14.539   0.222  1.00  0.00     0.052 A 
HETATM   22  C   UNL     1      39.611 -14.274   1.649  1.00  0.00     0.072 C 
HETATM   23  N   UNL     1      39.033 -14.175  -0.768  1.00  0.00    -0.280 N 
HETATM   24  H   UNL     1      38.139 -13.704  -0.675  1.00  0.00     0.189 HD
HETATM   25  N   UNL     1      39.450 -14.487  -2.000  1.00  0.00    -0.177 NA
HETATM   26  C   UNL     1      40.626 -15.101  -1.803  1.00  0.00     0.079 A 
HETATM   27  C   UNL     1      41.414 -15.529  -2.986  1.00  0.00     0.075 C 
ENDBRANCH   1  20
TORSDOF 5
ENDMDL
MODEL 2
REMARK VINA RESULT:      -7.6      0.265      1.861
REMARK  5 active torsions:
REMARK  status: ('A' for Active; 'I' for Inactive)
REMARK    1  A    between atoms: C_8  and  N_9 
REMARK       I    between atoms: N_9  and  C_10 
REMARK       I    between atoms: C_10  and  N_11 
REMARK    2  A    between atoms: N_11  and  C_12 
REMARK    3  A    between atoms: C_13  and  O_14 
REMARK    4  A    between atoms: O_14  and  C_15 
REMARK    5  A    between atoms: C_15  and  C_16 
ROOT
HETATM    1  N   UNL     1      41.911 -15.587   0.257  1.00  0.00    -0.305 N 
HETATM    2  C   UNL     1      41.926 -16.782   0.951  1.00  0.00     0.325 C 
HETATM    3  N   UNL     1      43.230 -17.186   1.178  1.00  0.00    -0.306 N 
HETATM    4  O   UNL     1      40.935 -17.394   1.329  1.00  0.00    -0.247 OA
HETATM    5  H   UNL     1      42.680 -14.964   0.454  1.00  0.00     0.171 HD
HETATM    6  H   UNL     1      43.908 -16.899   0.483  1.00  0.00     0.171 HD
ENDROOT
BRANCH   3   7
HETATM    7  C   UNL     1      43.650 -18.211   2.050  1.00  0.00     0.070 A 
HETATM    8  C   UNL     1      43.781 -17.903   3.415  1.00  0.00     0.097 A 
HETATM    9  C   UNL     1      44.117 -18.886   4.347  1.00  0.00     0.063 A 
HETATM   10  C   UNL     1      44.358 -20.186   3.906  1.00  0.00     0.036 A 
HETATM   11 CL   UNL     1      44.778 -21.407   5.042  1.00  0.00    -0.084 Cl
HETATM   12  C   UNL     1      44.259 -20.503   2.552  1.00  0.00     0.026 A 
HETATM   13  C   UNL     1      43.902 -19.517   1.626  1.00  0.00     0.034 A 
BRANCH   8  14
HETATM   14  O   UNL     1      43.549 -16.609   3.815  1.00  0.00    -0.340 OA
BRANCH  14  15
HETATM   15  C   UNL     1      42.920 -16.574   5.113  1.00  0.00     0.293 C 
BRANCH  15  16
HETATM   16  C   UNL     1      41.410 -16.501   4.961  1.00  0.00     0.408 C 
HETATM   17  F   UNL     1      40.823 -16.065   6.100  1.00  0.00    -0.169 F 
HETATM   18  F   UNL     1      41.048 -15.666   3.963  1.00  0.00    -0.169 F 
HETATM   19  F   UNL     1      40.898 -17.721   4.678  1.00  0.00    -0.169 F 
ENDBRANCH  15  16
ENDBRANCH  14  15
ENDBRANCH   8  14
ENDBRANCH   3   7
BRANCH   1  20
HETATM   20  C   UNL     1      40.783 -15.014  -0.304  1.00  0.00     0.086 A 
HETATM   21  C   UNL     1      40.487 -15.099  -1.650  1.00  0.00     0.052 A 
HETATM   22  C   UNL     1      41.200 -15.701  -2.799  1.00  0.00     0.072 C 
HETATM   23  N   UNL     1      39.310 -14.420  -1.812  1.00  0.00    -0.280 N 
HETATM   24  H   UNL     1      38.796 -14.253  -2.670  1.00  0.00     0.189 HD
HETATM   25  N   UNL     1      38.799 -13.940  -0.672  1.00  0.00    -0.177 NA
HETATM   26  C   UNL     1      39.691 -14.299   0.264  1.00  0.00     0.079 A 
HETATM   27  C   UNL     1      39.399 -13.980   1.685  1.00  0.00     0.075 C 
ENDBRANCH   1  20
TORSDOF 5
ENDMDL
MODEL 3
REMARK VINA RESULT:      -7.3      2.558      3.514
REMARK  5 active torsions:
REMARK  status: ('A' for Active; 'I' for Inactive)
REMARK    1  A    between atoms: C_8  and  N_9 
REMARK       I    between atoms: N_9  and  C_10 
REMARK       I    between atoms: C_10  and  N_11 
REMARK    2  A    between atoms: N_11  and  C_12 
REMARK    3  A    between atoms: C_13  and  O_14 
REMARK    4  A    between atoms: O_14  and  C_15 
REMARK    5  A    between atoms: C_15  and  C_16 
ROOT
HETATM    1  N   UNL     1      42.490 -15.085   3.555  1.00  0.00    -0.305 N 
HETATM    2  C   UNL     1      42.361 -16.447   3.356  1.00  0.00     0.325 C 
HETATM    3  N   UNL     1      43.606 -17.025   3.190  1.00  0.00    -0.306 N 
HETATM    4  O   UNL     1      41.303 -17.063   3.342  1.00  0.00    -0.247 OA
HETATM    5  H   UNL     1      43.327 -14.798   4.041  1.00  0.00     0.171 HD
HETATM    6  H   UNL     1      44.317 -16.433   2.777  1.00  0.00     0.171 HD
ENDROOT
BRANCH   3   7
HETATM    7  C   UNL     1      43.899 -18.404   3.205  1.00  0.00     0.070 A 
HETATM    8  C   UNL     1      44.382 -18.962   4.401  1.00  0.00     0.097 A 
HETATM    9  C   UNL     1      44.618 -20.333   4.513  1.00  0.00     0.063 A 
HETATM   10  C   UNL     1      44.402 -21.152   3.407  1.00  0.00     0.036 A 
HETATM   11 CL   UNL     1      44.694 -22.842   3.528  1.00  0.00    -0.084 Cl
HETATM   12  C   UNL     1      43.950 -20.611   2.204  1.00  0.00     0.026 A 
HETATM   13  C   UNL     1      43.694 -19.239   2.105  1.00  0.00     0.034 A 
BRANCH   8  14
HETATM   14  O   UNL     1      44.596 -18.124   5.470  1.00  0.00    -0.340 OA
BRANCH  14  15
HETATM   15  C   UNL     1      43.758 -18.487   6.587  1.00  0.00     0.293 C 
BRANCH  15  16
HETATM   16  C   UNL     1      42.902 -17.303   7.005  1.00  0.00     0.408 C 
HETATM   17  F   UNL     1      41.641 -17.417   6.528  1.00  0.00    -0.169 F 
HETATM   18  F   UNL     1      42.827 -17.191   8.349  1.00  0.00    -0.169 F 
HETATM   19  F   UNL     1      43.418 -16.147   6.527  1.00  0.00    -0.169 F 
ENDBRANCH  15  16
ENDBRANCH  14  15
ENDBRANCH   8  14
ENDBRANCH   3   7
BRANCH   1  20
HETATM   20  C   UNL     1      41.440 -14.183   3.553  1.00  0.00     0.086 A 
HETATM   21  C   UNL     1      41.129 -13.394   2.463  1.00  0.00     0.052 A 
HETATM   22  C   UNL     1      41.756 -13.228   1.132  1.00  0.00     0.072 C 
HETATM   23  N   UNL     1      40.046 -12.650   2.844  1.00  0.00    -0.280 N 
HETATM   24  H   UNL     1      39.553 -11.943   2.311  1.00  0.00     0.189 HD
HETATM   25  N   UNL     1      39.605 -12.925   4.076  1.00  0.00    -0.177 NA
HETATM   26  C   UNL     1      40.449 -13.867   4.525  1.00  0.00     0.079 A 
HETATM   27  C   UNL     1      40.206 -14.462   5.864  1.00  0.00     0.075 C 
ENDBRANCH   1  20
TORSDOF 5
ENDMDL
MODEL 4
REMARK VINA RESULT:      -7.2      1.746      1.885
REMARK  5 active torsions:
REMARK  status: ('A' for Active; 'I' for Inactive)
REMARK    1  A    between atoms: C_8  and  N_9 
REMARK       I    between atoms: N_9  and  C_10 
REMARK       I    between atoms: C_10  and  N_11 
REMARK    2  A    between atoms: N_11  and  C_12 
REMARK    3  A    between atoms: C_13  and  O_14 
REMARK    4  A    between atoms: O_14  and  C_15 
REMARK    5  A    between atoms: C_15  and  C_16 
ROOT
HETATM    1  N   UNL     1      40.359 -15.523  -0.125  1.00  0.00    -0.305 N 
HETATM    2  C   UNL     1      41.310 -15.763   0.849  1.00  0.00     0.325 C 
HETATM    3  N   UNL     1      41.270 -17.090   1.239  1.00  0.00    -0.306 N 
HETATM    4  O   UNL     1      42.090 -14.932   1.297  1.00  0.00    -0.247 OA
HETATM    5  H   UNL     1      40.170 -16.298  -0.743  1.00  0.00     0.171 HD
HETATM    6  H   UNL     1      40.366 -17.542   1.171  1.00  0.00     0.171 HD
ENDROOT
BRANCH   3   7
HETATM    7  C   UNL     1      42.230 -17.763   2.022  1.00  0.00     0.070 A 
HETATM    8  C   UNL     1      42.048 -17.783   3.415  1.00  0.00     0.097 A 
HETATM    9  C   UNL     1      42.915 -18.496   4.245  1.00  0.00     0.063 A 
HETATM   10  C   UNL     1      43.996 -19.169   3.679  1.00  0.00     0.036 A 
HETATM   11 CL   UNL     1      45.076 -20.047   4.690  1.00  0.00    -0.084 Cl
HETATM   12  C   UNL     1      44.208 -19.137   2.302  1.00  0.00     0.026 A 
HETATM   13  C   UNL     1      43.323 -18.438   1.473  1.00  0.00     0.034 A 
BRANCH   8  14
HETATM   14  O   UNL     1      40.978 -17.099   3.941  1.00  0.00    -0.340 OA
BRANCH  14  15
HETATM   15  C   UNL     1      41.416 -15.918   4.644  1.00  0.00     0.293 C 
BRANCH  15  16
HETATM   16  C   UNL     1      40.978 -15.982   6.098  1.00  0.00     0.408 C 
HETATM   17  F   UNL     1      40.339 -14.848   6.468  1.00  0.00    -0.169 F 
HETATM   18  F   UNL     1      40.144 -17.019   6.323  1.00  0.00    -0.169 F 
HETATM   19  F   UNL     1      42.047 -16.133   6.913  1.00  0.00    -0.169 F 
ENDBRANCH  15  16
ENDBRANCH  14  15
ENDBRANCH   8  14
ENDBRANCH   3   7
BRANCH   1  20
HETATM   20  C   UNL     1      39.998 -14.268  -0.585  1.00  0.00     0.086 A 
HETATM   21  C   UNL     1      38.825 -13.641  -0.214  1.00  0.00     0.052 A 
HETATM   22  C   UNL     1      37.689 -14.059   0.638  1.00  0.00     0.072 C 
HETATM   23  N   UNL     1      38.830 -12.438  -0.864  1.00  0.00    -0.280 N 
HETATM   24  H   UNL     1      38.118 -11.715  -0.850  1.00  0.00     0.189 HD
HETATM   25  N   UNL     1      39.931 -12.217  -1.591  1.00  0.00    -0.177 NA
HETATM   26  C   UNL     1      40.661 -13.331  -1.428  1.00  0.00     0.079 A 
HETATM   27  C   UNL     1      42.005 -13.400  -2.055  1.00  0.00     0.075 C 
ENDBRANCH   1  20
TORSDOF 5
ENDMDL
MODEL 5
REMARK VINA RESULT:      -7.2      3.888      7.025
REMARK  5 active torsions:
REMARK  status: ('A' for Active; 'I' for Inactive)
REMARK    1  A    between atoms: C_8  and  N_9 
REMARK       I    between atoms: N_9  and  C_10 
REMARK       I    between atoms: C_10  and  N_11 
REMARK    2  A    between atoms: N_11  and  C_12 
REMARK    3  A    between atoms: C_13  and  O_14 
REMARK    4  A    between atoms: O_14  and  C_15 
REMARK    5  A    between atoms: C_15  and  C_16 
ROOT
HETATM    1  N   UNL     1      42.136 -18.196   4.584  1.00  0.00    -0.305 N 
HETATM    2  C   UNL     1      42.079 -16.862   4.226  1.00  0.00     0.325 C 
HETATM    3  N   UNL     1      40.775 -16.406   4.292  1.00  0.00    -0.306 N 
HETATM    4  O   UNL     1      43.040 -16.173   3.909  1.00  0.00    -0.247 OA
HETATM    5  H   UNL     1      41.460 -18.487   5.274  1.00  0.00     0.171 HD
HETATM    6  H   UNL     1      40.056 -17.097   4.114  1.00  0.00     0.171 HD
ENDROOT
BRANCH   3   7
HETATM    7  C   UNL     1      40.353 -15.061   4.237  1.00  0.00     0.070 A 
HETATM    8  C   UNL     1      39.843 -14.581   3.019  1.00  0.00     0.097 A 
HETATM    9  C   UNL     1      39.335 -13.285   2.913  1.00  0.00     0.063 A 
HETATM   10  C   UNL     1      39.368 -12.449   4.026  1.00  0.00     0.036 A 
HETATM   11 CL   UNL     1      38.751 -10.848   3.909  1.00  0.00    -0.084 Cl
HETATM   12  C   UNL     1      39.897 -12.900   5.235  1.00  0.00     0.026 A 
HETATM   13  C   UNL     1      40.385 -14.207   5.341  1.00  0.00     0.034 A 
BRANCH   8  14
HETATM   14  O   UNL     1      39.836 -15.427   1.937  1.00  0.00    -0.340 OA
BRANCH  14  15
HETATM   15  C   UNL     1      40.878 -15.080   1.002  1.00  0.00     0.293 C 
BRANCH  15  16
HETATM   16  C   UNL     1      41.521 -16.337   0.443  1.00  0.00     0.408 C 
HETATM   17  F   UNL     1      41.392 -16.397  -0.903  1.00  0.00    -0.169 F 
HETATM   18  F   UNL     1      42.838 -16.397   0.735  1.00  0.00    -0.169 F 
HETATM   19  F   UNL     1      40.937 -17.443   0.959  1.00  0.00    -0.169 F 
ENDBRANCH  15  16
ENDBRANCH  14  15
ENDBRANCH   8  14
ENDBRANCH   3   7
BRANCH   1  20
HETATM   20  C   UNL     1      43.247 -19.008   4.432  1.00  0.00     0.086 A 
HETATM   21  C   UNL     1      43.974 -19.495   5.499  1.00  0.00     0.052 A 
HETATM   22  C   UNL     1      43.863 -19.298   6.963  1.00  0.00     0.072 C 
HETATM   23  N   UNL     1      44.976 -20.247   4.951  1.00  0.00    -0.280 N 
HETATM   24  H   UNL     1      45.721 -20.743   5.428  1.00  0.00     0.189 HD
HETATM   25  N   UNL     1      44.930 -20.322   3.616  1.00  0.00    -0.177 NA
HETATM   26  C   UNL     1      43.871 -19.569   3.281  1.00  0.00     0.079 A 
HETATM   27  C   UNL     1      43.481 -19.484   1.851  1.00  0.00     0.075 C 
ENDBRANCH   1  20
TORSDOF 5
ENDMDL
MODEL 6
REMARK VINA RESULT:      -7.1      3.608      6.679
REMARK  5 active torsions:
REMARK  status: ('A' for Active; 'I' for Inactive)
REMARK    1  A    between atoms: C_8  and  N_9 
REMARK       I    between atoms: N_9  and  C_10 
REMARK       I    between atoms: C_10  and  N_11 
REMARK    2  A    between atoms: N_11  and  C_12 
REMARK    3  A    between atoms: C_13  and  O_14 
REMARK    4  A    between atoms: O_14  and  C_15 
REMARK    5  A    between atoms: C_15  and  C_16 
ROOT
HETATM    1  N   UNL     1      43.687 -18.888   2.740  1.00  0.00    -0.305 N 
HETATM    2  C   UNL     1      42.702 -18.025   3.181  1.00  0.00     0.325 C 
HETATM    3  N   UNL     1      42.631 -16.918   2.353  1.00  0.00    -0.306 N 
HETATM    4  O   UNL     1      41.980 -18.211   4.153  1.00  0.00    -0.247 OA
HETATM    5  H   UNL     1      43.828 -18.908   1.741  1.00  0.00     0.171 HD
HETATM    6  H   UNL     1      43.499 -16.646   1.906  1.00  0.00     0.171 HD
ENDROOT
BRANCH   3   7
HETATM    7  C   UNL     1      41.607 -15.950   2.334  1.00  0.00     0.070 A 
HETATM    8  C   UNL     1      41.926 -14.646   2.748  1.00  0.00     0.097 A 
HETATM    9  C   UNL     1      40.983 -13.618   2.680  1.00  0.00     0.063 A 
HETATM   10  C   UNL     1      39.698 -13.904   2.226  1.00  0.00     0.036 A 
HETATM   11 CL   UNL     1      38.525 -12.649   2.143  1.00  0.00    -0.084 Cl
HETATM   12  C   UNL     1      39.356 -15.198   1.837  1.00  0.00     0.026 A 
HETATM   13  C   UNL     1      40.312 -16.220   1.887  1.00  0.00     0.034 A 
BRANCH   8  14
HETATM   14  O   UNL     1      43.199 -14.400   3.202  1.00  0.00    -0.340 OA
BRANCH  14  15
HETATM   15  C   UNL     1      43.173 -13.652   4.435  1.00  0.00     0.293 C 
BRANCH  15  16
HETATM   16  C   UNL     1      43.205 -14.599   5.623  1.00  0.00     0.408 C 
HETATM   17  F   UNL     1      43.881 -14.059   6.663  1.00  0.00    -0.169 F 
HETATM   18  F   UNL     1      41.962 -14.905   6.052  1.00  0.00    -0.169 F 
HETATM   19  F   UNL     1      43.820 -15.759   5.293  1.00  0.00    -0.169 F 
ENDBRANCH  15  16
ENDBRANCH  14  15
ENDBRANCH   8  14
ENDBRANCH   3   7
BRANCH   1  20
HETATM   20  C   UNL     1      44.153 -19.983   3.448  1.00  0.00     0.086 A 
HETATM   21  C   UNL     1      44.248 -21.247   2.902  1.00  0.00     0.052 A 
HETATM   22  C   UNL     1      43.884 -21.798   1.576  1.00  0.00     0.072 C 
HETATM   23  N   UNL     1      44.746 -22.042   3.897  1.00  0.00    -0.280 N 
HETATM   24  H   UNL     1      44.930 -23.039   3.869  1.00  0.00     0.189 HD
HETATM   25  N   UNL     1      45.022 -21.386   5.029  1.00  0.00    -0.177 NA
HETATM   26  C   UNL     1      44.666 -20.119   4.770  1.00  0.00     0.079 A 
HETATM   27  C   UNL     1      44.906 -19.084   5.808  1.00  0.00     0.075 C 
ENDBRANCH   1  20
TORSDOF 5
ENDMDL
MODEL 7
REMARK VINA RESULT:      -7.1      1.776      1.992
REMARK  5 active torsions:
REMARK  status: ('A' for Active; 'I' for Inactive)
REMARK    1  A    between atoms: C_8  and  N_9 
REMARK       I    between atoms: N_9  and  C_10 
REMARK       I    between atoms: C_10  and  N_11 
REMARK    2  A    between atoms: N_11  and  C_12 
REMARK    3  A    between atoms: C_13  and  O_14 
REMARK    4  A    between atoms: O_14  and  C_15 
REMARK    5  A    between atoms: C_15  and  C_16 
ROOT
HETATM    1  N   UNL     1      40.213 -15.705   0.587  1.00  0.00    -0.305 N 
HETATM    2  C   UNL     1      41.443 -16.148   1.036  1.00  0.00     0.325 C 
HETATM    3  N   UNL     1      41.276 -17.080   2.045  1.00  0.00    -0.306 N 
HETATM    4  O   UNL     1      42.528 -15.786   0.600  1.00  0.00    -0.247 OA
HETATM    5  H   UNL     1      39.470 -16.387   0.622  1.00  0.00     0.171 HD
HETATM    6  H   UNL     1      40.443 -16.971   2.612  1.00  0.00     0.171 HD
ENDROOT
BRANCH   3   7
HETATM    7  C   UNL     1      42.270 -17.926   2.579  1.00  0.00     0.070 A 
HETATM    8  C   UNL     1      42.683 -17.701   3.903  1.00  0.00     0.097 A 
HETATM    9  C   UNL     1      43.605 -18.546   4.523  1.00  0.00     0.063 A 
HETATM   10  C   UNL     1      44.145 -19.608   3.800  1.00  0.00     0.036 A 
HETATM   11 CL   UNL     1      45.287 -20.654   4.549  1.00  0.00    -0.084 Cl
HETATM   12  C   UNL     1      43.767 -19.829   2.477  1.00  0.00     0.026 A 
HETATM   13  C   UNL     1      42.826 -18.991   1.868  1.00  0.00     0.034 A 
BRANCH   8  14
HETATM   14  O   UNL     1      42.140 -16.637   4.583  1.00  0.00    -0.340 OA
BRANCH  14  15
HETATM   15  C   UNL     1      43.167 -15.722   5.016  1.00  0.00     0.293 C 
BRANCH  15  16
HETATM   16  C   UNL     1      43.210 -14.512   4.098  1.00  0.00     0.408 C 
HETATM   17  F   UNL     1      43.999 -14.740   3.022  1.00  0.00    -0.169 F 
HETATM   18  F   UNL     1      41.981 -14.183   3.646  1.00  0.00    -0.169 F 
HETATM   19  F   UNL     1      43.707 -13.435   4.749  1.00  0.00    -0.169 F 
ENDBRANCH  15  16
ENDBRANCH  14  15
ENDBRANCH   8  14
ENDBRANCH   3   7
BRANCH   1  20
HETATM   20  C   UNL     1      40.023 -14.633  -0.267  1.00  0.00     0.086 A 
HETATM   21  C   UNL     1      39.631 -13.384   0.170  1.00  0.00     0.052 A 
HETATM   22  C   UNL     1      39.277 -12.853   1.506  1.00  0.00     0.072 C 
HETATM   23  N   UNL     1      39.557 -12.606  -0.953  1.00  0.00    -0.280 N 
HETATM   24  H   UNL     1      39.279 -11.634  -1.025  1.00  0.00     0.189 HD
HETATM   25  N   UNL     1      39.911 -13.240  -2.076  1.00  0.00    -0.177 NA
HETATM   26  C   UNL     1      40.204 -14.486  -1.673  1.00  0.00     0.079 A 
HETATM   27  C   UNL     1      40.710 -15.459  -2.674  1.00  0.00     0.075 C 
ENDBRANCH   1  20
TORSDOF 5
ENDMDL
MODEL 8
REMARK VINA RESULT:      -7.0      3.603      6.484
REMARK  5 active torsions:
REMARK  status: ('A' for Active; 'I' for Inactive)
REMARK    1  A    between atoms: C_8  and  N_9 
REMARK       I    between atoms: N_9  and  C_10 
REMARK       I    between atoms: C_10  and  N_11 
REMARK    2  A    between atoms: N_11  and  C_12 
REMARK    3  A    between atoms: C_13  and  O_14 
REMARK    4  A    between atoms: O_14  and  C_15 
REMARK    5  A    between atoms: C_15  and  C_16 
ROOT
HETATM    1  N   UNL     1      43.917 -18.732   2.727  1.00  0.00    -0.305 N 
HETATM    2  C   UNL     1      42.832 -17.967   3.112  1.00  0.00     0.325 C 
HETATM    3  N   UNL     1      42.831 -16.764   2.429  1.00  0.00    -0.306 N 
HETATM    4  O   UNL     1      41.982 -18.302   3.926  1.00  0.00    -0.247 OA
HETATM    5  H   UNL     1      44.210 -18.615   1.769  1.00  0.00     0.171 HD
HETATM    6  H   UNL     1      43.741 -16.407   2.162  1.00  0.00     0.171 HD
ENDROOT
BRANCH   3   7
HETATM    7  C   UNL     1      41.772 -15.834   2.369  1.00  0.00     0.070 A 
HETATM    8  C   UNL     1      42.024 -14.521   2.799  1.00  0.00     0.097 A 
HETATM    9  C   UNL     1      41.047 -13.529   2.696  1.00  0.00     0.063 A 
HETATM   10  C   UNL     1      39.793 -13.862   2.188  1.00  0.00     0.036 A 
HETATM   11 CL   UNL     1      38.577 -12.652   2.059  1.00  0.00    -0.084 Cl
HETATM   12  C   UNL     1      39.517 -15.167   1.782  1.00  0.00     0.026 A 
HETATM   13  C   UNL     1      40.508 -16.151   1.868  1.00  0.00     0.034 A 
BRANCH   8  14
HETATM   14  O   UNL     1      43.267 -14.229   3.307  1.00  0.00    -0.340 OA
BRANCH  14  15
HETATM   15  C   UNL     1      43.161 -13.553   4.577  1.00  0.00     0.293 C 
BRANCH  15  16
HETATM   16  C   UNL     1      43.173 -14.564   5.711  1.00  0.00     0.408 C 
HETATM   17  F   UNL     1      43.799 -15.706   5.344  1.00  0.00    -0.169 F 
HETATM   18  F   UNL     1      43.801 -14.080   6.804  1.00  0.00    -0.169 F 
HETATM   19  F   UNL     1      41.911 -14.888   6.076  1.00  0.00    -0.169 F 
ENDBRANCH  15  16
ENDBRANCH  14  15
ENDBRANCH   8  14
ENDBRANCH   3   7
BRANCH   1  20
HETATM   20  C   UNL     1      44.327 -19.895   3.357  1.00  0.00     0.086 A 
HETATM   21  C   UNL     1      44.776 -19.924   4.662  1.00  0.00     0.052 A 
HETATM   22  C   UNL     1      44.992 -18.865   5.674  1.00  0.00     0.072 C 
HETATM   23  N   UNL     1      45.080 -21.233   4.918  1.00  0.00    -0.280 N 
HETATM   24  H   UNL     1      45.459 -21.634   5.769  1.00  0.00     0.189 HD
HETATM   25  N   UNL     1      44.823 -22.059   3.898  1.00  0.00    -0.177 NA
HETATM   26  C   UNL     1      44.357 -21.254   2.931  1.00  0.00     0.079 A 
HETATM   27  C   UNL     1      43.901 -21.861   1.656  1.00  0.00     0.075 C 
ENDBRANCH   1  20
TORSDOF 5
ENDMDL
MODEL 9
REMARK VINA RESULT:      -6.9      3.547      6.519
REMARK  5 active torsions:
REMARK  status: ('A' for Active; 'I' for Inactive)
REMARK    1  A    between atoms: C_8  and  N_9 
REMARK       I    between atoms: N_9  and  C_10 
REMARK       I    between atoms: C_10  and  N_11 
REMARK    2  A    between atoms: N_11  and  C_12 
REMARK    3  A    between atoms: C_13  and  O_14 
REMARK    4  A    between atoms: O_14  and  C_15 
REMARK    5  A    between atoms: C_15  and  C_16 
ROOT
HETATM    1  N   UNL     1      42.550 -18.009   2.943  1.00  0.00    -0.305 N 
HETATM    2  C   UNL     1      42.700 -17.288   1.773  1.00  0.00     0.325 C 
HETATM    3  N   UNL     1      41.491 -16.729   1.400  1.00  0.00    -0.306 N 
HETATM    4  O   UNL     1      43.749 -17.146   1.158  1.00  0.00    -0.247 OA
HETATM    5  H   UNL     1      41.860 -17.651   3.586  1.00  0.00     0.171 HD
HETATM    6  H   UNL     1      40.663 -17.244   1.675  1.00  0.00     0.171 HD
ENDROOT
BRANCH   3   7
HETATM    7  C   UNL     1      41.293 -15.741   0.413  1.00  0.00     0.070 A 
HETATM    8  C   UNL     1      41.225 -14.401   0.827  1.00  0.00     0.097 A 
HETATM    9  C   UNL     1      41.109 -13.365  -0.102  1.00  0.00     0.063 A 
HETATM   10  C   UNL     1      41.026 -13.675  -1.458  1.00  0.00     0.036 A 
HETATM   11 CL   UNL     1      40.878 -12.410  -2.614  1.00  0.00    -0.084 Cl
HETATM   12  C   UNL     1      41.065 -15.001  -1.884  1.00  0.00     0.026 A 
HETATM   13  C   UNL     1      41.202 -16.034  -0.949  1.00  0.00     0.034 A 
BRANCH   8  14
HETATM   14  O   UNL     1      41.297 -14.130   2.172  1.00  0.00    -0.340 OA
BRANCH  14  15
HETATM   15  C   UNL     1      42.406 -13.256   2.466  1.00  0.00     0.293 C 
BRANCH  15  16
HETATM   16  C   UNL     1      43.114 -13.715   3.729  1.00  0.00     0.408 C 
HETATM   17  F   UNL     1      44.450 -13.813   3.535  1.00  0.00    -0.169 F 
HETATM   18  F   UNL     1      42.907 -12.861   4.755  1.00  0.00    -0.169 F 
HETATM   19  F   UNL     1      42.666 -14.932   4.114  1.00  0.00    -0.169 F 
ENDBRANCH  15  16
ENDBRANCH  14  15
ENDBRANCH   8  14
ENDBRANCH   3   7
BRANCH   1  20
HETATM   20  C   UNL     1      43.508 -18.854   3.478  1.00  0.00     0.086 A 
HETATM   21  C   UNL     1      44.123 -18.621   4.691  1.00  0.00     0.052 A 
HETATM   22  C   UNL     1      44.024 -17.515   5.671  1.00  0.00     0.072 C 
HETATM   23  N   UNL     1      44.990 -19.663   4.872  1.00  0.00    -0.280 N 
HETATM   24  H   UNL     1      45.630 -19.820   5.642  1.00  0.00     0.189 HD
HETATM   25  N   UNL     1      44.953 -20.575   3.894  1.00  0.00    -0.177 NA
HETATM   26  C   UNL     1      44.045 -20.095   3.030  1.00  0.00     0.079 A 
HETATM   27  C   UNL     1      43.698 -20.906   1.836  1.00  0.00     0.075 C 
ENDBRANCH   1  20
TORSDOF 5
ENDMDL
MODEL 10
REMARK VINA RESULT:      -6.9      3.230      6.567
REMARK  5 active torsions:
REMARK  status: ('A' for Active; 'I' for Inactive)
REMARK    1  A    between atoms: C_8  and  N_9 
REMARK       I    between atoms: N_9  and  C_10 
REMARK       I    between atoms: C_10  and  N_11 
REMARK    2  A    between atoms: N_11  and  C_12 
REMARK    3  A    between atoms: C_13  and  O_14 
REMARK    4  A    between atoms: O_14  and  C_15 
REMARK    5  A    between atoms: C_15  and  C_16 
ROOT
HETATM    1  N   UNL     1      42.445 -18.486   3.072  1.00  0.00    -0.305 N 
HETATM    2  C   UNL     1      42.538 -17.438   2.175  1.00  0.00     0.325 C 
HETATM    3  N   UNL     1      41.300 -17.179   1.614  1.00  0.00    -0.306 N 
HETATM    4  O   UNL     1      43.560 -16.813   1.920  1.00  0.00    -0.247 OA
HETATM    5  H   UNL     1      41.566 -18.559   3.561  1.00  0.00     0.171 HD
HETATM    6  H   UNL     1      40.679 -17.975   1.530  1.00  0.00     0.171 HD
ENDROOT
BRANCH   3   7
HETATM    7  C   UNL     1      40.946 -16.048   0.850  1.00  0.00     0.070 A 
HETATM    8  C   UNL     1      40.124 -15.080   1.451  1.00  0.00     0.097 A 
HETATM    9  C   UNL     1      39.798 -13.898   0.783  1.00  0.00     0.063 A 
HETATM   10  C   UNL     1      40.270 -13.697  -0.512  1.00  0.00     0.036 A 
HETATM   11 CL   UNL     1      39.871 -12.249  -1.349  1.00  0.00    -0.084 Cl
HETATM   12  C   UNL     1      41.063 -14.660  -1.133  1.00  0.00     0.026 A 
HETATM   13  C   UNL     1      41.405 -15.833  -0.451  1.00  0.00     0.034 A 
BRANCH   8  14
HETATM   14  O   UNL     1      39.666 -15.314   2.725  1.00  0.00    -0.340 OA
BRANCH  14  15
HETATM   15  C   UNL     1      40.197 -14.346   3.652  1.00  0.00     0.293 C 
BRANCH  15  16
HETATM   16  C   UNL     1      41.108 -15.029   4.658  1.00  0.00     0.408 C 
HETATM   17  F   UNL     1      42.403 -14.960   4.272  1.00  0.00    -0.169 F 
HETATM   18  F   UNL     1      41.011 -14.467   5.882  1.00  0.00    -0.169 F 
HETATM   19  F   UNL     1      40.787 -16.337   4.783  1.00  0.00    -0.169 F 
ENDBRANCH  15  16
ENDBRANCH  14  15
ENDBRANCH   8  14
ENDBRANCH   3   7
BRANCH   1  20
HETATM   20  C   UNL     1      43.526 -19.128   3.652  1.00  0.00     0.086 A 
HETATM   21  C   UNL     1      44.130 -20.236   3.095  1.00  0.00     0.052 A 
HETATM   22  C   UNL     1      43.837 -21.037   1.885  1.00  0.00     0.072 C 
HETATM   23  N   UNL     1      45.145 -20.571   3.949  1.00  0.00    -0.280 N 
HETATM   24  H   UNL     1      45.794 -21.348   3.877  1.00  0.00     0.189 HD
HETATM   25  N   UNL     1      45.273 -19.743   4.991  1.00  0.00    -0.177 NA
HETATM   26  C   UNL     1      44.288 -18.848   4.823  1.00  0.00     0.079 A 
HETATM   27  C   UNL     1      44.178 -17.721   5.783  1.00  0.00     0.075 C 
ENDBRANCH   1  20
TORSDOF 5
ENDMDL
