MODEL 1
REMARK VINA RESULT:      -7.6      0.000      0.000
REMARK  10 active torsions:
REMARK  status: ('A' for Active; 'I' for Inactive)
REMARK    1  A    between atoms: C_2  and  O_3 
REMARK    2  A    between atoms: O_3  and  C_4 
REMARK    3  A    between atoms: C_7  and  C_8 
REMARK    4  A    between atoms: C_8  and  C_9 
REMARK    5  A    between atoms: C_10  and  C_11 
REMARK    6  A    between atoms: C_13  and  N_14 
REMARK    7  A    between atoms: N_20  and  C_21 
REMARK    8  A    between atoms: C_21  and  C_22 
REMARK    9  A    between atoms: C_22  and  N_23 
REMARK   10  A    between atoms: C_34  and  O_35 
ROOT
HETATM    1  C   UNL     1      40.457 -14.449   1.695  1.00  0.00     0.059 C 
HETATM    2  C   UNL     1      41.229 -13.473   2.515  1.00  0.00     0.161 C 
HETATM    3  N   UNL     1      40.161 -12.618   3.007  1.00  0.00    -0.332 N 
HETATM    4  C   UNL     1      38.978 -12.867   2.327  1.00  0.00     0.278 C 
HETATM    5  O   UNL     1      38.062 -12.064   2.238  1.00  0.00    -0.265 OA
HETATM    6  C   UNL     1      39.154 -14.149   1.606  1.00  0.00     0.146 C 
ENDROOT
BRANCH   1   7
HETATM    7  C   UNL     1      41.046 -15.507   0.854  1.00  0.00     0.193 C 
HETATM    8  O   UNL     1      41.014 -15.442  -0.366  1.00  0.00    -0.287 OA
BRANCH   7   9
HETATM    9  C   UNL     1      41.860 -16.506   1.567  1.00  0.00     0.015 A 
HETATM   10  C   UNL     1      41.299 -17.339   2.534  1.00  0.00     0.018 A 
HETATM   11  C   UNL     1      42.138 -18.116   3.341  1.00  0.00     0.038 A 
HETATM   12  C   UNL     1      43.523 -18.060   3.169  1.00  0.00     0.069 A 
HETATM   13  C   UNL     1      44.064 -17.287   2.136  1.00  0.00     0.038 A 
HETATM   14  C   UNL     1      43.238 -16.499   1.338  1.00  0.00     0.018 A 
BRANCH  12  15
HETATM   15  O   UNL     1      44.441 -18.749   3.906  1.00  0.00    -0.347 OA
BRANCH  15  16
HETATM   16  C   UNL     1      44.165 -18.967   5.296  1.00  0.00     0.120 C 
HETATM   17  C   UNL     1      45.205 -18.248   6.154  1.00  0.00     0.040 C 
HETATM   18  C   UNL     1      44.250 -20.473   5.527  1.00  0.00     0.040 C 
ENDBRANCH  15  16
ENDBRANCH  12  15
ENDBRANCH   7   9
ENDBRANCH   1   7
BRANCH   2  19
HETATM   19  C   UNL     1      42.086 -14.003   3.640  1.00  0.00    -0.028 A 
HETATM   20  C   UNL     1      41.493 -14.856   4.589  1.00  0.00     0.045 A 
HETATM   21  C   UNL     1      42.260 -15.423   5.617  1.00  0.00     0.103 A 
HETATM   22  C   UNL     1      43.618 -15.131   5.736  1.00  0.00     0.036 A 
HETATM   23  C   UNL     1      44.211 -14.279   4.801  1.00  0.00     0.003 A 
HETATM   24  C   UNL     1      43.456 -13.729   3.755  1.00  0.00     0.010 A 
BRANCH  21  25
HETATM   25  N   UNL     1      41.617 -16.362   6.543  1.00  0.00    -0.116 N 
HETATM   26  O   UNL     1      40.405 -16.574   6.369  1.00  0.00    -0.532 OA
HETATM   27  O   UNL     1      42.316 -16.888   7.413  1.00  0.00    -0.532 OA
ENDBRANCH  21  25
ENDBRANCH   2  19
BRANCH   6  28
HETATM   28  O   UNL     1      38.190 -14.749   0.853  1.00  0.00    -0.355 OA
HETATM   29  H   UNL     1      38.529 -14.829  -0.070  1.00  0.00     0.218 HD
ENDBRANCH   6  28
BRANCH   3  30
HETATM   30  C   UNL     1      40.383 -11.353   3.682  1.00  0.00     0.155 C 
BRANCH  30  31
HETATM   31  C   UNL     1      39.657 -11.292   5.038  1.00  0.00     0.254 C 
BRANCH  31  32
HETATM   32  N   UNL     1      40.275 -12.221   6.081  1.00  0.00    -0.066 N 
HETATM   33  H   UNL     1      40.383 -13.135   5.609  1.00  0.00     0.280 HD
HETATM   34  C   UNL     1      39.377 -12.482   7.307  1.00  0.00     0.262 C 
HETATM   35  C   UNL     1      39.350 -11.277   8.280  1.00  0.00     0.260 C 
HETATM   36  N   UNL     1      40.757 -10.842   8.641  1.00  0.00    -0.072 N 
HETATM   37  H   UNL     1      41.189 -11.526   9.285  1.00  0.00     0.277 HD
HETATM   38  H   UNL     1      40.692  -9.979   9.211  1.00  0.00     0.277 HD
HETATM   39  C   UNL     1      41.656 -10.579   7.460  1.00  0.00     0.260 C 
HETATM   40  C   UNL     1      41.684 -11.792   6.496  1.00  0.00     0.262 C 
ENDBRANCH  31  32
ENDBRANCH  30  31
ENDBRANCH   3  30
TORSDOF 10
ENDMDL
MODEL 2
REMARK VINA RESULT:      -7.5      1.822      2.780
REMARK  10 active torsions:
REMARK  status: ('A' for Active; 'I' for Inactive)
REMARK    1  A    between atoms: C_2  and  O_3 
REMARK    2  A    between atoms: O_3  and  C_4 
REMARK    3  A    between atoms: C_7  and  C_8 
REMARK    4  A    between atoms: C_8  and  C_9 
REMARK    5  A    between atoms: C_10  and  C_11 
REMARK    6  A    between atoms: C_13  and  N_14 
REMARK    7  A    between atoms: N_20  and  C_21 
REMARK    8  A    between atoms: C_21  and  C_22 
REMARK    9  A    between atoms: C_22  and  N_23 
REMARK   10  A    between atoms: C_34  and  O_35 
ROOT
HETATM    1  C   UNL     1      40.662 -13.038   3.264  1.00  0.00     0.059 C 
HETATM    2  C   UNL     1      40.967 -13.060   4.722  1.00  0.00     0.161 C 
HETATM    3  N   UNL     1      39.754 -12.476   5.269  1.00  0.00    -0.332 N 
HETATM    4  C   UNL     1      38.983 -11.910   4.263  1.00  0.00     0.278 C 
HETATM    5  O   UNL     1      38.154 -11.033   4.452  1.00  0.00    -0.265 OA
HETATM    6  C   UNL     1      39.507 -12.423   2.975  1.00  0.00     0.146 C 
ENDROOT
BRANCH   1   7
HETATM    7  C   UNL     1      41.600 -13.419   2.192  1.00  0.00     0.193 C 
HETATM    8  O   UNL     1      42.268 -12.582   1.603  1.00  0.00    -0.287 OA
BRANCH   7   9
HETATM    9  C   UNL     1      41.842 -14.864   2.044  1.00  0.00     0.015 A 
HETATM   10  C   UNL     1      40.788 -15.761   1.879  1.00  0.00     0.018 A 
HETATM   11  C   UNL     1      41.036 -17.136   1.963  1.00  0.00     0.038 A 
HETATM   12  C   UNL     1      42.332 -17.599   2.202  1.00  0.00     0.069 A 
HETATM   13  C   UNL     1      43.392 -16.691   2.277  1.00  0.00     0.038 A 
HETATM   14  C   UNL     1      43.152 -15.320   2.210  1.00  0.00     0.018 A 
BRANCH  12  15
HETATM   15  O   UNL     1      42.694 -18.909   2.327  1.00  0.00    -0.347 OA
BRANCH  15  16
HETATM   16  C   UNL     1      43.941 -19.206   2.970  1.00  0.00     0.120 C 
HETATM   17  C   UNL     1      44.449 -20.574   2.516  1.00  0.00     0.040 C 
HETATM   18  C   UNL     1      43.666 -19.224   4.471  1.00  0.00     0.040 C 
ENDBRANCH  15  16
ENDBRANCH  12  15
ENDBRANCH   7   9
ENDBRANCH   1   7
BRANCH   2  19
HETATM   19  C   UNL     1      41.291 -14.386   5.366  1.00  0.00    -0.028 A 
HETATM   20  C   UNL     1      42.602 -14.605   5.827  1.00  0.00     0.045 A 
HETATM   21  C   UNL     1      42.938 -15.796   6.487  1.00  0.00     0.103 A 
HETATM   22  C   UNL     1      41.986 -16.798   6.674  1.00  0.00     0.036 A 
HETATM   23  C   UNL     1      40.685 -16.590   6.212  1.00  0.00     0.003 A 
HETATM   24  C   UNL     1      40.335 -15.391   5.575  1.00  0.00     0.010 A 
BRANCH  21  25
HETATM   25  N   UNL     1      44.298 -15.953   7.014  1.00  0.00    -0.116 N 
HETATM   26  O   UNL     1      44.802 -17.086   6.927  1.00  0.00    -0.532 OA
HETATM   27  O   UNL     1      44.854 -14.960   7.489  1.00  0.00    -0.532 OA
ENDBRANCH  21  25
ENDBRANCH   2  19
BRANCH   6  28
HETATM   28  O   UNL     1      38.982 -12.122   1.755  1.00  0.00    -0.355 OA
HETATM   29  H   UNL     1      39.724 -12.071   1.107  1.00  0.00     0.218 HD
ENDBRANCH   6  28
BRANCH   3  30
HETATM   30  C   UNL     1      39.609 -12.052   6.648  1.00  0.00     0.155 C 
BRANCH  30  31
HETATM   31  C   UNL     1      40.739 -11.099   7.078  1.00  0.00     0.254 C 
BRANCH  31  32
HETATM   32  N   UNL     1      40.245  -9.957   7.964  1.00  0.00    -0.066 N 
HETATM   33  H   UNL     1      39.702  -9.337   7.339  1.00  0.00     0.280 HD
HETATM   34  C   UNL     1      41.368  -9.084   8.557  1.00  0.00     0.262 C 
HETATM   35  C   UNL     1      42.097  -9.785   9.730  1.00  0.00     0.260 C 
HETATM   36  N   UNL     1      41.105 -10.281  10.764  1.00  0.00    -0.072 N 
HETATM   37  H   UNL     1      40.719  -9.485  11.301  1.00  0.00     0.277 HD
HETATM   38  H   UNL     1      41.625 -10.825  11.476  1.00  0.00     0.277 HD
HETATM   39  C   UNL     1      39.995 -11.138  10.210  1.00  0.00     0.260 C 
HETATM   40  C   UNL     1      39.266 -10.426   9.044  1.00  0.00     0.262 C 
ENDBRANCH  31  32
ENDBRANCH  30  31
ENDBRANCH   3  30
TORSDOF 10
ENDMDL
MODEL 3
REMARK VINA RESULT:      -7.3      3.163      5.956
REMARK  10 active torsions:
REMARK  status: ('A' for Active; 'I' for Inactive)
REMARK    1  A    between atoms: C_2  and  O_3 
REMARK    2  A    between atoms: O_3  and  C_4 
REMARK    3  A    between atoms: C_7  and  C_8 
REMARK    4  A    between atoms: C_8  and  C_9 
REMARK    5  A    between atoms: C_10  and  C_11 
REMARK    6  A    between atoms: C_13  and  N_14 
REMARK    7  A    between atoms: N_20  and  C_21 
REMARK    8  A    between atoms: C_21  and  C_22 
REMARK    9  A    between atoms: C_22  and  N_23 
REMARK   10  A    between atoms: C_34  and  O_35 
ROOT
HETATM    1  C   UNL     1      42.080 -13.774   3.078  1.00  0.00     0.059 C 
HETATM    2  C   UNL     1      41.066 -14.169   2.060  1.00  0.00     0.161 C 
HETATM    3  N   UNL     1      39.906 -13.423   2.520  1.00  0.00    -0.332 N 
HETATM    4  C   UNL     1      40.121 -12.912   3.792  1.00  0.00     0.278 C 
HETATM    5  O   UNL     1      39.225 -12.607   4.563  1.00  0.00    -0.265 OA
HETATM    6  C   UNL     1      41.575 -13.016   4.060  1.00  0.00     0.146 C 
ENDROOT
BRANCH   1   7
HETATM    7  C   UNL     1      43.445 -14.324   3.177  1.00  0.00     0.193 C 
HETATM    8  O   UNL     1      44.382 -13.635   3.555  1.00  0.00    -0.287 OA
BRANCH   7   9
HETATM    9  C   UNL     1      43.555 -15.784   3.018  1.00  0.00     0.015 A 
HETATM   10  C   UNL     1      43.960 -16.351   1.810  1.00  0.00     0.018 A 
HETATM   11  C   UNL     1      43.842 -17.733   1.627  1.00  0.00     0.038 A 
HETATM   12  C   UNL     1      43.330 -18.533   2.652  1.00  0.00     0.069 A 
HETATM   13  C   UNL     1      43.011 -17.961   3.887  1.00  0.00     0.038 A 
HETATM   14  C   UNL     1      43.111 -16.584   4.073  1.00  0.00     0.018 A 
BRANCH  12  15
HETATM   15  O   UNL     1      43.145 -19.883   2.584  1.00  0.00    -0.347 OA
BRANCH  15  16
HETATM   16  C   UNL     1      44.303 -20.717   2.441  1.00  0.00     0.120 C 
HETATM   17  C   UNL     1      43.970 -21.925   1.566  1.00  0.00     0.040 C 
HETATM   18  C   UNL     1      44.686 -21.178   3.844  1.00  0.00     0.040 C 
ENDBRANCH  15  16
ENDBRANCH  12  15
ENDBRANCH   7   9
ENDBRANCH   1   7
BRANCH   2  19
HETATM   19  C   UNL     1      41.368 -13.898   0.606  1.00  0.00    -0.028 A 
HETATM   20  C   UNL     1      41.926 -12.655   0.259  1.00  0.00     0.045 A 
HETATM   21  C   UNL     1      42.281 -12.378  -1.070  1.00  0.00     0.103 A 
HETATM   22  C   UNL     1      42.062 -13.318  -2.076  1.00  0.00     0.036 A 
HETATM   23  C   UNL     1      41.501 -14.552  -1.738  1.00  0.00     0.003 A 
HETATM   24  C   UNL     1      41.167 -14.846  -0.409  1.00  0.00     0.010 A 
BRANCH  21  25
HETATM   25  N   UNL     1      42.926 -11.096  -1.376  1.00  0.00    -0.116 N 
HETATM   26  O   UNL     1      42.583 -10.539  -2.433  1.00  0.00    -0.532 OA
HETATM   27  O   UNL     1      43.745 -10.652  -0.568  1.00  0.00    -0.532 OA
ENDBRANCH  21  25
ENDBRANCH   2  19
BRANCH   6  28
HETATM   28  O   UNL     1      42.181 -12.579   5.199  1.00  0.00    -0.355 OA
HETATM   29  H   UNL     1      42.312 -11.605   5.121  1.00  0.00     0.218 HD
ENDBRANCH   6  28
BRANCH   3  30
HETATM   30  C   UNL     1      38.562 -13.621   2.012  1.00  0.00     0.155 C 
BRANCH  30  31
HETATM   31  C   UNL     1      37.974 -12.326   1.423  1.00  0.00     0.254 C 
BRANCH  31  32
HETATM   32  N   UNL     1      37.122 -12.575   0.181  1.00  0.00    -0.066 N 
HETATM   33  H   UNL     1      36.520 -13.384   0.415  1.00  0.00     0.280 HD
HETATM   34  C   UNL     1      37.927 -12.994  -1.066  1.00  0.00     0.262 C 
HETATM   35  C   UNL     1      38.664 -11.796  -1.715  1.00  0.00     0.260 C 
HETATM   36  N   UNL     1      37.709 -10.646  -1.968  1.00  0.00    -0.072 N 
HETATM   37  H   UNL     1      37.085 -10.866  -2.763  1.00  0.00     0.277 HD
HETATM   38  H   UNL     1      38.260  -9.838  -2.310  1.00  0.00     0.277 HD
HETATM   39  C   UNL     1      36.909 -10.216  -0.764  1.00  0.00     0.260 C 
HETATM   40  C   UNL     1      36.168 -11.418  -0.127  1.00  0.00     0.262 C 
ENDBRANCH  31  32
ENDBRANCH  30  31
ENDBRANCH   3  30
TORSDOF 10
ENDMDL
MODEL 4
REMARK VINA RESULT:      -7.3      1.654      2.407
REMARK  10 active torsions:
REMARK  status: ('A' for Active; 'I' for Inactive)
REMARK    1  A    between atoms: C_2  and  O_3 
REMARK    2  A    between atoms: O_3  and  C_4 
REMARK    3  A    between atoms: C_7  and  C_8 
REMARK    4  A    between atoms: C_8  and  C_9 
REMARK    5  A    between atoms: C_10  and  C_11 
REMARK    6  A    between atoms: C_13  and  N_14 
REMARK    7  A    between atoms: N_20  and  C_21 
REMARK    8  A    between atoms: C_21  and  C_22 
REMARK    9  A    between atoms: C_22  and  N_23 
REMARK   10  A    between atoms: C_34  and  O_35 
ROOT
HETATM    1  C   UNL     1      41.439 -13.007   3.427  1.00  0.00     0.059 C 
HETATM    2  C   UNL     1      42.185 -12.575   4.643  1.00  0.00     0.161 C 
HETATM    3  N   UNL     1      41.155 -11.834   5.352  1.00  0.00    -0.332 N 
HETATM    4  C   UNL     1      40.061 -11.602   4.530  1.00  0.00     0.278 C 
HETATM    5  O   UNL     1      39.257 -10.699   4.705  1.00  0.00    -0.265 OA
HETATM    6  C   UNL     1      40.202 -12.498   3.359  1.00  0.00     0.146 C 
ENDROOT
BRANCH   1   7
HETATM    7  C   UNL     1      42.027 -13.716   2.275  1.00  0.00     0.193 C 
HETATM    8  O   UNL     1      42.520 -13.107   1.338  1.00  0.00    -0.287 OA
BRANCH   7   9
HETATM    9  C   UNL     1      42.183 -15.171   2.438  1.00  0.00     0.015 A 
HETATM   10  C   UNL     1      41.076 -16.005   2.596  1.00  0.00     0.018 A 
HETATM   11  C   UNL     1      41.270 -17.340   2.966  1.00  0.00     0.038 A 
HETATM   12  C   UNL     1      42.563 -17.830   3.167  1.00  0.00     0.069 A 
HETATM   13  C   UNL     1      43.665 -17.006   2.919  1.00  0.00     0.038 A 
HETATM   14  C   UNL     1      43.482 -15.671   2.565  1.00  0.00     0.018 A 
BRANCH  12  15
HETATM   15  O   UNL     1      42.877 -19.101   3.551  1.00  0.00    -0.347 OA
BRANCH  15  16
HETATM   16  C   UNL     1      44.229 -19.544   3.375  1.00  0.00     0.120 C 
HETATM   17  C   UNL     1      44.266 -20.744   2.429  1.00  0.00     0.040 C 
HETATM   18  C   UNL     1      44.737 -19.954   4.755  1.00  0.00     0.040 C 
ENDBRANCH  15  16
ENDBRANCH  12  15
ENDBRANCH   7   9
ENDBRANCH   1   7
BRANCH   2  19
HETATM   19  C   UNL     1      42.811 -13.637   5.514  1.00  0.00    -0.028 A 
HETATM   20  C   UNL     1      42.058 -14.787   5.813  1.00  0.00     0.045 A 
HETATM   21  C   UNL     1      42.616 -15.831   6.567  1.00  0.00     0.103 A 
HETATM   22  C   UNL     1      43.918 -15.736   7.057  1.00  0.00     0.036 A 
HETATM   23  C   UNL     1      44.668 -14.594   6.769  1.00  0.00     0.003 A 
HETATM   24  C   UNL     1      44.126 -13.559   5.995  1.00  0.00     0.010 A 
BRANCH  21  25
HETATM   25  N   UNL     1      41.820 -17.041   6.796  1.00  0.00    -0.116 N 
HETATM   26  O   UNL     1      42.413 -18.010   7.301  1.00  0.00    -0.532 OA
HETATM   27  O   UNL     1      40.625 -17.015   6.491  1.00  0.00    -0.532 OA
ENDBRANCH  21  25
ENDBRANCH   2  19
BRANCH   6  28
HETATM   28  O   UNL     1      39.297 -12.587   2.344  1.00  0.00    -0.355 OA
HETATM   29  H   UNL     1      38.393 -12.547   2.736  1.00  0.00     0.218 HD
ENDBRANCH   6  28
BRANCH   3  30
HETATM   30  C   UNL     1      41.410 -10.998   6.510  1.00  0.00     0.155 C 
BRANCH  30  31
HETATM   31  C   UNL     1      40.450 -11.315   7.670  1.00  0.00     0.254 C 
BRANCH  31  32
HETATM   32  N   UNL     1      41.068 -11.043   9.040  1.00  0.00    -0.066 N 
HETATM   33  H   UNL     1      41.743 -11.812   9.197  1.00  0.00     0.280 HD
HETATM   34  C   UNL     1      40.067 -11.111  10.211  1.00  0.00     0.262 C 
HETATM   35  C   UNL     1      39.163  -9.855  10.281  1.00  0.00     0.260 C 
HETATM   36  N   UNL     1      39.995  -8.588  10.268  1.00  0.00    -0.072 N 
HETATM   37  H   UNL     1      40.471  -8.462  11.177  1.00  0.00     0.277 HD
HETATM   38  H   UNL     1      39.350  -7.779  10.217  1.00  0.00     0.277 HD
HETATM   39  C   UNL     1      40.982  -8.496   9.131  1.00  0.00     0.260 C 
HETATM   40  C   UNL     1      41.888  -9.751   9.074  1.00  0.00     0.262 C 
ENDBRANCH  31  32
ENDBRANCH  30  31
ENDBRANCH   3  30
TORSDOF 10
ENDMDL
MODEL 5
REMARK VINA RESULT:      -7.3      3.029      5.872
REMARK  10 active torsions:
REMARK  status: ('A' for Active; 'I' for Inactive)
REMARK    1  A    between atoms: C_2  and  O_3 
REMARK    2  A    between atoms: O_3  and  C_4 
REMARK    3  A    between atoms: C_7  and  C_8 
REMARK    4  A    between atoms: C_8  and  C_9 
REMARK    5  A    between atoms: C_10  and  C_11 
REMARK    6  A    between atoms: C_13  and  N_14 
REMARK    7  A    between atoms: N_20  and  C_21 
REMARK    8  A    between atoms: C_21  and  C_22 
REMARK    9  A    between atoms: C_22  and  N_23 
REMARK   10  A    between atoms: C_34  and  O_35 
ROOT
HETATM    1  C   UNL     1      42.119 -13.793   3.154  1.00  0.00     0.059 C 
HETATM    2  C   UNL     1      41.143 -14.090   2.069  1.00  0.00     0.161 C 
HETATM    3  N   UNL     1      39.961 -13.402   2.561  1.00  0.00    -0.332 N 
HETATM    4  C   UNL     1      40.129 -13.021   3.885  1.00  0.00     0.278 C 
HETATM    5  O   UNL     1      39.205 -12.802   4.652  1.00  0.00    -0.265 OA
HETATM    6  C   UNL     1      41.573 -13.142   4.191  1.00  0.00     0.146 C 
ENDROOT
BRANCH   1   7
HETATM    7  C   UNL     1      43.485 -14.340   3.244  1.00  0.00     0.193 C 
HETATM    8  O   UNL     1      44.423 -13.651   3.616  1.00  0.00    -0.287 OA
BRANCH   7   9
HETATM    9  C   UNL     1      43.597 -15.800   3.082  1.00  0.00     0.015 A 
HETATM   10  C   UNL     1      43.970 -16.366   1.863  1.00  0.00     0.018 A 
HETATM   11  C   UNL     1      43.853 -17.748   1.684  1.00  0.00     0.038 A 
HETATM   12  C   UNL     1      43.372 -18.550   2.722  1.00  0.00     0.069 A 
HETATM   13  C   UNL     1      43.086 -17.979   3.966  1.00  0.00     0.038 A 
HETATM   14  C   UNL     1      43.185 -16.602   4.149  1.00  0.00     0.018 A 
BRANCH  12  15
HETATM   15  O   UNL     1      43.191 -19.901   2.660  1.00  0.00    -0.347 OA
BRANCH  15  16
HETATM   16  C   UNL     1      44.349 -20.730   2.489  1.00  0.00     0.120 C 
HETATM   17  C   UNL     1      44.020 -21.901   1.563  1.00  0.00     0.040 C 
HETATM   18  C   UNL     1      44.721 -21.251   3.875  1.00  0.00     0.040 C 
ENDBRANCH  15  16
ENDBRANCH  12  15
ENDBRANCH   7   9
ENDBRANCH   1   7
BRANCH   2  19
HETATM   19  C   UNL     1      41.489 -13.672   0.660  1.00  0.00    -0.028 A 
HETATM   20  C   UNL     1      41.152 -14.535  -0.397  1.00  0.00     0.045 A 
HETATM   21  C   UNL     1      41.397 -14.165  -1.728  1.00  0.00     0.103 A 
HETATM   22  C   UNL     1      42.005 -12.947  -2.027  1.00  0.00     0.036 A 
HETATM   23  C   UNL     1      42.350 -12.088  -0.981  1.00  0.00     0.003 A 
HETATM   24  C   UNL     1      42.084 -12.440   0.350  1.00  0.00     0.010 A 
BRANCH  21  25
HETATM   25  N   UNL     1      40.965 -15.065  -2.803  1.00  0.00    -0.116 N 
HETATM   26  O   UNL     1      40.663 -14.535  -3.886  1.00  0.00    -0.532 OA
HETATM   27  O   UNL     1      40.944 -16.277  -2.572  1.00  0.00    -0.532 OA
ENDBRANCH  21  25
ENDBRANCH   2  19
BRANCH   6  28
HETATM   28  O   UNL     1      42.138 -12.818   5.388  1.00  0.00    -0.355 OA
HETATM   29  H   UNL     1      41.745 -11.965   5.689  1.00  0.00     0.218 HD
ENDBRANCH   6  28
BRANCH   3  30
HETATM   30  C   UNL     1      38.636 -13.557   1.991  1.00  0.00     0.155 C 
BRANCH  30  31
HETATM   31  C   UNL     1      38.081 -12.223   1.458  1.00  0.00     0.254 C 
BRANCH  31  32
HETATM   32  N   UNL     1      37.156 -12.406   0.257  1.00  0.00    -0.066 N 
HETATM   33  H   UNL     1      36.537 -13.199   0.502  1.00  0.00     0.280 HD
HETATM   34  C   UNL     1      37.878 -12.817  -1.041  1.00  0.00     0.262 C 
HETATM   35  C   UNL     1      38.624 -11.629  -1.696  1.00  0.00     0.260 C 
HETATM   36  N   UNL     1      37.701 -10.438  -1.868  1.00  0.00    -0.072 N 
HETATM   37  H   UNL     1      37.028 -10.613  -2.633  1.00  0.00     0.277 HD
HETATM   38  H   UNL     1      38.263  -9.641  -2.216  1.00  0.00     0.277 HD
HETATM   39  C   UNL     1      36.982 -10.015  -0.611  1.00  0.00     0.260 C 
HETATM   40  C   UNL     1      36.231 -11.207   0.033  1.00  0.00     0.262 C 
ENDBRANCH  31  32
ENDBRANCH  30  31
ENDBRANCH   3  30
TORSDOF 10
ENDMDL
MODEL 6
REMARK VINA RESULT:      -7.2      2.713      5.751
REMARK  10 active torsions:
REMARK  status: ('A' for Active; 'I' for Inactive)
REMARK    1  A    between atoms: C_2  and  O_3 
REMARK    2  A    between atoms: O_3  and  C_4 
REMARK    3  A    between atoms: C_7  and  C_8 
REMARK    4  A    between atoms: C_8  and  C_9 
REMARK    5  A    between atoms: C_10  and  C_11 
REMARK    6  A    between atoms: C_13  and  N_14 
REMARK    7  A    between atoms: N_20  and  C_21 
REMARK    8  A    between atoms: C_21  and  C_22 
REMARK    9  A    between atoms: C_22  and  N_23 
REMARK   10  A    between atoms: C_34  and  O_35 
ROOT
HETATM    1  C   UNL     1      39.882 -12.272   3.839  1.00  0.00     0.059 C 
HETATM    2  C   UNL     1      39.445 -13.066   2.656  1.00  0.00     0.161 C 
HETATM    3  N   UNL     1      39.732 -12.136   1.576  1.00  0.00    -0.332 N 
HETATM    4  C   UNL     1      40.006 -10.871   2.075  1.00  0.00     0.278 C 
HETATM    5  O   UNL     1      39.886  -9.843   1.427  1.00  0.00    -0.265 OA
HETATM    6  C   UNL     1      40.251 -11.022   3.529  1.00  0.00     0.146 C 
ENDROOT
BRANCH   1   7
HETATM    7  C   UNL     1      39.720 -12.682   5.246  1.00  0.00     0.193 C 
HETATM    8  O   UNL     1      38.819 -12.233   5.940  1.00  0.00    -0.287 OA
BRANCH   7   9
HETATM    9  C   UNL     1      40.555 -13.816   5.678  1.00  0.00     0.015 A 
HETATM   10  C   UNL     1      41.944 -13.706   5.747  1.00  0.00     0.018 A 
HETATM   11  C   UNL     1      42.714 -14.857   5.946  1.00  0.00     0.038 A 
HETATM   12  C   UNL     1      42.092 -16.101   6.081  1.00  0.00     0.069 A 
HETATM   13  C   UNL     1      40.696 -16.181   6.098  1.00  0.00     0.038 A 
HETATM   14  C   UNL     1      39.921 -15.043   5.885  1.00  0.00     0.018 A 
BRANCH  12  15
HETATM   15  O   UNL     1      42.733 -17.292   6.255  1.00  0.00    -0.347 OA
BRANCH  15  16
HETATM   16  C   UNL     1      43.930 -17.530   5.502  1.00  0.00     0.120 C 
HETATM   17  C   UNL     1      43.736 -18.733   4.579  1.00  0.00     0.040 C 
HETATM   18  C   UNL     1      45.032 -17.824   6.516  1.00  0.00     0.040 C 
ENDBRANCH  15  16
ENDBRANCH  12  15
ENDBRANCH   7   9
ENDBRANCH   1   7
BRANCH   2  19
HETATM   19  C   UNL     1      40.084 -14.413   2.422  1.00  0.00    -0.028 A 
HETATM   20  C   UNL     1      41.488 -14.499   2.437  1.00  0.00     0.045 A 
HETATM   21  C   UNL     1      42.130 -15.738   2.286  1.00  0.00     0.103 A 
HETATM   22  C   UNL     1      41.389 -16.903   2.090  1.00  0.00     0.036 A 
HETATM   23  C   UNL     1      39.995 -16.823   2.066  1.00  0.00     0.003 A 
HETATM   24  C   UNL     1      39.347 -15.592   2.243  1.00  0.00     0.010 A 
BRANCH  21  25
HETATM   25  N   UNL     1      43.593 -15.792   2.378  1.00  0.00    -0.116 N 
HETATM   26  O   UNL     1      44.148 -14.857   2.980  1.00  0.00    -0.532 OA
HETATM   27  O   UNL     1      44.170 -16.758   1.873  1.00  0.00    -0.532 OA
ENDBRANCH  21  25
ENDBRANCH   2  19
BRANCH   6  28
HETATM   28  O   UNL     1      40.591 -10.000   4.364  1.00  0.00    -0.355 OA
HETATM   29  H   UNL     1      40.010  -9.231   4.157  1.00  0.00     0.218 HD
ENDBRANCH   6  28
BRANCH   3  30
HETATM   30  C   UNL     1      39.283 -12.319   0.209  1.00  0.00     0.155 C 
BRANCH  30  31
HETATM   31  C   UNL     1      40.381 -11.959  -0.809  1.00  0.00     0.254 C 
BRANCH  31  32
HETATM   32  N   UNL     1      41.573 -12.911  -0.754  1.00  0.00    -0.066 N 
HETATM   33  H   UNL     1      41.859 -12.941   0.240  1.00  0.00     0.280 HD
HETATM   34  C   UNL     1      42.809 -12.424  -1.536  1.00  0.00     0.262 C 
HETATM   35  C   UNL     1      42.639 -12.598  -3.066  1.00  0.00     0.260 C 
HETATM   36  N   UNL     1      42.227 -14.017  -3.407  1.00  0.00    -0.072 N 
HETATM   37  H   UNL     1      43.026 -14.661  -3.286  1.00  0.00     0.277 HD
HETATM   38  H   UNL     1      42.031 -14.061  -4.423  1.00  0.00     0.277 HD
HETATM   39  C   UNL     1      41.019 -14.518  -2.656  1.00  0.00     0.260 C 
HETATM   40  C   UNL     1      41.201 -14.349  -1.126  1.00  0.00     0.262 C 
ENDBRANCH  31  32
ENDBRANCH  30  31
ENDBRANCH   3  30
TORSDOF 10
ENDMDL
MODEL 7
REMARK VINA RESULT:      -7.0      4.261      7.313
REMARK  10 active torsions:
REMARK  status: ('A' for Active; 'I' for Inactive)
REMARK    1  A    between atoms: C_2  and  O_3 
REMARK    2  A    between atoms: O_3  and  C_4 
REMARK    3  A    between atoms: C_7  and  C_8 
REMARK    4  A    between atoms: C_8  and  C_9 
REMARK    5  A    between atoms: C_10  and  C_11 
REMARK    6  A    between atoms: C_13  and  N_14 
REMARK    7  A    between atoms: N_20  and  C_21 
REMARK    8  A    between atoms: C_21  and  C_22 
REMARK    9  A    between atoms: C_22  and  N_23 
REMARK   10  A    between atoms: C_34  and  O_35 
ROOT
HETATM    1  C   UNL     1      40.881 -14.285   1.151  1.00  0.00     0.059 C 
HETATM    2  C   UNL     1      40.031 -13.625   0.120  1.00  0.00     0.161 C 
HETATM    3  N   UNL     1      40.688 -12.334   0.003  1.00  0.00    -0.332 N 
HETATM    4  C   UNL     1      41.597 -12.149   1.035  1.00  0.00     0.278 C 
HETATM    5  O   UNL     1      41.980 -11.054   1.416  1.00  0.00    -0.265 OA
HETATM    6  C   UNL     1      41.816 -13.473   1.662  1.00  0.00     0.146 C 
ENDROOT
BRANCH   1   7
HETATM    7  C   UNL     1      40.616 -15.603   1.757  1.00  0.00     0.193 C 
HETATM    8  O   UNL     1      39.475 -15.998   1.947  1.00  0.00    -0.287 OA
BRANCH   7   9
HETATM    9  C   UNL     1      41.788 -16.484   1.897  1.00  0.00     0.015 A 
HETATM   10  C   UNL     1      42.653 -16.713   0.828  1.00  0.00     0.018 A 
HETATM   11  C   UNL     1      43.620 -17.719   0.931  1.00  0.00     0.038 A 
HETATM   12  C   UNL     1      43.719 -18.478   2.100  1.00  0.00     0.069 A 
HETATM   13  C   UNL     1      42.903 -18.178   3.194  1.00  0.00     0.038 A 
HETATM   14  C   UNL     1      41.927 -17.188   3.096  1.00  0.00     0.018 A 
BRANCH  12  15
HETATM   15  O   UNL     1      44.601 -19.497   2.310  1.00  0.00    -0.347 OA
BRANCH  15  16
HETATM   16  C   UNL     1      44.140 -20.653   3.023  1.00  0.00     0.120 C 
HETATM   17  C   UNL     1      45.024 -20.897   4.246  1.00  0.00     0.040 C 
HETATM   18  C   UNL     1      44.246 -21.832   2.060  1.00  0.00     0.040 C 
ENDBRANCH  15  16
ENDBRANCH  12  15
ENDBRANCH   7   9
ENDBRANCH   1   7
BRANCH   2  19
HETATM   19  C   UNL     1      39.879 -14.301  -1.221  1.00  0.00    -0.028 A 
HETATM   20  C   UNL     1      38.696 -14.083  -1.951  1.00  0.00     0.045 A 
HETATM   21  C   UNL     1      38.532 -14.638  -3.229  1.00  0.00     0.103 A 
HETATM   22  C   UNL     1      39.526 -15.439  -3.789  1.00  0.00     0.036 A 
HETATM   23  C   UNL     1      40.700 -15.666  -3.066  1.00  0.00     0.003 A 
HETATM   24  C   UNL     1      40.881 -15.093  -1.800  1.00  0.00     0.010 A 
BRANCH  21  25
HETATM   25  N   UNL     1      37.313 -14.327  -3.983  1.00  0.00    -0.116 N 
HETATM   26  O   UNL     1      36.920 -15.190  -4.787  1.00  0.00    -0.532 OA
HETATM   27  O   UNL     1      36.755 -13.249  -3.764  1.00  0.00    -0.532 OA
ENDBRANCH  21  25
ENDBRANCH   2  19
BRANCH   6  28
HETATM   28  O   UNL     1      42.678 -13.705   2.691  1.00  0.00    -0.355 OA
HETATM   29  H   UNL     1      42.253 -13.389   3.523  1.00  0.00     0.218 HD
ENDBRANCH   6  28
BRANCH   3  30
HETATM   30  C   UNL     1      40.128 -11.202  -0.711  1.00  0.00     0.155 C 
BRANCH  30  31
HETATM   31  C   UNL     1      41.010 -10.781  -1.901  1.00  0.00     0.254 C 
BRANCH  31  32
HETATM   32  N   UNL     1      40.770 -11.634  -3.145  1.00  0.00    -0.066 N 
HETATM   33  H   UNL     1      40.462 -12.557  -2.793  1.00  0.00     0.280 HD
HETATM   34  C   UNL     1      42.036 -11.901  -3.984  1.00  0.00     0.262 C 
HETATM   35  C   UNL     1      42.457 -10.664  -4.815  1.00  0.00     0.260 C 
HETATM   36  N   UNL     1      41.292 -10.135  -5.629  1.00  0.00    -0.072 N 
HETATM   37  H   UNL     1      41.091 -10.769  -6.421  1.00  0.00     0.277 HD
HETATM   38  H   UNL     1      41.591  -9.257  -6.089  1.00  0.00     0.277 HD
HETATM   39  C   UNL     1      40.041  -9.866  -4.832  1.00  0.00     0.260 C 
HETATM   40  C   UNL     1      39.620 -11.110  -4.010  1.00  0.00     0.262 C 
ENDBRANCH  31  32
ENDBRANCH  30  31
ENDBRANCH   3  30
TORSDOF 10
ENDMDL
MODEL 8
REMARK VINA RESULT:      -7.0      1.703      2.347
REMARK  10 active torsions:
REMARK  status: ('A' for Active; 'I' for Inactive)
REMARK    1  A    between atoms: C_2  and  O_3 
REMARK    2  A    between atoms: O_3  and  C_4 
REMARK    3  A    between atoms: C_7  and  C_8 
REMARK    4  A    between atoms: C_8  and  C_9 
REMARK    5  A    between atoms: C_10  and  C_11 
REMARK    6  A    between atoms: C_13  and  N_14 
REMARK    7  A    between atoms: N_20  and  C_21 
REMARK    8  A    between atoms: C_21  and  C_22 
REMARK    9  A    between atoms: C_22  and  N_23 
REMARK   10  A    between atoms: C_34  and  O_35 
ROOT
HETATM    1  C   UNL     1      40.993 -14.731   0.864  1.00  0.00     0.059 C 
HETATM    2  C   UNL     1      41.623 -13.910   1.936  1.00  0.00     0.161 C 
HETATM    3  N   UNL     1      40.876 -12.670   1.812  1.00  0.00    -0.332 N 
HETATM    4  C   UNL     1      40.134 -12.657   0.639  1.00  0.00     0.278 C 
HETATM    5  O   UNL     1      39.750 -11.637   0.088  1.00  0.00    -0.265 OA
HETATM    6  C   UNL     1      40.102 -14.048   0.132  1.00  0.00     0.146 C 
ENDROOT
BRANCH   1   7
HETATM    7  C   UNL     1      41.433 -16.076   0.451  1.00  0.00     0.193 C 
HETATM    8  O   UNL     1      41.334 -16.450  -0.708  1.00  0.00    -0.287 OA
BRANCH   7   9
HETATM    9  C   UNL     1      42.197 -16.831   1.459  1.00  0.00     0.015 A 
HETATM   10  C   UNL     1      43.585 -16.945   1.379  1.00  0.00     0.018 A 
HETATM   11  C   UNL     1      44.249 -17.845   2.219  1.00  0.00     0.038 A 
HETATM   12  C   UNL     1      43.525 -18.614   3.134  1.00  0.00     0.069 A 
HETATM   13  C   UNL     1      42.145 -18.423   3.263  1.00  0.00     0.038 A 
HETATM   14  C   UNL     1      41.473 -17.541   2.420  1.00  0.00     0.018 A 
BRANCH  12  15
HETATM   15  O   UNL     1      44.054 -19.538   3.986  1.00  0.00    -0.347 OA
BRANCH  15  16
HETATM   16  C   UNL     1      44.790 -20.632   3.423  1.00  0.00     0.120 C 
HETATM   17  C   UNL     1      44.000 -21.252   2.270  1.00  0.00     0.040 C 
HETATM   18  C   UNL     1      44.972 -21.656   4.539  1.00  0.00     0.040 C 
ENDBRANCH  15  16
ENDBRANCH  12  15
ENDBRANCH   7   9
ENDBRANCH   1   7
BRANCH   2  19
HETATM   19  C   UNL     1      41.599 -14.440   3.350  1.00  0.00    -0.028 A 
HETATM   20  C   UNL     1      42.811 -14.506   4.060  1.00  0.00     0.045 A 
HETATM   21  C   UNL     1      42.834 -14.933   5.397  1.00  0.00     0.103 A 
HETATM   22  C   UNL     1      41.660 -15.326   6.038  1.00  0.00     0.036 A 
HETATM   23  C   UNL     1      40.454 -15.270   5.335  1.00  0.00     0.003 A 
HETATM   24  C   UNL     1      40.420 -14.820   4.008  1.00  0.00     0.010 A 
BRANCH  21  25
HETATM   25  N   UNL     1      44.109 -14.919   6.122  1.00  0.00    -0.116 N 
HETATM   26  O   UNL     1      44.459 -15.987   6.653  1.00  0.00    -0.532 OA
HETATM   27  O   UNL     1      44.752 -13.866   6.144  1.00  0.00    -0.532 OA
ENDBRANCH  21  25
ENDBRANCH   2  19
BRANCH   6  28
HETATM   28  O   UNL     1      39.433 -14.445  -0.987  1.00  0.00    -0.355 OA
HETATM   29  H   UNL     1      38.930 -15.264  -0.767  1.00  0.00     0.218 HD
ENDBRANCH   6  28
BRANCH   3  30
HETATM   30  C   UNL     1      41.241 -11.434   2.479  1.00  0.00     0.155 C 
BRANCH  30  31
HETATM   31  C   UNL     1      40.369 -11.172   3.720  1.00  0.00     0.254 C 
BRANCH  31  32
HETATM   32  N   UNL     1      41.181 -10.689   4.920  1.00  0.00    -0.066 N 
HETATM   33  H   UNL     1      42.158 -10.626   4.586  1.00  0.00     0.280 HD
HETATM   34  C   UNL     1      41.201 -11.673   6.107  1.00  0.00     0.262 C 
HETATM   35  C   UNL     1      39.871 -11.660   6.901  1.00  0.00     0.260 C 
HETATM   36  N   UNL     1      39.488 -10.246   7.292  1.00  0.00    -0.072 N 
HETATM   37  H   UNL     1      40.102  -9.906   8.052  1.00  0.00     0.277 HD
HETATM   38  H   UNL     1      38.551 -10.275   7.732  1.00  0.00     0.277 HD
HETATM   39  C   UNL     1      39.460  -9.263   6.149  1.00  0.00     0.260 C 
HETATM   40  C   UNL     1      40.797  -9.276   5.366  1.00  0.00     0.262 C 
ENDBRANCH  31  32
ENDBRANCH  30  31
ENDBRANCH   3  30
TORSDOF 10
ENDMDL
MODEL 9
REMARK VINA RESULT:      -7.0      1.741      1.996
REMARK  10 active torsions:
REMARK  status: ('A' for Active; 'I' for Inactive)
REMARK    1  A    between atoms: C_2  and  O_3 
REMARK    2  A    between atoms: O_3  and  C_4 
REMARK    3  A    between atoms: C_7  and  C_8 
REMARK    4  A    between atoms: C_8  and  C_9 
REMARK    5  A    between atoms: C_10  and  C_11 
REMARK    6  A    between atoms: C_13  and  N_14 
REMARK    7  A    between atoms: N_20  and  C_21 
REMARK    8  A    between atoms: C_21  and  C_22 
REMARK    9  A    between atoms: C_22  and  N_23 
REMARK   10  A    between atoms: C_34  and  O_35 
ROOT
HETATM    1  C   UNL     1      40.669 -14.340   0.422  1.00  0.00     0.059 C 
HETATM    2  C   UNL     1      41.505 -13.352   1.160  1.00  0.00     0.161 C 
HETATM    3  N   UNL     1      40.617 -12.202   1.187  1.00  0.00    -0.332 N 
HETATM    4  C   UNL     1      39.547 -12.385   0.323  1.00  0.00     0.278 C 
HETATM    5  O   UNL     1      38.892 -11.472  -0.153  1.00  0.00    -0.265 OA
HETATM    6  C   UNL     1      39.519 -13.823  -0.032  1.00  0.00     0.146 C 
ENDROOT
BRANCH   1   7
HETATM    7  C   UNL     1      41.111 -15.682  -0.002  1.00  0.00     0.193 C 
HETATM    8  O   UNL     1      41.347 -15.933  -1.174  1.00  0.00    -0.287 OA
BRANCH   7   9
HETATM    9  C   UNL     1      41.464 -16.608   1.088  1.00  0.00     0.015 A 
HETATM   10  C   UNL     1      40.551 -16.921   2.095  1.00  0.00     0.018 A 
HETATM   11  C   UNL     1      40.989 -17.623   3.223  1.00  0.00     0.038 A 
HETATM   12  C   UNL     1      42.327 -18.011   3.330  1.00  0.00     0.069 A 
HETATM   13  C   UNL     1      43.208 -17.767   2.273  1.00  0.00     0.038 A 
HETATM   14  C   UNL     1      42.785 -17.056   1.152  1.00  0.00     0.018 A 
BRANCH  12  15
HETATM   15  O   UNL     1      42.876 -18.677   4.387  1.00  0.00    -0.347 OA
BRANCH  15  16
HETATM   16  C   UNL     1      44.267 -18.468   4.667  1.00  0.00     0.120 C 
HETATM   17  C   UNL     1      44.988 -19.813   4.756  1.00  0.00     0.040 C 
HETATM   18  C   UNL     1      44.339 -17.749   6.011  1.00  0.00     0.040 C 
ENDBRANCH  15  16
ENDBRANCH  12  15
ENDBRANCH   7   9
ENDBRANCH   1   7
BRANCH   2  19
HETATM   19  C   UNL     1      41.991 -13.717   2.543  1.00  0.00    -0.028 A 
HETATM   20  C   UNL     1      41.036 -13.941   3.551  1.00  0.00     0.045 A 
HETATM   21  C   UNL     1      41.433 -14.342   4.835  1.00  0.00     0.103 A 
HETATM   22  C   UNL     1      42.784 -14.499   5.145  1.00  0.00     0.036 A 
HETATM   23  C   UNL     1      43.737 -14.271   4.150  1.00  0.00     0.003 A 
HETATM   24  C   UNL     1      43.346 -13.895   2.857  1.00  0.00     0.010 A 
BRANCH  21  25
HETATM   25  N   UNL     1      40.401 -14.633   5.836  1.00  0.00    -0.116 N 
HETATM   26  O   UNL     1      39.751 -13.665   6.264  1.00  0.00    -0.532 OA
HETATM   27  O   UNL     1      40.236 -15.809   6.173  1.00  0.00    -0.532 OA
ENDBRANCH  21  25
ENDBRANCH   2  19
BRANCH   6  28
HETATM   28  O   UNL     1      38.582 -14.401  -0.836  1.00  0.00    -0.355 OA
HETATM   29  H   UNL     1      37.861 -14.751  -0.261  1.00  0.00     0.218 HD
ENDBRANCH   6  28
BRANCH   3  30
HETATM   30  C   UNL     1      41.027 -10.872   1.596  1.00  0.00     0.155 C 
BRANCH  30  31
HETATM   31  C   UNL     1      40.014 -10.230   2.561  1.00  0.00     0.254 C 
BRANCH  31  32
HETATM   32  N   UNL     1      40.049 -10.853   3.955  1.00  0.00    -0.066 N 
HETATM   33  H   UNL     1      40.079 -11.876   3.800  1.00  0.00     0.280 HD
HETATM   34  C   UNL     1      38.787 -10.588   4.799  1.00  0.00     0.262 C 
HETATM   35  C   UNL     1      38.749  -9.144   5.358  1.00  0.00     0.260 C 
HETATM   36  N   UNL     1      40.041  -8.809   6.079  1.00  0.00    -0.072 N 
HETATM   37  H   UNL     1      40.084  -9.305   6.985  1.00  0.00     0.277 HD
HETATM   38  H   UNL     1      40.010  -7.810   6.349  1.00  0.00     0.277 HD
HETATM   39  C   UNL     1      41.292  -9.059   5.274  1.00  0.00     0.260 C 
HETATM   40  C   UNL     1      41.326 -10.507   4.726  1.00  0.00     0.262 C 
ENDBRANCH  31  32
ENDBRANCH  30  31
ENDBRANCH   3  30
TORSDOF 10
ENDMDL
MODEL 10
REMARK VINA RESULT:      -6.8      2.949      6.320
REMARK  10 active torsions:
REMARK  status: ('A' for Active; 'I' for Inactive)
REMARK    1  A    between atoms: C_2  and  O_3 
REMARK    2  A    between atoms: O_3  and  C_4 
REMARK    3  A    between atoms: C_7  and  C_8 
REMARK    4  A    between atoms: C_8  and  C_9 
REMARK    5  A    between atoms: C_10  and  C_11 
REMARK    6  A    between atoms: C_13  and  N_14 
REMARK    7  A    between atoms: N_20  and  C_21 
REMARK    8  A    between atoms: C_21  and  C_22 
REMARK    9  A    between atoms: C_22  and  N_23 
REMARK   10  A    between atoms: C_34  and  O_35 
ROOT
HETATM    1  C   UNL     1      41.320 -12.219   2.219  1.00  0.00     0.059 C 
HETATM    2  C   UNL     1      41.701 -13.399   3.046  1.00  0.00     0.161 C 
HETATM    3  N   UNL     1      41.048 -13.079   4.304  1.00  0.00    -0.332 N 
HETATM    4  C   UNL     1      40.611 -11.762   4.311  1.00  0.00     0.278 C 
HETATM    5  O   UNL     1      40.405 -11.119   5.329  1.00  0.00    -0.265 OA
HETATM    6  C   UNL     1      40.655 -11.283   2.910  1.00  0.00     0.146 C 
ENDROOT
BRANCH   1   7
HETATM    7  C   UNL     1      41.801 -11.946   0.852  1.00  0.00     0.193 C 
HETATM    8  O   UNL     1      42.843 -11.340   0.654  1.00  0.00    -0.287 OA
BRANCH   7   9
HETATM    9  C   UNL     1      41.078 -12.641  -0.227  1.00  0.00     0.015 A 
HETATM   10  C   UNL     1      41.671 -13.679  -0.944  1.00  0.00     0.018 A 
HETATM   11  C   UNL     1      41.044 -14.163  -2.097  1.00  0.00     0.038 A 
HETATM   12  C   UNL     1      39.830 -13.613  -2.516  1.00  0.00     0.069 A 
HETATM   13  C   UNL     1      39.205 -12.634  -1.738  1.00  0.00     0.038 A 
HETATM   14  C   UNL     1      39.829 -12.135  -0.597  1.00  0.00     0.018 A 
BRANCH  12  15
HETATM   15  O   UNL     1      39.136 -13.983  -3.631  1.00  0.00    -0.347 OA
BRANCH  15  16
HETATM   16  C   UNL     1      38.306 -15.150  -3.554  1.00  0.00     0.120 C 
HETATM   17  C   UNL     1      38.902 -16.271  -4.404  1.00  0.00     0.040 C 
HETATM   18  C   UNL     1      36.939 -14.750  -4.103  1.00  0.00     0.040 C 
ENDBRANCH  15  16
ENDBRANCH  12  15
ENDBRANCH   7   9
ENDBRANCH   1   7
BRANCH   2  19
HETATM   19  C   UNL     1      41.320 -14.774   2.550  1.00  0.00    -0.028 A 
HETATM   20  C   UNL     1      42.348 -15.690   2.262  1.00  0.00     0.045 A 
HETATM   21  C   UNL     1      42.046 -16.998   1.857  1.00  0.00     0.103 A 
HETATM   22  C   UNL     1      40.721 -17.408   1.707  1.00  0.00     0.036 A 
HETATM   23  C   UNL     1      39.697 -16.501   1.984  1.00  0.00     0.003 A 
HETATM   24  C   UNL     1      39.991 -15.199   2.414  1.00  0.00     0.010 A 
BRANCH  21  25
HETATM   25  N   UNL     1      43.147 -17.942   1.635  1.00  0.00    -0.116 N 
HETATM   26  O   UNL     1      44.147 -17.501   1.044  1.00  0.00    -0.532 OA
HETATM   27  O   UNL     1      43.018 -19.094   2.059  1.00  0.00    -0.532 OA
ENDBRANCH  21  25
ENDBRANCH   2  19
BRANCH   6  28
HETATM   28  O   UNL     1      40.261 -10.043   2.506  1.00  0.00    -0.355 OA
HETATM   29  H   UNL     1      40.644  -9.877   1.613  1.00  0.00     0.218 HD
ENDBRANCH   6  28
BRANCH   3  30
HETATM   30  C   UNL     1      41.284 -13.794   5.544  1.00  0.00     0.155 C 
BRANCH  30  31
HETATM   31  C   UNL     1      42.654 -14.496   5.551  1.00  0.00     0.254 C 
BRANCH  31  32
HETATM   32  N   UNL     1      42.723 -15.647   6.552  1.00  0.00    -0.066 N 
HETATM   33  H   UNL     1      42.802 -15.201   7.482  1.00  0.00     0.280 HD
HETATM   34  C   UNL     1      43.971 -16.540   6.403  1.00  0.00     0.262 C 
HETATM   35  C   UNL     1      43.864 -17.497   5.189  1.00  0.00     0.260 C 
HETATM   36  N   UNL     1      42.563 -18.275   5.226  1.00  0.00    -0.072 N 
HETATM   37  H   UNL     1      42.598 -18.997   5.965  1.00  0.00     0.277 HD
HETATM   38  H   UNL     1      42.490 -18.824   4.351  1.00  0.00     0.277 HD
HETATM   39  C   UNL     1      41.326 -17.423   5.371  1.00  0.00     0.260 C 
HETATM   40  C   UNL     1      41.437 -16.476   6.592  1.00  0.00     0.262 C 
ENDBRANCH  31  32
ENDBRANCH  30  31
ENDBRANCH   3  30
TORSDOF 10
ENDMDL
