MODEL 1
REMARK VINA RESULT:      -9.6      0.000      0.000
REMARK  4 active torsions:
REMARK  status: ('A' for Active; 'I' for Inactive)
REMARK    1  A    between atoms: C_2  and  C_3 
REMARK    2  A    between atoms: C_6  and  C_7 
REMARK    3  A    between atoms: N_8  and  N_9 
REMARK       I    between atoms: N_9  and  C_10 
REMARK    4  A    between atoms: C_10  and  C_11 
ROOT
HETATM    1  N   UNL     1      44.258 -14.536   7.633  1.00  0.00    -0.242 N 
HETATM    2  C   UNL     1      45.023 -13.385   7.646  1.00  0.00     0.292 C 
HETATM    3  O   UNL     1      45.928 -13.054   6.896  1.00  0.00    -0.264 OA
HETATM    4  H   UNL     1      43.514 -14.610   8.326  1.00  0.00     0.192 HD
ENDROOT
BRANCH   1   5
HETATM    5  N   UNL     1      44.483 -15.690   6.927  1.00  0.00    -0.183 NA
HETATM    6  C   UNL     1      43.669 -16.690   7.035  1.00  0.00     0.152 C 
BRANCH   6   7
HETATM    7  C   UNL     1      43.867 -17.850   6.187  1.00  0.00     0.011 A 
HETATM    8  C   UNL     1      43.796 -17.893   4.756  1.00  0.00     0.004 A 
HETATM    9  C   UNL     1      44.119 -19.192   4.353  1.00  0.00     0.049 A 
HETATM   10  C   UNL     1      43.512 -16.930   3.765  1.00  0.00     0.014 A 
HETATM   11  C   UNL     1      44.191 -19.585   3.002  1.00  0.00    -0.031 A 
HETATM   12  N   UNL     1      44.333 -19.919   5.504  1.00  0.00    -0.364 N 
HETATM   13  C   UNL     1      43.894 -18.594   2.048  1.00  0.00     0.009 A 
HETATM   14  C   UNL     1      43.559 -17.293   2.418  1.00  0.00     0.002 A 
HETATM   15  C   UNL     1      44.196 -19.124   6.607  1.00  0.00     0.102 A 
HETATM   16  H   UNL     1      44.577 -20.900   5.523  1.00  0.00     0.165 HD
BRANCH  11  17
HETATM   17  C   UNL     1      44.550 -20.977   2.547  1.00  0.00     0.036 C 
HETATM   18  C   UNL     1      43.474 -21.578   1.656  1.00  0.00     0.010 C 
ENDBRANCH  11  17
ENDBRANCH   6   7
ENDBRANCH   1   5
BRANCH   2  19
HETATM   19  C   UNL     1      44.664 -12.480   8.814  1.00  0.00     0.157 A 
HETATM   20  N   UNL     1      45.446 -12.536   9.856  1.00  0.00    -0.166 NA
HETATM   21  N   UNL     1      45.157 -11.724  10.911  1.00  0.00    -0.242 N 
HETATM   22  C   UNL     1      44.112 -10.834  10.988  1.00  0.00     0.272 A 
HETATM   23  H   UNL     1      45.760 -11.800  11.727  1.00  0.00     0.192 HD
HETATM   24  O   UNL     1      43.911 -10.141  11.979  1.00  0.00    -0.266 OA
HETATM   25  C   UNL     1      43.246 -10.746   9.799  1.00  0.00     0.046 A 
HETATM   26  C   UNL     1      43.511 -11.564   8.703  1.00  0.00     0.016 A 
HETATM   27  C   UNL     1      42.180  -9.839   9.768  1.00  0.00     0.018 A 
HETATM   28  C   UNL     1      42.709 -11.466   7.560  1.00  0.00     0.015 A 
HETATM   29  C   UNL     1      41.643 -10.562   7.529  1.00  0.00     0.001 A 
HETATM   30  C   UNL     1      41.378  -9.750   8.631  1.00  0.00     0.001 A 
ENDBRANCH   2  19
TORSDOF 4
ENDMDL
MODEL 2
REMARK VINA RESULT:      -9.0      2.125      9.366
REMARK  4 active torsions:
REMARK  status: ('A' for Active; 'I' for Inactive)
REMARK    1  A    between atoms: C_2  and  C_3 
REMARK    2  A    between atoms: C_6  and  C_7 
REMARK    3  A    between atoms: N_8  and  N_9 
REMARK       I    between atoms: N_9  and  C_10 
REMARK    4  A    between atoms: C_10  and  C_11 
ROOT
HETATM    1  N   UNL     1      44.404 -15.595   6.801  1.00  0.00    -0.242 N 
HETATM    2  C   UNL     1      43.303 -16.225   6.248  1.00  0.00     0.292 C 
HETATM    3  O   UNL     1      42.118 -15.963   6.383  1.00  0.00    -0.264 OA
HETATM    4  H   UNL     1      45.324 -15.941   6.531  1.00  0.00     0.192 HD
ENDROOT
BRANCH   1   5
HETATM    5  N   UNL     1      44.425 -14.677   7.819  1.00  0.00    -0.183 NA
HETATM    6  C   UNL     1      44.818 -13.464   7.596  1.00  0.00     0.152 C 
BRANCH   6   7
HETATM    7  C   UNL     1      44.716 -12.487   8.663  1.00  0.00     0.011 A 
HETATM    8  C   UNL     1      43.650 -11.555   8.877  1.00  0.00     0.004 A 
HETATM    9  C   UNL     1      43.929 -10.853  10.054  1.00  0.00     0.049 A 
HETATM   10  C   UNL     1      42.454 -11.265   8.187  1.00  0.00     0.014 A 
HETATM   11  C   UNL     1      43.065  -9.880  10.596  1.00  0.00    -0.031 A 
HETATM   12  N   UNL     1      45.145 -11.315  10.509  1.00  0.00    -0.364 N 
HETATM   13  C   UNL     1      41.887  -9.619   9.870  1.00  0.00     0.009 A 
HETATM   14  C   UNL     1      41.586 -10.294   8.689  1.00  0.00     0.002 A 
HETATM   15  C   UNL     1      45.620 -12.301   9.691  1.00  0.00     0.102 A 
HETATM   16  H   UNL     1      45.607 -10.982  11.344  1.00  0.00     0.165 HD
BRANCH  11  17
HETATM   17  C   UNL     1      43.342  -9.122  11.870  1.00  0.00     0.036 C 
HETATM   18  C   UNL     1      43.155  -9.995  13.102  1.00  0.00     0.010 C 
ENDBRANCH  11  17
ENDBRANCH   6   7
ENDBRANCH   1   5
BRANCH   2  19
HETATM   19  C   UNL     1      43.703 -17.431   5.412  1.00  0.00     0.157 A 
HETATM   20  N   UNL     1      44.051 -18.503   6.067  1.00  0.00    -0.166 NA
HETATM   21  N   UNL     1      44.399 -19.604   5.343  1.00  0.00    -0.242 N 
HETATM   22  C   UNL     1      44.414 -19.702   3.971  1.00  0.00     0.272 A 
HETATM   23  H   UNL     1      44.695 -20.423   5.867  1.00  0.00     0.192 HD
HETATM   24  O   UNL     1      44.748 -20.727   3.389  1.00  0.00    -0.266 OA
HETATM   25  C   UNL     1      43.990 -18.501   3.230  1.00  0.00     0.046 A 
HETATM   26  C   UNL     1      43.631 -17.357   3.938  1.00  0.00     0.016 A 
HETATM   27  C   UNL     1      43.935 -18.517   1.831  1.00  0.00     0.018 A 
HETATM   28  C   UNL     1      43.200 -16.221   3.242  1.00  0.00     0.015 A 
HETATM   29  C   UNL     1      43.146 -16.236   1.846  1.00  0.00     0.001 A 
HETATM   30  C   UNL     1      43.513 -17.381   1.141  1.00  0.00     0.001 A 
ENDBRANCH   2  19
TORSDOF 4
ENDMDL
MODEL 3
REMARK VINA RESULT:      -8.8      2.431      9.649
REMARK  4 active torsions:
REMARK  status: ('A' for Active; 'I' for Inactive)
REMARK    1  A    between atoms: C_2  and  C_3 
REMARK    2  A    between atoms: C_6  and  C_7 
REMARK    3  A    between atoms: N_8  and  N_9 
REMARK       I    between atoms: N_9  and  C_10 
REMARK    4  A    between atoms: C_10  and  C_11 
ROOT
HETATM    1  N   UNL     1      44.002 -14.685   6.220  1.00  0.00    -0.242 N 
HETATM    2  C   UNL     1      42.905 -15.409   5.791  1.00  0.00     0.292 C 
HETATM    3  O   UNL     1      41.794 -15.492   6.292  1.00  0.00    -0.264 OA
HETATM    4  H   UNL     1      44.837 -14.713   5.637  1.00  0.00     0.192 HD
ENDROOT
BRANCH   1   5
HETATM    5  N   UNL     1      44.187 -14.075   7.435  1.00  0.00    -0.183 NA
HETATM    6  C   UNL     1      44.425 -12.805   7.498  1.00  0.00     0.152 C 
BRANCH   6   7
HETATM    7  C   UNL     1      44.497 -12.169   8.799  1.00  0.00     0.011 A 
HETATM    8  C   UNL     1      43.571 -11.222   9.346  1.00  0.00     0.004 A 
HETATM    9  C   UNL     1      43.988 -10.923  10.647  1.00  0.00     0.049 A 
HETATM   10  C   UNL     1      42.397 -10.613   8.857  1.00  0.00     0.014 A 
HETATM   11  C   UNL     1      43.283 -10.054  11.503  1.00  0.00    -0.031 A 
HETATM   12  N   UNL     1      45.151 -11.631  10.860  1.00  0.00    -0.364 N 
HETATM   13  C   UNL     1      42.120  -9.464  10.971  1.00  0.00     0.009 A 
HETATM   14  C   UNL     1      41.684  -9.734   9.676  1.00  0.00     0.002 A 
HETATM   15  C   UNL     1      45.459 -12.389   9.766  1.00  0.00     0.102 A 
HETATM   16  H   UNL     1      45.687 -11.605  11.717  1.00  0.00     0.165 HD
BRANCH  11  17
HETATM   17  C   UNL     1      43.708  -9.729  12.913  1.00  0.00     0.036 C 
HETATM   18  C   UNL     1      42.653 -10.131  13.932  1.00  0.00     0.010 C 
ENDBRANCH  11  17
ENDBRANCH   6   7
ENDBRANCH   1   5
BRANCH   2  19
HETATM   19  C   UNL     1      43.218 -16.229   4.549  1.00  0.00     0.157 A 
HETATM   20  N   UNL     1      43.131 -15.609   3.406  1.00  0.00    -0.166 NA
HETATM   21  N   UNL     1      43.423 -16.315   2.277  1.00  0.00    -0.242 N 
HETATM   22  C   UNL     1      43.811 -17.633   2.222  1.00  0.00     0.272 A 
HETATM   23  H   UNL     1      43.324 -15.826   1.392  1.00  0.00     0.192 HD
HETATM   24  O   UNL     1      44.049 -18.204   1.164  1.00  0.00    -0.266 OA
HETATM   25  C   UNL     1      43.941 -18.326   3.516  1.00  0.00     0.046 A 
HETATM   26  C   UNL     1      43.648 -17.636   4.689  1.00  0.00     0.016 A 
HETATM   27  C   UNL     1      44.368 -19.659   3.563  1.00  0.00     0.018 A 
HETATM   28  C   UNL     1      43.795 -18.279   5.924  1.00  0.00     0.015 A 
HETATM   29  C   UNL     1      44.220 -19.610   5.972  1.00  0.00     0.001 A 
HETATM   30  C   UNL     1      44.506 -20.299   4.795  1.00  0.00     0.001 A 
ENDBRANCH   2  19
TORSDOF 4
ENDMDL
MODEL 4
REMARK VINA RESULT:      -8.7      6.231      9.989
REMARK  4 active torsions:
REMARK  status: ('A' for Active; 'I' for Inactive)
REMARK    1  A    between atoms: C_2  and  C_3 
REMARK    2  A    between atoms: C_6  and  C_7 
REMARK    3  A    between atoms: N_8  and  N_9 
REMARK       I    between atoms: N_9  and  C_10 
REMARK    4  A    between atoms: C_10  and  C_11 
ROOT
HETATM    1  N   UNL     1      42.272 -16.637   0.809  1.00  0.00    -0.242 N 
HETATM    2  C   UNL     1      41.615 -17.128   1.923  1.00  0.00     0.292 C 
HETATM    3  O   UNL     1      40.415 -17.202   2.138  1.00  0.00    -0.264 OA
HETATM    4  H   UNL     1      43.289 -16.701   0.801  1.00  0.00     0.192 HD
ENDROOT
BRANCH   1   5
HETATM    5  N   UNL     1      41.748 -15.897  -0.220  1.00  0.00    -0.183 NA
HETATM    6  C   UNL     1      41.700 -14.607  -0.137  1.00  0.00     0.152 C 
BRANCH   6   7
HETATM    7  C   UNL     1      41.252 -13.845  -1.287  1.00  0.00     0.011 A 
HETATM    8  C   UNL     1      41.781 -12.597  -1.752  1.00  0.00     0.004 A 
HETATM    9  C   UNL     1      41.100 -12.258  -2.925  1.00  0.00     0.049 A 
HETATM   10  C   UNL     1      42.801 -11.738  -1.291  1.00  0.00     0.014 A 
HETATM   11  C   UNL     1      41.394 -11.107  -3.682  1.00  0.00    -0.031 A 
HETATM   12  N   UNL     1      40.163 -13.246  -3.136  1.00  0.00    -0.364 N 
HETATM   13  C   UNL     1      42.414 -10.275  -3.182  1.00  0.00     0.009 A 
HETATM   14  C   UNL     1      43.104 -10.580  -2.011  1.00  0.00     0.002 A 
HETATM   15  C   UNL     1      40.252 -14.206  -2.168  1.00  0.00     0.102 A 
HETATM   16  H   UNL     1      39.514 -13.262  -3.911  1.00  0.00     0.165 HD
BRANCH  11  17
HETATM   17  C   UNL     1      40.681 -10.730  -4.957  1.00  0.00     0.036 C 
HETATM   18  C   UNL     1      41.625 -10.108  -5.973  1.00  0.00     0.010 C 
ENDBRANCH  11  17
ENDBRANCH   6   7
ENDBRANCH   1   5
BRANCH   2  19
HETATM   19  C   UNL     1      42.588 -17.571   3.003  1.00  0.00     0.157 A 
HETATM   20  N   UNL     1      42.757 -16.753   4.004  1.00  0.00    -0.166 NA
HETATM   21  N   UNL     1      43.612 -17.132   4.996  1.00  0.00    -0.242 N 
HETATM   22  C   UNL     1      44.321 -18.310   5.051  1.00  0.00     0.272 A 
HETATM   23  H   UNL     1      43.755 -16.472   5.756  1.00  0.00     0.192 HD
HETATM   24  O   UNL     1      45.079 -18.576   5.975  1.00  0.00    -0.266 OA
HETATM   25  C   UNL     1      44.106 -19.249   3.936  1.00  0.00     0.046 A 
HETATM   26  C   UNL     1      43.241 -18.893   2.904  1.00  0.00     0.016 A 
HETATM   27  C   UNL     1      44.754 -20.490   3.925  1.00  0.00     0.018 A 
HETATM   28  C   UNL     1      43.011 -19.791   1.855  1.00  0.00     0.015 A 
HETATM   29  C   UNL     1      43.659 -21.030   1.843  1.00  0.00     0.001 A 
HETATM   30  C   UNL     1      44.529 -21.379   2.874  1.00  0.00     0.001 A 
ENDBRANCH   2  19
TORSDOF 4
ENDMDL
MODEL 5
REMARK VINA RESULT:      -8.6      5.358      8.651
REMARK  4 active torsions:
REMARK  status: ('A' for Active; 'I' for Inactive)
REMARK    1  A    between atoms: C_2  and  C_3 
REMARK    2  A    between atoms: C_6  and  C_7 
REMARK    3  A    between atoms: N_8  and  N_9 
REMARK       I    between atoms: N_9  and  C_10 
REMARK    4  A    between atoms: C_10  and  C_11 
ROOT
HETATM    1  N   UNL     1      40.832 -16.577   3.560  1.00  0.00    -0.242 N 
HETATM    2  C   UNL     1      42.152 -16.309   3.877  1.00  0.00     0.292 C 
HETATM    3  O   UNL     1      42.910 -15.488   3.384  1.00  0.00    -0.264 OA
HETATM    4  H   UNL     1      40.351 -17.279   4.120  1.00  0.00     0.192 HD
ENDROOT
BRANCH   1   5
HETATM    5  N   UNL     1      40.128 -16.156   2.460  1.00  0.00    -0.183 NA
HETATM    6  C   UNL     1      39.760 -14.920   2.355  1.00  0.00     0.152 C 
BRANCH   6   7
HETATM    7  C   UNL     1      39.123 -14.480   1.128  1.00  0.00     0.011 A 
HETATM    8  C   UNL     1      39.747 -14.300  -0.149  1.00  0.00     0.004 A 
HETATM    9  C   UNL     1      38.751 -13.933  -1.060  1.00  0.00     0.049 A 
HETATM   10  C   UNL     1      41.069 -14.444  -0.617  1.00  0.00     0.014 A 
HETATM   11  C   UNL     1      39.000 -13.716  -2.430  1.00  0.00    -0.031 A 
HETATM   12  N   UNL     1      37.575 -13.851  -0.346  1.00  0.00    -0.364 N 
HETATM   13  C   UNL     1      40.336 -13.865  -2.851  1.00  0.00     0.009 A 
HETATM   14  C   UNL     1      41.351 -14.220  -1.966  1.00  0.00     0.002 A 
HETATM   15  C   UNL     1      37.783 -14.187   0.962  1.00  0.00     0.102 A 
HETATM   16  H   UNL     1      36.682 -13.596  -0.744  1.00  0.00     0.165 HD
BRANCH  11  17
HETATM   17  C   UNL     1      37.939 -13.332  -3.430  1.00  0.00     0.036 C 
HETATM   18  C   UNL     1      37.188 -14.546  -3.955  1.00  0.00     0.010 C 
ENDBRANCH  11  17
ENDBRANCH   6   7
ENDBRANCH   1   5
BRANCH   2  19
HETATM   19  C   UNL     1      42.672 -17.239   4.961  1.00  0.00     0.157 A 
HETATM   20  N   UNL     1      42.376 -16.922   6.191  1.00  0.00    -0.166 NA
HETATM   21  N   UNL     1      42.816 -17.747   7.182  1.00  0.00    -0.242 N 
HETATM   22  C   UNL     1      43.547 -18.900   7.014  1.00  0.00     0.272 A 
HETATM   23  H   UNL     1      42.601 -17.472   8.137  1.00  0.00     0.192 HD
HETATM   24  O   UNL     1      43.915 -19.587   7.960  1.00  0.00    -0.266 OA
HETATM   25  C   UNL     1      43.856 -19.276   5.623  1.00  0.00     0.046 A 
HETATM   26  C   UNL     1      43.424 -18.454   4.585  1.00  0.00     0.016 A 
HETATM   27  C   UNL     1      44.562 -20.454   5.351  1.00  0.00     0.018 A 
HETATM   28  C   UNL     1      43.689 -18.820   3.260  1.00  0.00     0.015 A 
HETATM   29  C   UNL     1      44.396 -19.994   2.988  1.00  0.00     0.001 A 
HETATM   30  C   UNL     1      44.832 -20.810   4.030  1.00  0.00     0.001 A 
ENDBRANCH   2  19
TORSDOF 4
ENDMDL
MODEL 6
REMARK VINA RESULT:      -8.6      3.032      3.808
REMARK  4 active torsions:
REMARK  status: ('A' for Active; 'I' for Inactive)
REMARK    1  A    between atoms: C_2  and  C_3 
REMARK    2  A    between atoms: C_6  and  C_7 
REMARK    3  A    between atoms: N_8  and  N_9 
REMARK       I    between atoms: N_9  and  C_10 
REMARK    4  A    between atoms: C_10  and  C_11 
ROOT
HETATM    1  N   UNL     1      40.552 -12.994   6.583  1.00  0.00    -0.242 N 
HETATM    2  C   UNL     1      40.669 -11.617   6.642  1.00  0.00     0.292 C 
HETATM    3  O   UNL     1      41.049 -10.839   5.780  1.00  0.00    -0.264 OA
HETATM    4  H   UNL     1      40.173 -13.466   7.402  1.00  0.00     0.192 HD
ENDROOT
BRANCH   1   5
HETATM    5  N   UNL     1      41.058 -13.842   5.631  1.00  0.00    -0.183 NA
HETATM    6  C   UNL     1      40.992 -15.123   5.798  1.00  0.00     0.152 C 
BRANCH   6   7
HETATM    7  C   UNL     1      41.426 -15.995   4.722  1.00  0.00     0.011 A 
HETATM    8  C   UNL     1      42.417 -17.026   4.796  1.00  0.00     0.004 A 
HETATM    9  C   UNL     1      42.468 -17.657   3.550  1.00  0.00     0.049 A 
HETATM   10  C   UNL     1      43.259 -17.497   5.825  1.00  0.00     0.014 A 
HETATM   11  C   UNL     1      43.308 -18.754   3.274  1.00  0.00    -0.031 A 
HETATM   12  N   UNL     1      41.569 -16.999   2.738  1.00  0.00    -0.364 N 
HETATM   13  C   UNL     1      44.135 -19.187   4.328  1.00  0.00     0.009 A 
HETATM   14  C   UNL     1      44.115 -18.572   5.578  1.00  0.00     0.002 A 
HETATM   15  C   UNL     1      40.931 -16.009   3.432  1.00  0.00     0.102 A 
HETATM   16  H   UNL     1      41.395 -17.233   1.771  1.00  0.00     0.165 HD
BRANCH  11  17
HETATM   17  C   UNL     1      43.368 -19.457   1.940  1.00  0.00     0.036 C 
HETATM   18  C   UNL     1      43.860 -20.889   2.075  1.00  0.00     0.010 C 
ENDBRANCH  11  17
ENDBRANCH   6   7
ENDBRANCH   1   5
BRANCH   2  19
HETATM   19  C   UNL     1      40.305 -11.078   8.016  1.00  0.00     0.157 A 
HETATM   20  N   UNL     1      39.033 -10.964   8.278  1.00  0.00    -0.166 NA
HETATM   21  N   UNL     1      38.678 -10.498   9.509  1.00  0.00    -0.242 N 
HETATM   22  C   UNL     1      39.539 -10.136  10.519  1.00  0.00     0.272 A 
HETATM   23  H   UNL     1      37.684 -10.388   9.688  1.00  0.00     0.192 HD
HETATM   24  O   UNL     1      39.142  -9.716  11.600  1.00  0.00    -0.266 OA
HETATM   25  C   UNL     1      40.976 -10.294  10.235  1.00  0.00     0.046 A 
HETATM   26  C   UNL     1      41.374 -10.765   8.987  1.00  0.00     0.016 A 
HETATM   27  C   UNL     1      41.926  -9.988  11.216  1.00  0.00     0.018 A 
HETATM   28  C   UNL     1      42.737 -10.944   8.720  1.00  0.00     0.015 A 
HETATM   29  C   UNL     1      43.687 -10.637   9.698  1.00  0.00     0.001 A 
HETATM   30  C   UNL     1      43.284 -10.160  10.944  1.00  0.00     0.001 A 
ENDBRANCH   2  19
TORSDOF 4
ENDMDL
MODEL 7
REMARK VINA RESULT:      -8.4      3.591      4.025
REMARK  4 active torsions:
REMARK  status: ('A' for Active; 'I' for Inactive)
REMARK    1  A    between atoms: C_2  and  C_3 
REMARK    2  A    between atoms: C_6  and  C_7 
REMARK    3  A    between atoms: N_8  and  N_9 
REMARK       I    between atoms: N_9  and  C_10 
REMARK    4  A    between atoms: C_10  and  C_11 
ROOT
HETATM    1  N   UNL     1      40.714 -13.697   6.305  1.00  0.00    -0.242 N 
HETATM    2  C   UNL     1      39.673 -12.811   6.093  1.00  0.00     0.292 C 
HETATM    3  O   UNL     1      38.892 -12.752   5.156  1.00  0.00    -0.264 OA
HETATM    4  H   UNL     1      41.232 -13.608   7.178  1.00  0.00     0.192 HD
ENDROOT
BRANCH   1   5
HETATM    5  N   UNL     1      41.274 -14.570   5.407  1.00  0.00    -0.183 NA
HETATM    6  C   UNL     1      40.984 -15.830   5.457  1.00  0.00     0.152 C 
BRANCH   6   7
HETATM    7  C   UNL     1      41.496 -16.709   4.422  1.00  0.00     0.011 A 
HETATM    8  C   UNL     1      42.541 -17.679   4.557  1.00  0.00     0.004 A 
HETATM    9  C   UNL     1      42.663 -18.345   3.334  1.00  0.00     0.049 A 
HETATM   10  C   UNL     1      43.378 -18.069   5.623  1.00  0.00     0.014 A 
HETATM   11  C   UNL     1      43.570 -19.401   3.117  1.00  0.00    -0.031 A 
HETATM   12  N   UNL     1      41.753 -17.765   2.477  1.00  0.00    -0.364 N 
HETATM   13  C   UNL     1      44.389 -19.753   4.207  1.00  0.00     0.009 A 
HETATM   14  C   UNL     1      44.300 -19.101   5.435  1.00  0.00     0.002 A 
HETATM   15  C   UNL     1      41.041 -16.792   3.121  1.00  0.00     0.102 A 
HETATM   16  H   UNL     1      41.620 -18.038   1.513  1.00  0.00     0.165 HD
BRANCH  11  17
HETATM   17  C   UNL     1      43.708 -20.141   1.810  1.00  0.00     0.036 C 
HETATM   18  C   UNL     1      43.867 -21.639   2.019  1.00  0.00     0.010 C 
ENDBRANCH  11  17
ENDBRANCH   6   7
ENDBRANCH   1   5
BRANCH   2  19
HETATM   19  C   UNL     1      39.586 -11.767   7.194  1.00  0.00     0.157 A 
HETATM   20  N   UNL     1      38.955 -12.118   8.280  1.00  0.00    -0.166 NA
HETATM   21  N   UNL     1      38.876 -11.207   9.290  1.00  0.00    -0.242 N 
HETATM   22  C   UNL     1      39.406  -9.938   9.283  1.00  0.00     0.272 A 
HETATM   23  H   UNL     1      38.357 -11.485  10.119  1.00  0.00     0.192 HD
HETATM   24  O   UNL     1      39.285  -9.170  10.231  1.00  0.00    -0.266 OA
HETATM   25  C   UNL     1      40.147  -9.551   8.069  1.00  0.00     0.046 A 
HETATM   26  C   UNL     1      40.245 -10.457   7.016  1.00  0.00     0.016 A 
HETATM   27  C   UNL     1      40.756  -8.293   7.985  1.00  0.00     0.018 A 
HETATM   28  C   UNL     1      40.971 -10.106   5.870  1.00  0.00     0.015 A 
HETATM   29  C   UNL     1      41.577  -8.850   5.785  1.00  0.00     0.001 A 
HETATM   30  C   UNL     1      41.470  -7.944   6.839  1.00  0.00     0.001 A 
ENDBRANCH   2  19
TORSDOF 4
ENDMDL
MODEL 8
REMARK VINA RESULT:      -8.2      6.080      9.318
REMARK  4 active torsions:
REMARK  status: ('A' for Active; 'I' for Inactive)
REMARK    1  A    between atoms: C_2  and  C_3 
REMARK    2  A    between atoms: C_6  and  C_7 
REMARK    3  A    between atoms: N_8  and  N_9 
REMARK       I    between atoms: N_9  and  C_10 
REMARK    4  A    between atoms: C_10  and  C_11 
ROOT
HETATM    1  N   UNL     1      42.156 -17.768   1.909  1.00  0.00    -0.242 N 
HETATM    2  C   UNL     1      43.531 -17.858   2.029  1.00  0.00     0.292 C 
HETATM    3  O   UNL     1      44.397 -17.203   1.469  1.00  0.00    -0.264 OA
HETATM    4  H   UNL     1      41.595 -18.381   2.499  1.00  0.00     0.192 HD
ENDROOT
BRANCH   1   5
HETATM    5  N   UNL     1      41.436 -17.091   0.958  1.00  0.00    -0.183 NA
HETATM    6  C   UNL     1      41.306 -15.806   1.030  1.00  0.00     0.152 C 
BRANCH   6   7
HETATM    7  C   UNL     1      40.642 -15.106  -0.053  1.00  0.00     0.011 A 
HETATM    8  C   UNL     1      39.462 -14.298   0.040  1.00  0.00     0.004 A 
HETATM    9  C   UNL     1      39.212 -13.764  -1.228  1.00  0.00     0.049 A 
HETATM   10  C   UNL     1      38.599 -13.952   1.100  1.00  0.00     0.014 A 
HETATM   11  C   UNL     1      38.148 -12.880  -1.497  1.00  0.00    -0.031 A 
HETATM   12  N   UNL     1      40.183 -14.269  -2.066  1.00  0.00    -0.364 N 
HETATM   13  C   UNL     1      37.308 -12.568  -0.410  1.00  0.00     0.009 A 
HETATM   14  C   UNL     1      37.525 -13.092   0.862  1.00  0.00     0.002 A 
HETATM   15  C   UNL     1      41.050 -15.064  -1.372  1.00  0.00     0.102 A 
HETATM   16  H   UNL     1      40.250 -14.060  -3.053  1.00  0.00     0.165 HD
BRANCH  11  17
HETATM   17  C   UNL     1      37.869 -12.283  -2.853  1.00  0.00     0.036 C 
HETATM   18  C   UNL     1      37.159 -13.266  -3.772  1.00  0.00     0.010 C 
ENDBRANCH  11  17
ENDBRANCH   6   7
ENDBRANCH   1   5
BRANCH   2  19
HETATM   19  C   UNL     1      43.944 -18.981   2.967  1.00  0.00     0.157 A 
HETATM   20  N   UNL     1      44.447 -20.047   2.411  1.00  0.00    -0.166 NA
HETATM   21  N   UNL     1      44.841 -21.064   3.229  1.00  0.00    -0.242 N 
HETATM   22  C   UNL     1      44.767 -21.076   4.603  1.00  0.00     0.272 A 
HETATM   23  H   UNL     1      45.205 -21.899   2.780  1.00  0.00     0.192 HD
HETATM   24  O   UNL     1      45.135 -22.034   5.271  1.00  0.00    -0.266 OA
HETATM   25  C   UNL     1      44.229 -19.858   5.234  1.00  0.00     0.046 A 
HETATM   26  C   UNL     1      43.813 -18.801   4.428  1.00  0.00     0.016 A 
HETATM   27  C   UNL     1      44.151 -19.761   6.628  1.00  0.00     0.018 A 
HETATM   28  C   UNL     1      43.327 -17.630   5.022  1.00  0.00     0.015 A 
HETATM   29  C   UNL     1      43.247 -17.534   6.414  1.00  0.00     0.001 A 
HETATM   30  C   UNL     1      43.657 -18.597   7.216  1.00  0.00     0.001 A 
ENDBRANCH   2  19
TORSDOF 4
ENDMDL
MODEL 9
REMARK VINA RESULT:      -8.2      2.393      2.938
REMARK  4 active torsions:
REMARK  status: ('A' for Active; 'I' for Inactive)
REMARK    1  A    between atoms: C_2  and  C_3 
REMARK    2  A    between atoms: C_6  and  C_7 
REMARK    3  A    between atoms: N_8  and  N_9 
REMARK       I    between atoms: N_9  and  C_10 
REMARK    4  A    between atoms: C_10  and  C_11 
ROOT
HETATM    1  N   UNL     1      41.233 -13.462   6.398  1.00  0.00    -0.242 N 
HETATM    2  C   UNL     1      41.711 -12.199   6.100  1.00  0.00     0.292 C 
HETATM    3  O   UNL     1      42.189 -11.785   5.054  1.00  0.00    -0.264 OA
HETATM    4  H   UNL     1      40.831 -13.602   7.324  1.00  0.00     0.192 HD
ENDROOT
BRANCH   1   5
HETATM    5  N   UNL     1      41.397 -14.617   5.678  1.00  0.00    -0.183 NA
HETATM    6  C   UNL     1      42.478 -15.317   5.804  1.00  0.00     0.152 C 
BRANCH   6   7
HETATM    7  C   UNL     1      42.572 -16.593   5.122  1.00  0.00     0.011 A 
HETATM    8  C   UNL     1      42.993 -16.818   3.771  1.00  0.00     0.004 A 
HETATM    9  C   UNL     1      42.996 -18.199   3.551  1.00  0.00     0.049 A 
HETATM   10  C   UNL     1      43.398 -15.967   2.721  1.00  0.00     0.014 A 
HETATM   11  C   UNL     1      43.403 -18.786   2.336  1.00  0.00    -0.031 A 
HETATM   12  N   UNL     1      42.550 -18.784   4.716  1.00  0.00    -0.364 N 
HETATM   13  C   UNL     1      43.793 -17.898   1.315  1.00  0.00     0.009 A 
HETATM   14  C   UNL     1      43.790 -16.518   1.500  1.00  0.00     0.002 A 
HETATM   15  C   UNL     1      42.303 -17.834   5.667  1.00  0.00     0.102 A 
HETATM   16  H   UNL     1      42.440 -19.780   4.850  1.00  0.00     0.165 HD
BRANCH  11  17
HETATM   17  C   UNL     1      43.426 -20.272   2.084  1.00  0.00     0.036 C 
HETATM   18  C   UNL     1      44.627 -20.940   2.736  1.00  0.00     0.010 C 
ENDBRANCH  11  17
ENDBRANCH   6   7
ENDBRANCH   1   5
BRANCH   2  19
HETATM   19  C   UNL     1      41.646 -11.270   7.302  1.00  0.00     0.157 A 
HETATM   20  N   UNL     1      40.557 -10.567   7.435  1.00  0.00    -0.166 NA
HETATM   21  N   UNL     1      40.465  -9.738   8.513  1.00  0.00    -0.242 N 
HETATM   22  C   UNL     1      41.417  -9.570   9.492  1.00  0.00     0.272 A 
HETATM   23  H   UNL     1      39.622  -9.175   8.588  1.00  0.00     0.192 HD
HETATM   24  O   UNL     1      41.264  -8.796  10.429  1.00  0.00    -0.266 OA
HETATM   25  C   UNL     1      42.635 -10.389   9.359  1.00  0.00     0.046 A 
HETATM   26  C   UNL     1      42.763 -11.245   8.268  1.00  0.00     0.016 A 
HETATM   27  C   UNL     1      43.642 -10.316  10.329  1.00  0.00     0.018 A 
HETATM   28  C   UNL     1      43.905 -12.046   8.151  1.00  0.00     0.015 A 
HETATM   29  C   UNL     1      44.912 -11.973   9.117  1.00  0.00     0.001 A 
HETATM   30  C   UNL     1      44.783 -11.110  10.204  1.00  0.00     0.001 A 
ENDBRANCH   2  19
TORSDOF 4
ENDMDL
MODEL 10
REMARK VINA RESULT:      -8.2      6.327      9.721
REMARK  4 active torsions:
REMARK  status: ('A' for Active; 'I' for Inactive)
REMARK    1  A    between atoms: C_2  and  C_3 
REMARK    2  A    between atoms: C_6  and  C_7 
REMARK    3  A    between atoms: N_8  and  N_9 
REMARK       I    between atoms: N_9  and  C_10 
REMARK    4  A    between atoms: C_10  and  C_11 
ROOT
HETATM    1  N   UNL     1      42.026 -17.276   2.405  1.00  0.00    -0.242 N 
HETATM    2  C   UNL     1      43.362 -17.630   2.446  1.00  0.00     0.292 C 
HETATM    3  O   UNL     1      44.256 -17.352   1.662  1.00  0.00    -0.264 OA
HETATM    4  H   UNL     1      41.439 -17.574   3.184  1.00  0.00     0.192 HD
ENDROOT
BRANCH   1   5
HETATM    5  N   UNL     1      41.330 -16.732   1.356  1.00  0.00    -0.183 NA
HETATM    6  C   UNL     1      41.134 -15.454   1.296  1.00  0.00     0.152 C 
BRANCH   6   7
HETATM    7  C   UNL     1      40.501 -14.896   0.116  1.00  0.00     0.011 A 
HETATM    8  C   UNL     1      39.327 -14.077   0.076  1.00  0.00     0.004 A 
HETATM    9  C   UNL     1      39.110 -13.709  -1.255  1.00  0.00     0.049 A 
HETATM   10  C   UNL     1      38.442 -13.592   1.062  1.00  0.00     0.014 A 
HETATM   11  C   UNL     1      38.060 -12.862  -1.661  1.00  0.00    -0.031 A 
HETATM   12  N   UNL     1      40.096 -14.322  -1.998  1.00  0.00    -0.364 N 
HETATM   13  C   UNL     1      37.198 -12.407  -0.645  1.00  0.00     0.009 A 
HETATM   14  C   UNL     1      37.381 -12.764   0.689  1.00  0.00     0.002 A 
HETATM   15  C   UNL     1      40.940 -15.026  -1.187  1.00  0.00     0.102 A 
HETATM   16  H   UNL     1      40.188 -14.243  -3.002  1.00  0.00     0.165 HD
BRANCH  11  17
HETATM   17  C   UNL     1      37.818 -12.443  -3.089  1.00  0.00     0.036 C 
HETATM   18  C   UNL     1      37.012 -13.480  -3.857  1.00  0.00     0.010 C 
ENDBRANCH  11  17
ENDBRANCH   6   7
ENDBRANCH   1   5
BRANCH   2  19
HETATM   19  C   UNL     1      43.672 -18.530   3.632  1.00  0.00     0.157 A 
HETATM   20  N   UNL     1      43.549 -17.997   4.815  1.00  0.00    -0.166 NA
HETATM   21  N   UNL     1      43.805 -18.786   5.896  1.00  0.00    -0.242 N 
HETATM   22  C   UNL     1      44.180 -20.109   5.866  1.00  0.00     0.272 A 
HETATM   23  H   UNL     1      43.732 -18.348   6.811  1.00  0.00     0.192 HD
HETATM   24  O   UNL     1      44.402 -20.752   6.885  1.00  0.00    -0.266 OA
HETATM   25  C   UNL     1      44.289 -20.721   4.530  1.00  0.00     0.046 A 
HETATM   26  C   UNL     1      44.037 -19.944   3.403  1.00  0.00     0.016 A 
HETATM   27  C   UNL     1      44.627 -22.074   4.400  1.00  0.00     0.018 A 
HETATM   28  C   UNL     1      44.111 -20.526   2.132  1.00  0.00     0.015 A 
HETATM   29  C   UNL     1      44.450 -21.876   2.001  1.00  0.00     0.001 A 
HETATM   30  C   UNL     1      44.708 -22.649   3.131  1.00  0.00     0.001 A 
ENDBRANCH   2  19
TORSDOF 4
ENDMDL
