MODEL 1
REMARK VINA RESULT:      -9.2      0.000      0.000
REMARK  2 active torsions:
REMARK  status: ('A' for Active; 'I' for Inactive)
REMARK    1  A    between atoms: C_4  and  C_5 
REMARK    2  A    between atoms: N_11  and  C_12 
ROOT
HETATM    1  C   UNL     1      42.605 -18.151   2.406  1.00  0.00     0.069 A 
HETATM    2  N   UNL     1      42.687 -17.646   1.119  1.00  0.00    -0.343 N 
HETATM    3  C   UNL     1      42.015 -16.518   0.744  1.00  0.00     0.119 A 
HETATM    4  C   UNL     1      41.305 -15.811   1.639  1.00  0.00     0.125 A 
HETATM    5  C   UNL     1      40.792 -14.625   0.933  1.00  0.00     0.280 A 
HETATM    6  O   UNL     1      40.118 -13.746   1.439  1.00  0.00    -0.265 OA
HETATM    7  N   UNL     1      41.257 -14.749  -0.386  1.00  0.00    -0.236 N 
HETATM    8  N   UNL     1      41.990 -15.948  -0.513  1.00  0.00    -0.179 NA
HETATM    9  C   UNL     1      41.206 -16.236   3.041  1.00  0.00     0.215 A 
HETATM   10  O   UNL     1      40.590 -15.586   3.877  1.00  0.00    -0.285 OA
HETATM   11  C   UNL     1      41.914 -17.523   3.383  1.00  0.00     0.112 A 
HETATM   12 CL   UNL     1      41.778 -18.094   5.003  1.00  0.00    -0.077 Cl
HETATM   13  H   UNL     1      43.094 -18.233   0.397  1.00  0.00     0.167 HD
HETATM   14  H   UNL     1      42.938 -15.790  -0.856  1.00  0.00     0.155 HD
ENDROOT
BRANCH   7  15
HETATM   15  C   UNL     1      41.039 -13.915  -1.503  1.00  0.00     0.055 A 
HETATM   16  C   UNL     1      42.067 -13.114  -2.025  1.00  0.00     0.034 A 
HETATM   17  C   UNL     1      41.847 -12.298  -3.140  1.00  0.00     0.044 A 
HETATM   18  C   UNL     1      40.595 -12.274  -3.737  1.00  0.00     0.116 A 
HETATM   19  F   UNL     1      40.384 -11.493  -4.804  1.00  0.00    -0.206 F 
HETATM   20  C   UNL     1      39.558 -13.049  -3.239  1.00  0.00     0.044 A 
HETATM   21  C   UNL     1      39.779 -13.866  -2.126  1.00  0.00     0.034 A 
ENDBRANCH   7  15
BRANCH   1  22
HETATM   22  C   UNL     1      43.322 -19.416   2.635  1.00  0.00    -0.008 A 
HETATM   23  C   UNL     1      44.215 -19.538   3.707  1.00  0.00     0.014 A 
HETATM   24  C   UNL     1      44.886 -20.742   3.928  1.00  0.00     0.001 A 
HETATM   25  C   UNL     1      44.668 -21.828   3.081  1.00  0.00     0.000 A 
HETATM   26  C   UNL     1      43.779 -21.714   2.013  1.00  0.00     0.001 A 
HETATM   27  C   UNL     1      43.106 -20.512   1.790  1.00  0.00     0.014 A 
ENDBRANCH   1  22
TORSDOF 2
ENDMDL
MODEL 2
REMARK VINA RESULT:      -9.2      3.419      8.007
REMARK  2 active torsions:
REMARK  status: ('A' for Active; 'I' for Inactive)
REMARK    1  A    between atoms: C_4  and  C_5 
REMARK    2  A    between atoms: N_11  and  C_12 
ROOT
HETATM    1  C   UNL     1      41.357 -14.590  -0.258  1.00  0.00     0.069 A 
HETATM    2  N   UNL     1      42.135 -15.734  -0.290  1.00  0.00    -0.343 N 
HETATM    3  C   UNL     1      42.254 -16.554   0.796  1.00  0.00     0.119 A 
HETATM    4  C   UNL     1      41.554 -16.316   1.918  1.00  0.00     0.125 A 
HETATM    5  C   UNL     1      41.843 -17.425   2.843  1.00  0.00     0.280 A 
HETATM    6  O   UNL     1      41.366 -17.551   3.956  1.00  0.00    -0.265 OA
HETATM    7  N   UNL     1      42.744 -18.255   2.156  1.00  0.00    -0.236 N 
HETATM    8  N   UNL     1      43.028 -17.694   0.893  1.00  0.00    -0.179 NA
HETATM    9  C   UNL     1      40.659 -15.157   2.026  1.00  0.00     0.215 A 
HETATM   10  O   UNL     1      39.989 -14.943   3.029  1.00  0.00    -0.285 OA
HETATM   11  C   UNL     1      40.617 -14.251   0.821  1.00  0.00     0.112 A 
HETATM   12 CL   UNL     1      39.625 -12.846   0.923  1.00  0.00    -0.077 Cl
HETATM   13  H   UNL     1      42.779 -15.857  -1.066  1.00  0.00     0.167 HD
HETATM   14  H   UNL     1      42.821 -18.335   0.127  1.00  0.00     0.155 HD
ENDROOT
BRANCH   7  15
HETATM   15  C   UNL     1      43.378 -19.443   2.578  1.00  0.00     0.055 A 
HETATM   16  C   UNL     1      44.084 -19.499   3.790  1.00  0.00     0.034 A 
HETATM   17  C   UNL     1      44.701 -20.684   4.207  1.00  0.00     0.044 A 
HETATM   18  C   UNL     1      44.619 -21.818   3.413  1.00  0.00     0.116 A 
HETATM   19  F   UNL     1      45.209 -22.951   3.812  1.00  0.00    -0.206 F 
HETATM   20  C   UNL     1      43.934 -21.790   2.207  1.00  0.00     0.044 A 
HETATM   21  C   UNL     1      43.316 -20.606   1.791  1.00  0.00     0.034 A 
ENDBRANCH   7  15
BRANCH   1  22
HETATM   22  C   UNL     1      41.393 -13.768  -1.479  1.00  0.00    -0.008 A 
HETATM   23  C   UNL     1      42.454 -12.880  -1.701  1.00  0.00     0.014 A 
HETATM   24  C   UNL     1      42.491 -12.109  -2.864  1.00  0.00     0.001 A 
HETATM   25  C   UNL     1      41.472 -12.221  -3.808  1.00  0.00     0.000 A 
HETATM   26  C   UNL     1      40.415 -13.104  -3.595  1.00  0.00     0.001 A 
HETATM   27  C   UNL     1      40.375 -13.877  -2.433  1.00  0.00     0.014 A 
ENDBRANCH   1  22
TORSDOF 2
ENDMDL
MODEL 3
REMARK VINA RESULT:      -8.6      2.225      3.081
REMARK  2 active torsions:
REMARK  status: ('A' for Active; 'I' for Inactive)
REMARK    1  A    between atoms: C_4  and  C_5 
REMARK    2  A    between atoms: N_11  and  C_12 
ROOT
HETATM    1  C   UNL     1      43.507 -18.805   3.825  1.00  0.00     0.069 A 
HETATM    2  N   UNL     1      42.611 -18.538   2.804  1.00  0.00    -0.343 N 
HETATM    3  C   UNL     1      42.001 -17.322   2.683  1.00  0.00     0.119 A 
HETATM    4  C   UNL     1      42.309 -16.311   3.512  1.00  0.00     0.125 A 
HETATM    5  C   UNL     1      41.549 -15.137   3.053  1.00  0.00     0.280 A 
HETATM    6  O   UNL     1      41.596 -14.030   3.559  1.00  0.00    -0.265 OA
HETATM    7  N   UNL     1      40.812 -15.584   1.945  1.00  0.00    -0.236 N 
HETATM    8  N   UNL     1      41.066 -16.956   1.735  1.00  0.00    -0.179 NA
HETATM    9  C   UNL     1      43.291 -16.483   4.590  1.00  0.00     0.215 A 
HETATM   10  O   UNL     1      43.608 -15.563   5.335  1.00  0.00    -0.285 OA
HETATM   11  C   UNL     1      43.884 -17.864   4.718  1.00  0.00     0.112 A 
HETATM   12 CL   UNL     1      44.998 -18.130   6.006  1.00  0.00    -0.077 Cl
HETATM   13  H   UNL     1      42.255 -19.318   2.259  1.00  0.00     0.167 HD
HETATM   14  H   UNL     1      41.411 -17.148   0.795  1.00  0.00     0.155 HD
ENDROOT
BRANCH   7  15
HETATM   15  C   UNL     1      39.888 -14.889   1.135  1.00  0.00     0.055 A 
HETATM   16  C   UNL     1      38.558 -14.701   1.546  1.00  0.00     0.034 A 
HETATM   17  C   UNL     1      37.651 -14.001   0.743  1.00  0.00     0.044 A 
HETATM   18  C   UNL     1      38.066 -13.487  -0.476  1.00  0.00     0.116 A 
HETATM   19  F   UNL     1      37.198 -12.817  -1.244  1.00  0.00    -0.206 F 
HETATM   20  C   UNL     1      39.372 -13.662  -0.911  1.00  0.00     0.044 A 
HETATM   21  C   UNL     1      40.279 -14.360  -0.107  1.00  0.00     0.034 A 
ENDBRANCH   7  15
BRANCH   1  22
HETATM   22  C   UNL     1      44.020 -20.185   3.870  1.00  0.00    -0.008 A 
HETATM   23  C   UNL     1      44.131 -20.935   2.692  1.00  0.00     0.014 A 
HETATM   24  C   UNL     1      44.627 -22.239   2.735  1.00  0.00     0.001 A 
HETATM   25  C   UNL     1      45.012 -22.799   3.952  1.00  0.00     0.000 A 
HETATM   26  C   UNL     1      44.906 -22.058   5.128  1.00  0.00     0.001 A 
HETATM   27  C   UNL     1      44.412 -20.753   5.088  1.00  0.00     0.014 A 
ENDBRANCH   1  22
TORSDOF 2
ENDMDL
MODEL 4
REMARK VINA RESULT:      -8.6      3.876      8.099
REMARK  2 active torsions:
REMARK  status: ('A' for Active; 'I' for Inactive)
REMARK    1  A    between atoms: C_4  and  C_5 
REMARK    2  A    between atoms: N_11  and  C_12 
ROOT
HETATM    1  C   UNL     1      40.747 -14.883  -0.401  1.00  0.00     0.069 A 
HETATM    2  N   UNL     1      41.027 -16.182  -0.012  1.00  0.00    -0.343 N 
HETATM    3  C   UNL     1      41.884 -16.457   1.015  1.00  0.00     0.119 A 
HETATM    4  C   UNL     1      42.431 -15.466   1.739  1.00  0.00     0.125 A 
HETATM    5  C   UNL     1      43.219 -16.104   2.806  1.00  0.00     0.280 A 
HETATM    6  O   UNL     1      43.842 -15.510   3.668  1.00  0.00    -0.265 OA
HETATM    7  N   UNL     1      43.071 -17.485   2.601  1.00  0.00    -0.236 N 
HETATM    8  N   UNL     1      42.267 -17.706   1.462  1.00  0.00    -0.179 NA
HETATM    9  C   UNL     1      42.148 -14.057   1.437  1.00  0.00     0.215 A 
HETATM   10  O   UNL     1      42.613 -13.142   2.107  1.00  0.00    -0.285 OA
HETATM   11  C   UNL     1      41.248 -13.812   0.252  1.00  0.00     0.112 A 
HETATM   12 CL   UNL     1      40.934 -12.172  -0.176  1.00  0.00    -0.077 Cl
HETATM   13  H   UNL     1      40.744 -16.940  -0.627  1.00  0.00     0.167 HD
HETATM   14  H   UNL     1      41.450 -18.280   1.669  1.00  0.00     0.155 HD
ENDROOT
BRANCH   7  15
HETATM   15  C   UNL     1      43.635 -18.568   3.307  1.00  0.00     0.055 A 
HETATM   16  C   UNL     1      43.642 -18.597   4.711  1.00  0.00     0.034 A 
HETATM   17  C   UNL     1      44.193 -19.680   5.405  1.00  0.00     0.044 A 
HETATM   18  C   UNL     1      44.743 -20.739   4.700  1.00  0.00     0.116 A 
HETATM   19  F   UNL     1      45.270 -21.776   5.363  1.00  0.00    -0.206 F 
HETATM   20  C   UNL     1      44.756 -20.737   3.312  1.00  0.00     0.044 A 
HETATM   21  C   UNL     1      44.203 -19.654   2.619  1.00  0.00     0.034 A 
ENDBRANCH   7  15
BRANCH   1  22
HETATM   22  C   UNL     1      39.867 -14.751  -1.575  1.00  0.00    -0.008 A 
HETATM   23  C   UNL     1      40.205 -15.373  -2.783  1.00  0.00     0.014 A 
HETATM   24  C   UNL     1      39.365 -15.255  -3.892  1.00  0.00     0.001 A 
HETATM   25  C   UNL     1      38.186 -14.517  -3.798  1.00  0.00     0.000 A 
HETATM   26  C   UNL     1      37.843 -13.897  -2.598  1.00  0.00     0.001 A 
HETATM   27  C   UNL     1      38.680 -14.014  -1.487  1.00  0.00     0.014 A 
ENDBRANCH   1  22
TORSDOF 2
ENDMDL
MODEL 5
REMARK VINA RESULT:      -8.4      1.924      2.317
REMARK  2 active torsions:
REMARK  status: ('A' for Active; 'I' for Inactive)
REMARK    1  A    between atoms: C_4  and  C_5 
REMARK    2  A    between atoms: N_11  and  C_12 
ROOT
HETATM    1  C   UNL     1      42.405 -18.170   3.069  1.00  0.00     0.069 A 
HETATM    2  N   UNL     1      41.870 -17.612   1.921  1.00  0.00    -0.343 N 
HETATM    3  C   UNL     1      41.039 -16.529   1.966  1.00  0.00     0.119 A 
HETATM    4  C   UNL     1      40.769 -15.917   3.131  1.00  0.00     0.125 A 
HETATM    5  C   UNL     1      39.927 -14.751   2.815  1.00  0.00     0.280 A 
HETATM    6  O   UNL     1      39.506 -13.950   3.629  1.00  0.00    -0.265 OA
HETATM    7  N   UNL     1      39.755 -14.786   1.422  1.00  0.00    -0.236 N 
HETATM    8  N   UNL     1      40.418 -15.915   0.896  1.00  0.00    -0.179 NA
HETATM    9  C   UNL     1      41.336 -16.402   4.396  1.00  0.00     0.215 A 
HETATM   10  O   UNL     1      41.127 -15.837   5.463  1.00  0.00    -0.285 OA
HETATM   11  C   UNL     1      42.193 -17.639   4.294  1.00  0.00     0.112 A 
HETATM   12 CL   UNL     1      42.833 -18.280   5.760  1.00  0.00    -0.077 Cl
HETATM   13  H   UNL     1      41.940 -18.135   1.053  1.00  0.00     0.167 HD
HETATM   14  H   UNL     1      41.100 -15.667   0.179  1.00  0.00     0.155 HD
ENDROOT
BRANCH   7  15
HETATM   15  C   UNL     1      39.011 -13.930   0.582  1.00  0.00     0.055 A 
HETATM   16  C   UNL     1      39.502 -13.534  -0.672  1.00  0.00     0.034 A 
HETATM   17  C   UNL     1      38.753 -12.695  -1.504  1.00  0.00     0.044 A 
HETATM   18  C   UNL     1      37.511 -12.242  -1.086  1.00  0.00     0.116 A 
HETATM   19  F   UNL     1      36.794 -11.439  -1.881  1.00  0.00    -0.206 F 
HETATM   20  C   UNL     1      37.002 -12.612   0.151  1.00  0.00     0.044 A 
HETATM   21  C   UNL     1      37.750 -13.453   0.982  1.00  0.00     0.034 A 
ENDBRANCH   7  15
BRANCH   1  22
HETATM   22  C   UNL     1      43.217 -19.380   2.864  1.00  0.00    -0.008 A 
HETATM   23  C   UNL     1      44.323 -19.636   3.684  1.00  0.00     0.014 A 
HETATM   24  C   UNL     1      45.086 -20.789   3.495  1.00  0.00     0.001 A 
HETATM   25  C   UNL     1      44.749 -21.690   2.486  1.00  0.00     0.000 A 
HETATM   26  C   UNL     1      43.648 -21.443   1.667  1.00  0.00     0.001 A 
HETATM   27  C   UNL     1      42.883 -20.292   1.855  1.00  0.00     0.014 A 
ENDBRANCH   1  22
TORSDOF 2
ENDMDL
MODEL 6
REMARK VINA RESULT:      -8.4      4.598      8.087
REMARK  2 active torsions:
REMARK  status: ('A' for Active; 'I' for Inactive)
REMARK    1  A    between atoms: C_4  and  C_5 
REMARK    2  A    between atoms: N_11  and  C_12 
ROOT
HETATM    1  C   UNL     1      40.804 -13.928   4.678  1.00  0.00     0.069 A 
HETATM    2  N   UNL     1      41.627 -14.997   4.985  1.00  0.00    -0.343 N 
HETATM    3  C   UNL     1      41.793 -16.047   4.127  1.00  0.00     0.119 A 
HETATM    4  C   UNL     1      41.217 -16.042   2.913  1.00  0.00     0.125 A 
HETATM    5  C   UNL     1      41.668 -17.261   2.223  1.00  0.00     0.280 A 
HETATM    6  O   UNL     1      41.359 -17.578   1.088  1.00  0.00    -0.265 OA
HETATM    7  N   UNL     1      42.503 -17.919   3.140  1.00  0.00    -0.236 N 
HETATM    8  N   UNL     1      42.553 -17.180   4.341  1.00  0.00    -0.179 NA
HETATM    9  C   UNL     1      40.372 -14.923   2.476  1.00  0.00     0.215 A 
HETATM   10  O   UNL     1      39.865 -14.887   1.362  1.00  0.00    -0.285 OA
HETATM   11  C   UNL     1      40.171 -13.824   3.489  1.00  0.00     0.112 A 
HETATM   12 CL   UNL     1      39.139 -12.517   3.043  1.00  0.00    -0.077 Cl
HETATM   13  H   UNL     1      41.955 -15.094   5.942  1.00  0.00     0.167 HD
HETATM   14  H   UNL     1      43.506 -16.930   4.604  1.00  0.00     0.155 HD
ENDROOT
BRANCH   7  15
HETATM   15  C   UNL     1      43.182 -19.150   3.021  1.00  0.00     0.055 A 
HETATM   16  C   UNL     1      44.074 -19.587   4.013  1.00  0.00     0.034 A 
HETATM   17  C   UNL     1      44.735 -20.815   3.893  1.00  0.00     0.044 A 
HETATM   18  C   UNL     1      44.510 -21.611   2.781  1.00  0.00     0.116 A 
HETATM   19  F   UNL     1      45.142 -22.786   2.666  1.00  0.00    -0.206 F 
HETATM   20  C   UNL     1      43.638 -21.202   1.782  1.00  0.00     0.044 A 
HETATM   21  C   UNL     1      42.977 -19.976   1.902  1.00  0.00     0.034 A 
ENDBRANCH   7  15
BRANCH   1  22
HETATM   22  C   UNL     1      40.665 -12.914   5.737  1.00  0.00    -0.008 A 
HETATM   23  C   UNL     1      41.684 -11.977   5.955  1.00  0.00     0.014 A 
HETATM   24  C   UNL     1      41.547 -11.011   6.953  1.00  0.00     0.001 A 
HETATM   25  C   UNL     1      40.393 -10.975   7.735  1.00  0.00     0.000 A 
HETATM   26  C   UNL     1      39.375 -11.902   7.522  1.00  0.00     0.001 A 
HETATM   27  C   UNL     1      39.509 -12.870   6.525  1.00  0.00     0.014 A 
ENDBRANCH   1  22
TORSDOF 2
ENDMDL
MODEL 7
REMARK VINA RESULT:      -8.3      5.725      7.504
REMARK  2 active torsions:
REMARK  status: ('A' for Active; 'I' for Inactive)
REMARK    1  A    between atoms: C_4  and  C_5 
REMARK    2  A    between atoms: N_11  and  C_12 
ROOT
HETATM    1  C   UNL     1      43.372 -17.777   4.037  1.00  0.00     0.069 A 
HETATM    2  N   UNL     1      44.147 -17.269   5.065  1.00  0.00    -0.343 N 
HETATM    3  C   UNL     1      43.982 -15.995   5.529  1.00  0.00     0.119 A 
HETATM    4  C   UNL     1      43.003 -15.209   5.049  1.00  0.00     0.125 A 
HETATM    5  C   UNL     1      43.050 -13.955   5.818  1.00  0.00     0.280 A 
HETATM    6  O   UNL     1      42.293 -13.013   5.668  1.00  0.00    -0.265 OA
HETATM    7  N   UNL     1      44.114 -14.113   6.720  1.00  0.00    -0.236 N 
HETATM    8  N   UNL     1      44.718 -15.371   6.516  1.00  0.00    -0.179 NA
HETATM    9  C   UNL     1      42.094 -15.681   3.997  1.00  0.00     0.215 A 
HETATM   10  O   UNL     1      41.177 -14.990   3.571  1.00  0.00    -0.285 OA
HETATM   11  C   UNL     1      42.364 -17.071   3.477  1.00  0.00     0.112 A 
HETATM   12 CL   UNL     1      41.360 -17.647   2.200  1.00  0.00    -0.077 Cl
HETATM   13  H   UNL     1      44.977 -17.784   5.342  1.00  0.00     0.167 HD
HETATM   14  H   UNL     1      44.735 -15.937   7.365  1.00  0.00     0.155 HD
ENDROOT
BRANCH   7  15
HETATM   15  C   UNL     1      44.630 -13.210   7.675  1.00  0.00     0.055 A 
HETATM   16  C   UNL     1      45.986 -12.845   7.672  1.00  0.00     0.034 A 
HETATM   17  C   UNL     1      46.488 -11.941   8.614  1.00  0.00     0.044 A 
HETATM   18  C   UNL     1      45.638 -11.399   9.568  1.00  0.00     0.116 A 
HETATM   19  F   UNL     1      46.118 -10.534  10.469  1.00  0.00    -0.206 F 
HETATM   20  C   UNL     1      44.295 -11.746   9.599  1.00  0.00     0.044 A 
HETATM   21  C   UNL     1      43.794 -12.649   8.655  1.00  0.00     0.034 A 
ENDBRANCH   7  15
BRANCH   1  22
HETATM   22  C   UNL     1      43.722 -19.137   3.595  1.00  0.00    -0.008 A 
HETATM   23  C   UNL     1      44.384 -20.013   4.464  1.00  0.00     0.014 A 
HETATM   24  C   UNL     1      44.707 -21.306   4.047  1.00  0.00     0.001 A 
HETATM   25  C   UNL     1      44.369 -21.728   2.762  1.00  0.00     0.000 A 
HETATM   26  C   UNL     1      43.707 -20.863   1.892  1.00  0.00     0.001 A 
HETATM   27  C   UNL     1      43.383 -19.570   2.307  1.00  0.00     0.014 A 
ENDBRANCH   1  22
TORSDOF 2
ENDMDL
MODEL 8
REMARK VINA RESULT:      -8.2      4.022      8.371
REMARK  2 active torsions:
REMARK  status: ('A' for Active; 'I' for Inactive)
REMARK    1  A    between atoms: C_4  and  C_5 
REMARK    2  A    between atoms: N_11  and  C_12 
ROOT
HETATM    1  C   UNL     1      40.639 -14.763   1.961  1.00  0.00     0.069 A 
HETATM    2  N   UNL     1      40.947 -16.113   1.970  1.00  0.00    -0.343 N 
HETATM    3  C   UNL     1      41.841 -16.641   2.858  1.00  0.00     0.119 A 
HETATM    4  C   UNL     1      42.400 -15.875   3.809  1.00  0.00     0.125 A 
HETATM    5  C   UNL     1      43.231 -16.764   4.638  1.00  0.00     0.280 A 
HETATM    6  O   UNL     1      43.875 -16.416   5.611  1.00  0.00    -0.265 OA
HETATM    7  N   UNL     1      43.092 -18.039   4.066  1.00  0.00    -0.236 N 
HETATM    8  N   UNL     1      42.253 -17.956   2.934  1.00  0.00    -0.179 NA
HETATM    9  C   UNL     1      42.092 -14.443   3.914  1.00  0.00     0.215 A 
HETATM   10  O   UNL     1      42.567 -13.737   4.795  1.00  0.00    -0.285 OA
HETATM   11  C   UNL     1      41.149 -13.901   2.869  1.00  0.00     0.112 A 
HETATM   12 CL   UNL     1      40.802 -12.214   2.915  1.00  0.00    -0.077 Cl
HETATM   13  H   UNL     1      40.652 -16.679   1.180  1.00  0.00     0.167 HD
HETATM   14  H   UNL     1      41.450 -18.582   2.999  1.00  0.00     0.155 HD
ENDROOT
BRANCH   7  15
HETATM   15  C   UNL     1      43.692 -19.263   4.432  1.00  0.00     0.055 A 
HETATM   16  C   UNL     1      44.312 -20.084   3.476  1.00  0.00     0.034 A 
HETATM   17  C   UNL     1      44.915 -21.290   3.848  1.00  0.00     0.044 A 
HETATM   18  C   UNL     1      44.898 -21.686   5.177  1.00  0.00     0.116 A 
HETATM   19  F   UNL     1      45.475 -22.840   5.534  1.00  0.00    -0.206 F 
HETATM   20  C   UNL     1      44.287 -20.899   6.143  1.00  0.00     0.044 A 
HETATM   21  C   UNL     1      43.686 -19.692   5.770  1.00  0.00     0.034 A 
ENDBRANCH   7  15
BRANCH   1  22
HETATM   22  C   UNL     1      39.719 -14.332   0.894  1.00  0.00    -0.008 A 
HETATM   23  C   UNL     1      40.197 -14.115  -0.404  1.00  0.00     0.014 A 
HETATM   24  C   UNL     1      39.322 -13.717  -1.416  1.00  0.00     0.001 A 
HETATM   25  C   UNL     1      37.969 -13.534  -1.136  1.00  0.00     0.000 A 
HETATM   26  C   UNL     1      37.486 -13.751   0.154  1.00  0.00     0.001 A 
HETATM   27  C   UNL     1      38.359 -14.150   1.168  1.00  0.00     0.014 A 
ENDBRANCH   1  22
TORSDOF 2
ENDMDL
MODEL 9
REMARK VINA RESULT:      -7.9      5.108      6.562
REMARK  2 active torsions:
REMARK  status: ('A' for Active; 'I' for Inactive)
REMARK    1  A    between atoms: C_4  and  C_5 
REMARK    2  A    between atoms: N_11  and  C_12 
ROOT
HETATM    1  C   UNL     1      42.181 -16.964   3.728  1.00  0.00     0.069 A 
HETATM    2  N   UNL     1      42.330 -16.124   4.818  1.00  0.00    -0.343 N 
HETATM    3  C   UNL     1      41.643 -14.948   4.919  1.00  0.00     0.119 A 
HETATM    4  C   UNL     1      40.735 -14.599   3.992  1.00  0.00     0.125 A 
HETATM    5  C   UNL     1      40.125 -13.338   4.447  1.00  0.00     0.280 A 
HETATM    6  O   UNL     1      39.244 -12.736   3.863  1.00  0.00    -0.265 OA
HETATM    7  N   UNL     1      40.768 -13.032   5.658  1.00  0.00    -0.236 N 
HETATM    8  N   UNL     1      41.740 -14.017   5.934  1.00  0.00    -0.179 NA
HETATM    9  C   UNL     1      40.467 -15.453   2.829  1.00  0.00     0.215 A 
HETATM   10  O   UNL     1      39.620 -15.167   1.992  1.00  0.00    -0.285 OA
HETATM   11  C   UNL     1      41.301 -16.707   2.735  1.00  0.00     0.112 A 
HETATM   12 CL   UNL     1      41.063 -17.713   1.356  1.00  0.00    -0.077 Cl
HETATM   13  H   UNL     1      43.106 -16.291   5.452  1.00  0.00     0.167 HD
HETATM   14  H   UNL     1      41.598 -14.458   6.843  1.00  0.00     0.155 HD
ENDROOT
BRANCH   7  15
HETATM   15  C   UNL     1      40.603 -11.920   6.511  1.00  0.00     0.055 A 
HETATM   16  C   UNL     1      39.549 -11.864   7.437  1.00  0.00     0.034 A 
HETATM   17  C   UNL     1      39.398 -10.764   8.288  1.00  0.00     0.044 A 
HETATM   18  C   UNL     1      40.299  -9.712   8.217  1.00  0.00     0.116 A 
HETATM   19  F   UNL     1      40.155  -8.659   9.031  1.00  0.00    -0.206 F 
HETATM   20  C   UNL     1      41.347  -9.737   7.308  1.00  0.00     0.044 A 
HETATM   21  C   UNL     1      41.498 -10.838   6.459  1.00  0.00     0.034 A 
ENDBRANCH   7  15
BRANCH   1  22
HETATM   22  C   UNL     1      43.048 -18.154   3.725  1.00  0.00    -0.008 A 
HETATM   23  C   UNL     1      43.513 -18.685   2.515  1.00  0.00     0.014 A 
HETATM   24  C   UNL     1      44.343 -19.808   2.515  1.00  0.00     0.001 A 
HETATM   25  C   UNL     1      44.711 -20.403   3.721  1.00  0.00     0.000 A 
HETATM   26  C   UNL     1      44.253 -19.879   4.928  1.00  0.00     0.001 A 
HETATM   27  C   UNL     1      43.424 -18.756   4.932  1.00  0.00     0.014 A 
ENDBRANCH   1  22
TORSDOF 2
ENDMDL
MODEL 10
REMARK VINA RESULT:      -7.8      4.525      8.345
REMARK  2 active torsions:
REMARK  status: ('A' for Active; 'I' for Inactive)
REMARK    1  A    between atoms: C_4  and  C_5 
REMARK    2  A    between atoms: N_11  and  C_12 
ROOT
HETATM    1  C   UNL     1      41.495 -13.768   3.797  1.00  0.00     0.069 A 
HETATM    2  N   UNL     1      41.598 -14.984   3.143  1.00  0.00    -0.343 N 
HETATM    3  C   UNL     1      42.383 -15.994   3.622  1.00  0.00     0.119 A 
HETATM    4  C   UNL     1      43.029 -15.868   4.793  1.00  0.00     0.125 A 
HETATM    5  C   UNL     1      43.699 -17.153   5.051  1.00  0.00     0.280 A 
HETATM    6  O   UNL     1      44.366 -17.411   6.036  1.00  0.00    -0.265 OA
HETATM    7  N   UNL     1      43.384 -17.962   3.947  1.00  0.00    -0.236 N 
HETATM    8  N   UNL     1      42.593 -17.228   3.038  1.00  0.00    -0.179 NA
HETATM    9  C   UNL     1      42.935 -14.636   5.586  1.00  0.00     0.215 A 
HETATM   10  O   UNL     1      43.491 -14.515   6.671  1.00  0.00    -0.285 OA
HETATM   11  C   UNL     1      42.108 -13.531   4.978  1.00  0.00     0.112 A 
HETATM   12 CL   UNL     1      42.016 -12.044   5.844  1.00  0.00    -0.077 Cl
HETATM   13  H   UNL     1      41.240 -15.053   2.195  1.00  0.00     0.167 HD
HETATM   14  H   UNL     1      41.704 -17.687   2.837  1.00  0.00     0.155 HD
ENDROOT
BRANCH   7  15
HETATM   15  C   UNL     1      43.786 -19.282   3.651  1.00  0.00     0.055 A 
HETATM   16  C   UNL     1      44.404 -20.089   4.619  1.00  0.00     0.034 A 
HETATM   17  C   UNL     1      44.789 -21.401   4.322  1.00  0.00     0.044 A 
HETATM   18  C   UNL     1      44.564 -21.913   3.053  1.00  0.00     0.116 A 
HETATM   19  F   UNL     1      44.932 -23.168   2.768  1.00  0.00    -0.206 F 
HETATM   20  C   UNL     1      43.961 -21.137   2.073  1.00  0.00     0.044 A 
HETATM   21  C   UNL     1      43.574 -19.826   2.372  1.00  0.00     0.034 A 
ENDBRANCH   7  15
BRANCH   1  22
HETATM   22  C   UNL     1      40.674 -12.753   3.116  1.00  0.00    -0.008 A 
HETATM   23  C   UNL     1      39.329 -12.584   3.465  1.00  0.00     0.014 A 
HETATM   24  C   UNL     1      38.554 -11.614   2.825  1.00  0.00     0.001 A 
HETATM   25  C   UNL     1      39.120 -10.811   1.836  1.00  0.00     0.000 A 
HETATM   26  C   UNL     1      40.460 -10.972   1.486  1.00  0.00     0.001 A 
HETATM   27  C   UNL     1      41.236 -11.940   2.124  1.00  0.00     0.014 A 
ENDBRANCH   1  22
TORSDOF 2
ENDMDL
