MODEL 1
REMARK VINA RESULT:      -7.4      0.000      0.000
REMARK  8 active torsions:
REMARK  status: ('A' for Active; 'I' for Inactive)
REMARK    1  A    between atoms: C_2  and  N_3 
REMARK    2  A    between atoms: N_7  and  C_8 
REMARK    3  A    between atoms: C_11  and  N_12 
REMARK       I    between atoms: N_12  and  C_13 
REMARK    4  A    between atoms: C_13  and  C_14 
REMARK    5  A    between atoms: C_17  and  N_18 
REMARK       I    between atoms: N_18  and  C_19 
REMARK    6  A    between atoms: C_19  and  C_20 
REMARK    7  A    between atoms: C_20  and  S_21 
REMARK    8  A    between atoms: S_21  and  C_22 
ROOT
HETATM    1  N   UNL     1      39.115 -14.393  -0.697  1.00  0.00    -0.323 N 
HETATM    2  C   UNL     1      40.451 -14.729  -0.814  1.00  0.00     0.256 C 
HETATM    3  O   UNL     1      41.213 -14.414  -1.718  1.00  0.00    -0.267 OA
HETATM    4  H   UNL     1      38.676 -14.590   0.195  1.00  0.00     0.169 HD
ENDROOT
BRANCH   2   5
HETATM    5  C   UNL     1      40.979 -15.491   0.351  1.00  0.00     0.032 A 
HETATM    6  C   UNL     1      42.200 -16.169   0.271  1.00  0.00     0.019 A 
HETATM    7  C   UNL     1      42.632 -16.961   1.339  1.00  0.00     0.030 A 
HETATM    8  C   UNL     1      41.856 -17.084   2.494  1.00  0.00     0.034 A 
HETATM    9  C   UNL     1      40.666 -16.350   2.591  1.00  0.00     0.030 A 
HETATM   10  C   UNL     1      40.228 -15.554   1.526  1.00  0.00     0.019 A 
BRANCH   8  11
HETATM   11  N   UNL     1      42.184 -17.932   3.570  1.00  0.00    -0.327 N 
HETATM   12  C   UNL     1      42.806 -17.580   4.760  1.00  0.00     0.231 C 
HETATM   13  O   UNL     1      43.078 -16.437   5.119  1.00  0.00    -0.272 OA
HETATM   14  H   UNL     1      42.070 -18.928   3.411  1.00  0.00     0.169 HD
BRANCH  12  15
HETATM   15  C   UNL     1      43.132 -18.771   5.647  1.00  0.00     0.185 C 
BRANCH  15  16
HETATM   16  S   UNL     1      44.850 -19.304   5.348  1.00  0.00    -0.083 SA
BRANCH  16  17
HETATM   17  C   UNL     1      44.602 -20.380   4.016  1.00  0.00     0.168 A 
HETATM   18  N   UNL     1      44.750 -21.738   4.116  1.00  0.00    -0.339 N 
HETATM   19  C   UNL     1      45.141 -22.497   5.278  1.00  0.00     0.158 C 
HETATM   20  C   UNL     1      44.449 -22.269   2.889  1.00  0.00     0.112 A 
HETATM   21  C   UNL     1      44.140 -21.186   2.097  1.00  0.00     0.136 A 
HETATM   22  N   UNL     1      44.247 -20.018   2.806  1.00  0.00    -0.235 NA
ENDBRANCH  16  17
ENDBRANCH  15  16
ENDBRANCH  12  15
ENDBRANCH   8  11
ENDBRANCH   2   5
BRANCH   1  23
HETATM   23  C   UNL     1      38.311 -13.727  -1.640  1.00  0.00     0.035 A 
HETATM   24  C   UNL     1      37.947 -14.260  -2.872  1.00  0.00     0.032 A 
HETATM   25  C   UNL     1      37.120 -13.538  -3.747  1.00  0.00     0.031 A 
HETATM   26  C   UNL     1      36.651 -12.255  -3.433  1.00  0.00     0.030 A 
HETATM   27  C   UNL     1      37.018 -11.746  -2.178  1.00  0.00     0.031 A 
HETATM   28  C   UNL     1      37.831 -12.465  -1.294  1.00  0.00     0.032 A 
BRANCH  26  29
HETATM   29  N   UNL     1      35.826 -11.506  -4.272  1.00  0.00    -0.378 N 
HETATM   30  C   UNL     1      35.114 -10.322  -3.763  1.00  0.00     0.150 C 
HETATM   31  C   UNL     1      33.679 -10.667  -3.316  1.00  0.00     0.254 C 
HETATM   32  N   UNL     1      32.918 -11.382  -4.443  1.00  0.00    -0.068 N 
HETATM   33  H   UNL     1      32.900 -10.733  -5.240  1.00  0.00     0.280 HD
HETATM   34  C   UNL     1      33.695 -12.628  -4.891  1.00  0.00     0.254 C 
HETATM   35  C   UNL     1      35.120 -12.241  -5.342  1.00  0.00     0.150 C 
BRANCH  32  36
HETATM   36  C   UNL     1      31.493 -11.672  -4.039  1.00  0.00     0.230 C 
HETATM   37  C   UNL     1      31.335 -11.602  -2.532  1.00  0.00     0.034 C 
ENDBRANCH  32  36
ENDBRANCH  26  29
ENDBRANCH   1  23
TORSDOF 8
ENDMDL
MODEL 2
REMARK VINA RESULT:      -7.2      1.432      2.335
REMARK  8 active torsions:
REMARK  status: ('A' for Active; 'I' for Inactive)
REMARK    1  A    between atoms: C_2  and  N_3 
REMARK    2  A    between atoms: N_7  and  C_8 
REMARK    3  A    between atoms: C_11  and  N_12 
REMARK       I    between atoms: N_12  and  C_13 
REMARK    4  A    between atoms: C_13  and  C_14 
REMARK    5  A    between atoms: C_17  and  N_18 
REMARK       I    between atoms: N_18  and  C_19 
REMARK    6  A    between atoms: C_19  and  C_20 
REMARK    7  A    between atoms: C_20  and  S_21 
REMARK    8  A    between atoms: S_21  and  C_22 
ROOT
HETATM    1  N   UNL     1      38.750 -14.338  -1.183  1.00  0.00    -0.323 N 
HETATM    2  C   UNL     1      40.130 -14.426  -1.166  1.00  0.00     0.256 C 
HETATM    3  O   UNL     1      40.911 -13.900  -1.946  1.00  0.00    -0.267 OA
HETATM    4  H   UNL     1      38.265 -14.691  -0.367  1.00  0.00     0.169 HD
ENDROOT
BRANCH   2   5
HETATM    5  C   UNL     1      40.664 -15.193  -0.007  1.00  0.00     0.032 A 
HETATM    6  C   UNL     1      41.712 -16.105  -0.172  1.00  0.00     0.019 A 
HETATM    7  C   UNL     1      42.133 -16.890   0.905  1.00  0.00     0.030 A 
HETATM    8  C   UNL     1      41.520 -16.773   2.154  1.00  0.00     0.034 A 
HETATM    9  C   UNL     1      40.515 -15.810   2.327  1.00  0.00     0.030 A 
HETATM   10  C   UNL     1      40.089 -15.021   1.253  1.00  0.00     0.019 A 
BRANCH   8  11
HETATM   11  N   UNL     1      41.831 -17.591   3.258  1.00  0.00    -0.327 N 
HETATM   12  C   UNL     1      42.712 -17.308   4.294  1.00  0.00     0.231 C 
HETATM   13  O   UNL     1      43.289 -16.239   4.475  1.00  0.00    -0.272 OA
HETATM   14  H   UNL     1      41.473 -18.540   3.232  1.00  0.00     0.169 HD
BRANCH  12  15
HETATM   15  C   UNL     1      42.913 -18.473   5.251  1.00  0.00     0.185 C 
BRANCH  15  16
HETATM   16  S   UNL     1      44.624 -19.085   5.118  1.00  0.00    -0.083 SA
BRANCH  16  17
HETATM   17  C   UNL     1      44.439 -20.213   3.820  1.00  0.00     0.168 A 
HETATM   18  N   UNL     1      44.654 -21.559   3.963  1.00  0.00    -0.339 N 
HETATM   19  C   UNL     1      45.076 -22.261   5.151  1.00  0.00     0.158 C 
HETATM   20  C   UNL     1      44.388 -22.142   2.753  1.00  0.00     0.112 A 
HETATM   21  C   UNL     1      44.029 -21.103   1.925  1.00  0.00     0.136 A 
HETATM   22  N   UNL     1      44.073 -19.908   2.598  1.00  0.00    -0.235 NA
ENDBRANCH  16  17
ENDBRANCH  15  16
ENDBRANCH  12  15
ENDBRANCH   8  11
ENDBRANCH   2   5
BRANCH   1  23
HETATM   23  C   UNL     1      37.940 -13.733  -2.162  1.00  0.00     0.035 A 
HETATM   24  C   UNL     1      37.523 -14.363  -3.329  1.00  0.00     0.032 A 
HETATM   25  C   UNL     1      36.693 -13.695  -4.244  1.00  0.00     0.031 A 
HETATM   26  C   UNL     1      36.275 -12.374  -4.037  1.00  0.00     0.030 A 
HETATM   27  C   UNL     1      36.696 -11.765  -2.845  1.00  0.00     0.031 A 
HETATM   28  C   UNL     1      37.511 -12.428  -1.920  1.00  0.00     0.032 A 
BRANCH  26  29
HETATM   29  N   UNL     1      35.450 -11.676  -4.919  1.00  0.00    -0.378 N 
HETATM   30  C   UNL     1      34.336 -12.354  -5.600  1.00  0.00     0.150 C 
HETATM   31  C   UNL     1      34.742 -12.855  -7.001  1.00  0.00     0.254 C 
HETATM   32  N   UNL     1      35.342 -11.711  -7.833  1.00  0.00    -0.068 N 
HETATM   33  H   UNL     1      34.612 -10.990  -7.907  1.00  0.00     0.280 HD
HETATM   34  C   UNL     1      36.524 -11.083  -7.082  1.00  0.00     0.254 C 
HETATM   35  C   UNL     1      36.075 -10.583  -5.692  1.00  0.00     0.150 C 
BRANCH  32  36
HETATM   36  C   UNL     1      35.689 -12.174  -9.226  1.00  0.00     0.230 C 
HETATM   37  C   UNL     1      35.403 -13.655  -9.389  1.00  0.00     0.034 C 
ENDBRANCH  32  36
ENDBRANCH  26  29
ENDBRANCH   1  23
TORSDOF 8
ENDMDL
MODEL 3
REMARK VINA RESULT:      -6.8      7.433     12.108
REMARK  8 active torsions:
REMARK  status: ('A' for Active; 'I' for Inactive)
REMARK    1  A    between atoms: C_2  and  N_3 
REMARK    2  A    between atoms: N_7  and  C_8 
REMARK    3  A    between atoms: C_11  and  N_12 
REMARK       I    between atoms: N_12  and  C_13 
REMARK    4  A    between atoms: C_13  and  C_14 
REMARK    5  A    between atoms: C_17  and  N_18 
REMARK       I    between atoms: N_18  and  C_19 
REMARK    6  A    between atoms: C_19  and  C_20 
REMARK    7  A    between atoms: C_20  and  S_21 
REMARK    8  A    between atoms: S_21  and  C_22 
ROOT
HETATM    1  N   UNL     1      40.638 -11.471   5.504  1.00  0.00    -0.323 N 
HETATM    2  C   UNL     1      41.597 -12.400   5.144  1.00  0.00     0.256 C 
HETATM    3  O   UNL     1      42.372 -12.985   5.889  1.00  0.00    -0.267 OA
HETATM    4  H   UNL     1      39.969 -11.213   4.788  1.00  0.00     0.169 HD
ENDROOT
BRANCH   2   5
HETATM    5  C   UNL     1      41.587 -12.737   3.694  1.00  0.00     0.032 A 
HETATM    6  C   UNL     1      42.372 -13.781   3.194  1.00  0.00     0.019 A 
HETATM    7  C   UNL     1      42.427 -14.019   1.818  1.00  0.00     0.030 A 
HETATM    8  C   UNL     1      41.701 -13.223   0.928  1.00  0.00     0.034 A 
HETATM    9  C   UNL     1      40.867 -12.221   1.443  1.00  0.00     0.030 A 
HETATM   10  C   UNL     1      40.806 -11.978   2.820  1.00  0.00     0.019 A 
BRANCH   8  11
HETATM   11  N   UNL     1      41.778 -13.347  -0.473  1.00  0.00    -0.327 N 
HETATM   12  C   UNL     1      42.476 -12.530  -1.353  1.00  0.00     0.231 C 
HETATM   13  O   UNL     1      43.236 -11.618  -1.038  1.00  0.00    -0.272 OA
HETATM   14  H   UNL     1      41.159 -14.027  -0.901  1.00  0.00     0.169 HD
BRANCH  12  15
HETATM   15  C   UNL     1      42.232 -12.870  -2.815  1.00  0.00     0.185 C 
BRANCH  15  16
HETATM   16  S   UNL     1      40.553 -12.346  -3.293  1.00  0.00    -0.083 SA
BRANCH  16  17
HETATM   17  C   UNL     1      39.808 -13.891  -3.514  1.00  0.00     0.168 A 
HETATM   18  N   UNL     1      38.450 -14.070  -3.532  1.00  0.00    -0.339 N 
HETATM   19  C   UNL     1      37.428 -13.067  -3.357  1.00  0.00     0.158 C 
HETATM   20  C   UNL     1      38.221 -15.402  -3.756  1.00  0.00     0.112 A 
HETATM   21  C   UNL     1      39.471 -15.969  -3.854  1.00  0.00     0.136 A 
HETATM   22  N   UNL     1      40.449 -15.022  -3.694  1.00  0.00    -0.235 NA
ENDBRANCH  16  17
ENDBRANCH  15  16
ENDBRANCH  12  15
ENDBRANCH   8  11
ENDBRANCH   2   5
BRANCH   1  23
HETATM   23  C   UNL     1      40.423 -10.907   6.775  1.00  0.00     0.035 A 
HETATM   24  C   UNL     1      39.525 -11.408   7.710  1.00  0.00     0.032 A 
HETATM   25  C   UNL     1      39.388 -10.799   8.968  1.00  0.00     0.031 A 
HETATM   26  C   UNL     1      40.124  -9.660   9.323  1.00  0.00     0.030 A 
HETATM   27  C   UNL     1      41.036  -9.183   8.369  1.00  0.00     0.031 A 
HETATM   28  C   UNL     1      41.188  -9.793   7.118  1.00  0.00     0.032 A 
BRANCH  26  29
HETATM   29  N   UNL     1      40.021  -9.027  10.561  1.00  0.00    -0.378 N 
HETATM   30  C   UNL     1      41.089  -8.135  11.040  1.00  0.00     0.150 C 
HETATM   31  C   UNL     1      42.089  -8.879  11.948  1.00  0.00     0.254 C 
HETATM   32  N   UNL     1      41.354  -9.596  13.091  1.00  0.00    -0.068 N 
HETATM   33  H   UNL     1      40.860  -8.867  13.622  1.00  0.00     0.280 HD
HETATM   34  C   UNL     1      40.288 -10.539  12.516  1.00  0.00     0.254 C 
HETATM   35  C   UNL     1      39.300  -9.757  11.624  1.00  0.00     0.150 C 
BRANCH  32  36
HETATM   36  C   UNL     1      42.327 -10.278  14.021  1.00  0.00     0.230 C 
HETATM   37  C   UNL     1      42.324  -9.615  15.386  1.00  0.00     0.034 C 
ENDBRANCH  32  36
ENDBRANCH  26  29
ENDBRANCH   1  23
TORSDOF 8
ENDMDL
MODEL 4
REMARK VINA RESULT:      -6.8      7.551     12.110
REMARK  8 active torsions:
REMARK  status: ('A' for Active; 'I' for Inactive)
REMARK    1  A    between atoms: C_2  and  N_3 
REMARK    2  A    between atoms: N_7  and  C_8 
REMARK    3  A    between atoms: C_11  and  N_12 
REMARK       I    between atoms: N_12  and  C_13 
REMARK    4  A    between atoms: C_13  and  C_14 
REMARK    5  A    between atoms: C_17  and  N_18 
REMARK       I    between atoms: N_18  and  C_19 
REMARK    6  A    between atoms: C_19  and  C_20 
REMARK    7  A    between atoms: C_20  and  S_21 
REMARK    8  A    between atoms: S_21  and  C_22 
ROOT
HETATM    1  N   UNL     1      39.977 -11.543   5.833  1.00  0.00    -0.323 N 
HETATM    2  C   UNL     1      39.022 -11.494   4.834  1.00  0.00     0.256 C 
HETATM    3  O   UNL     1      38.104 -10.692   4.731  1.00  0.00    -0.267 OA
HETATM    4  H   UNL     1      40.764 -12.160   5.675  1.00  0.00     0.169 HD
ENDROOT
BRANCH   2   5
HETATM    5  C   UNL     1      39.232 -12.502   3.758  1.00  0.00     0.032 A 
HETATM    6  C   UNL     1      39.944 -13.679   4.008  1.00  0.00     0.019 A 
HETATM    7  C   UNL     1      40.218 -14.567   2.963  1.00  0.00     0.030 A 
HETATM    8  C   UNL     1      39.783 -14.293   1.664  1.00  0.00     0.034 A 
HETATM    9  C   UNL     1      39.013 -13.144   1.436  1.00  0.00     0.030 A 
HETATM   10  C   UNL     1      38.735 -12.251   2.478  1.00  0.00     0.019 A 
BRANCH   8  11
HETATM   11  N   UNL     1      40.098 -15.094   0.549  1.00  0.00    -0.327 N 
HETATM   12  C   UNL     1      41.040 -14.831  -0.437  1.00  0.00     0.231 C 
HETATM   13  O   UNL     1      41.837 -13.897  -0.439  1.00  0.00    -0.272 OA
HETATM   14  H   UNL     1      39.488 -15.886   0.375  1.00  0.00     0.169 HD
BRANCH  12  15
HETATM   15  C   UNL     1      41.026 -15.845  -1.571  1.00  0.00     0.185 C 
BRANCH  15  16
HETATM   16  S   UNL     1      41.075 -14.973  -3.171  1.00  0.00    -0.083 SA
BRANCH  16  17
HETATM   17  C   UNL     1      39.384 -14.709  -3.420  1.00  0.00     0.168 A 
HETATM   18  N   UNL     1      38.765 -13.518  -3.147  1.00  0.00    -0.339 N 
HETATM   19  C   UNL     1      39.361 -12.321  -2.605  1.00  0.00     0.158 C 
HETATM   20  C   UNL     1      37.446 -13.659  -3.490  1.00  0.00     0.112 A 
HETATM   21  C   UNL     1      37.332 -14.951  -3.951  1.00  0.00     0.136 A 
HETATM   22  N   UNL     1      38.541 -15.596  -3.895  1.00  0.00    -0.235 NA
ENDBRANCH  16  17
ENDBRANCH  15  16
ENDBRANCH  12  15
ENDBRANCH   8  11
ENDBRANCH   2   5
BRANCH   1  23
HETATM   23  C   UNL     1      40.032 -10.768   7.006  1.00  0.00     0.035 A 
HETATM   24  C   UNL     1      40.627  -9.514   7.087  1.00  0.00     0.032 A 
HETATM   25  C   UNL     1      40.617  -8.794   8.293  1.00  0.00     0.031 A 
HETATM   26  C   UNL     1      40.036  -9.311   9.458  1.00  0.00     0.030 A 
HETATM   27  C   UNL     1      39.428 -10.571   9.348  1.00  0.00     0.031 A 
HETATM   28  C   UNL     1      39.421 -11.289   8.146  1.00  0.00     0.032 A 
BRANCH  26  29
HETATM   29  N   UNL     1      40.003  -8.629  10.674  1.00  0.00    -0.378 N 
HETATM   30  C   UNL     1      41.029  -7.625  11.001  1.00  0.00     0.150 C 
HETATM   31  C   UNL     1      42.180  -8.234  11.827  1.00  0.00     0.254 C 
HETATM   32  N   UNL     1      41.634  -8.955  13.069  1.00  0.00    -0.068 N 
HETATM   33  H   UNL     1      41.132  -8.246  13.620  1.00  0.00     0.280 HD
HETATM   34  C   UNL     1      40.606 -10.014  12.649  1.00  0.00     0.254 C 
HETATM   35  C   UNL     1      39.464  -9.365  11.836  1.00  0.00     0.150 C 
BRANCH  32  36
HETATM   36  C   UNL     1      42.755  -9.503  13.917  1.00  0.00     0.230 C 
HETATM   37  C   UNL     1      42.263  -9.836  15.313  1.00  0.00     0.034 C 
ENDBRANCH  32  36
ENDBRANCH  26  29
ENDBRANCH   1  23
TORSDOF 8
ENDMDL
MODEL 5
REMARK VINA RESULT:      -6.8      6.794     11.772
REMARK  8 active torsions:
REMARK  status: ('A' for Active; 'I' for Inactive)
REMARK    1  A    between atoms: C_2  and  N_3 
REMARK    2  A    between atoms: N_7  and  C_8 
REMARK    3  A    between atoms: C_11  and  N_12 
REMARK       I    between atoms: N_12  and  C_13 
REMARK    4  A    between atoms: C_13  and  C_14 
REMARK    5  A    between atoms: C_17  and  N_18 
REMARK       I    between atoms: N_18  and  C_19 
REMARK    6  A    between atoms: C_19  and  C_20 
REMARK    7  A    between atoms: C_20  and  S_21 
REMARK    8  A    between atoms: S_21  and  C_22 
ROOT
HETATM    1  N   UNL     1      40.444 -12.689   5.379  1.00  0.00    -0.323 N 
HETATM    2  C   UNL     1      41.051 -13.921   5.220  1.00  0.00     0.256 C 
HETATM    3  O   UNL     1      41.622 -14.578   6.081  1.00  0.00    -0.267 OA
HETATM    4  H   UNL     1      39.872 -12.365   4.609  1.00  0.00     0.169 HD
ENDROOT
BRANCH   2   5
HETATM    5  C   UNL     1      40.895 -14.492   3.854  1.00  0.00     0.032 A 
HETATM    6  C   UNL     1      41.901 -15.281   3.286  1.00  0.00     0.019 A 
HETATM    7  C   UNL     1      41.781 -15.724   1.966  1.00  0.00     0.030 A 
HETATM    8  C   UNL     1      40.661 -15.390   1.201  1.00  0.00     0.034 A 
HETATM    9  C   UNL     1      39.628 -14.655   1.799  1.00  0.00     0.030 A 
HETATM   10  C   UNL     1      39.740 -14.208   3.121  1.00  0.00     0.019 A 
BRANCH   8  11
HETATM   11  N   UNL     1      40.515 -15.726  -0.159  1.00  0.00    -0.327 N 
HETATM   12  C   UNL     1      41.132 -15.120  -1.246  1.00  0.00     0.231 C 
HETATM   13  O   UNL     1      42.000 -14.252  -1.189  1.00  0.00    -0.272 OA
HETATM   14  H   UNL     1      39.787 -16.396  -0.384  1.00  0.00     0.169 HD
BRANCH  12  15
HETATM   15  C   UNL     1      40.644 -15.645  -2.587  1.00  0.00     0.185 C 
BRANCH  15  16
HETATM   16  S   UNL     1      39.895 -14.283  -3.540  1.00  0.00    -0.083 SA
BRANCH  16  17
HETATM   17  C   UNL     1      39.049 -13.462  -2.276  1.00  0.00     0.168 A 
HETATM   18  N   UNL     1      39.350 -12.185  -1.881  1.00  0.00    -0.339 N 
HETATM   19  C   UNL     1      40.389 -11.328  -2.397  1.00  0.00     0.158 C 
HETATM   20  C   UNL     1      38.467 -11.849  -0.889  1.00  0.00     0.112 A 
HETATM   21  C   UNL     1      37.672 -12.961  -0.726  1.00  0.00     0.136 A 
HETATM   22  N   UNL     1      38.048 -13.959  -1.587  1.00  0.00    -0.235 NA
ENDBRANCH  16  17
ENDBRANCH  15  16
ENDBRANCH  12  15
ENDBRANCH   8  11
ENDBRANCH   2   5
BRANCH   1  23
HETATM   23  C   UNL     1      40.454 -11.868   6.522  1.00  0.00     0.035 A 
HETATM   24  C   UNL     1      41.440 -10.927   6.798  1.00  0.00     0.032 A 
HETATM   25  C   UNL     1      41.362 -10.128   7.951  1.00  0.00     0.031 A 
HETATM   26  C   UNL     1      40.315 -10.259   8.873  1.00  0.00     0.030 A 
HETATM   27  C   UNL     1      39.324 -11.204   8.563  1.00  0.00     0.031 A 
HETATM   28  C   UNL     1      39.387 -11.994   7.409  1.00  0.00     0.032 A 
BRANCH  26  29
HETATM   29  N   UNL     1      40.199  -9.485  10.027  1.00  0.00    -0.378 N 
HETATM   30  C   UNL     1      41.296  -8.602  10.453  1.00  0.00     0.150 C 
HETATM   31  C   UNL     1      42.216  -9.290  11.482  1.00  0.00     0.254 C 
HETATM   32  N   UNL     1      41.396  -9.833  12.663  1.00  0.00    -0.068 N 
HETATM   33  H   UNL     1      40.924  -9.024  13.087  1.00  0.00     0.280 HD
HETATM   34  C   UNL     1      40.302 -10.779  12.148  1.00  0.00     0.254 C 
HETATM   35  C   UNL     1      39.396 -10.052  11.131  1.00  0.00     0.150 C 
BRANCH  32  36
HETATM   36  C   UNL     1      42.291 -10.455  13.706  1.00  0.00     0.230 C 
HETATM   37  C   UNL     1      42.952  -9.387  14.557  1.00  0.00     0.034 C 
ENDBRANCH  32  36
ENDBRANCH  26  29
ENDBRANCH   1  23
TORSDOF 8
ENDMDL
MODEL 6
REMARK VINA RESULT:      -6.7      2.081      3.355
REMARK  8 active torsions:
REMARK  status: ('A' for Active; 'I' for Inactive)
REMARK    1  A    between atoms: C_2  and  N_3 
REMARK    2  A    between atoms: N_7  and  C_8 
REMARK    3  A    between atoms: C_11  and  N_12 
REMARK       I    between atoms: N_12  and  C_13 
REMARK    4  A    between atoms: C_13  and  C_14 
REMARK    5  A    between atoms: C_17  and  N_18 
REMARK       I    between atoms: N_18  and  C_19 
REMARK    6  A    between atoms: C_19  and  C_20 
REMARK    7  A    between atoms: C_20  and  S_21 
REMARK    8  A    between atoms: S_21  and  C_22 
ROOT
HETATM    1  N   UNL     1      39.343 -14.432  -1.184  1.00  0.00    -0.323 N 
HETATM    2  C   UNL     1      40.690 -14.703  -1.347  1.00  0.00     0.256 C 
HETATM    3  O   UNL     1      41.368 -14.493  -2.342  1.00  0.00    -0.267 OA
HETATM    4  H   UNL     1      38.978 -14.509  -0.243  1.00  0.00     0.169 HD
ENDROOT
BRANCH   2   5
HETATM    5  C   UNL     1      41.343 -15.237  -0.120  1.00  0.00     0.032 A 
HETATM    6  C   UNL     1      41.606 -14.404   0.973  1.00  0.00     0.019 A 
HETATM    7  C   UNL     1      42.310 -14.897   2.076  1.00  0.00     0.030 A 
HETATM    8  C   UNL     1      42.754 -16.222   2.103  1.00  0.00     0.034 A 
HETATM    9  C   UNL     1      42.429 -17.066   1.032  1.00  0.00     0.030 A 
HETATM   10  C   UNL     1      41.724 -16.580  -0.075  1.00  0.00     0.019 A 
BRANCH   8  11
HETATM   11  N   UNL     1      43.544 -16.760   3.137  1.00  0.00    -0.327 N 
HETATM   12  C   UNL     1      43.195 -17.773   4.022  1.00  0.00     0.231 C 
HETATM   13  O   UNL     1      42.168 -18.446   3.976  1.00  0.00    -0.272 OA
HETATM   14  H   UNL     1      44.411 -16.276   3.344  1.00  0.00     0.169 HD
BRANCH  12  15
HETATM   15  C   UNL     1      44.236 -18.016   5.103  1.00  0.00     0.185 C 
BRANCH  15  16
HETATM   16  S   UNL     1      43.638 -17.348   6.690  1.00  0.00    -0.083 SA
BRANCH  16  17
HETATM   17  C   UNL     1      43.121 -15.778   6.179  1.00  0.00     0.168 A 
HETATM   18  N   UNL     1      41.802 -15.431   6.049  1.00  0.00    -0.339 N 
HETATM   19  C   UNL     1      40.647 -16.265   6.277  1.00  0.00     0.158 C 
HETATM   20  C   UNL     1      41.766 -14.118   5.660  1.00  0.00     0.112 A 
HETATM   21  C   UNL     1      43.085 -13.736   5.564  1.00  0.00     0.136 A 
HETATM   22  N   UNL     1      43.917 -14.779   5.881  1.00  0.00    -0.235 NA
ENDBRANCH  16  17
ENDBRANCH  15  16
ENDBRANCH  12  15
ENDBRANCH   8  11
ENDBRANCH   2   5
BRANCH   1  23
HETATM   23  C   UNL     1      38.436 -13.974  -2.157  1.00  0.00     0.035 A 
HETATM   24  C   UNL     1      37.807 -14.795  -3.086  1.00  0.00     0.032 A 
HETATM   25  C   UNL     1      36.893 -14.261  -4.009  1.00  0.00     0.031 A 
HETATM   26  C   UNL     1      36.599 -12.891  -4.051  1.00  0.00     0.030 A 
HETATM   27  C   UNL     1      37.234 -12.086  -3.094  1.00  0.00     0.031 A 
HETATM   28  C   UNL     1      38.135 -12.613  -2.160  1.00  0.00     0.032 A 
BRANCH  26  29
HETATM   29  N   UNL     1      35.698 -12.321  -4.950  1.00  0.00    -0.378 N 
HETATM   30  C   UNL     1      35.555 -10.859  -5.044  1.00  0.00     0.150 C 
HETATM   31  C   UNL     1      34.398 -10.341  -4.166  1.00  0.00     0.254 C 
HETATM   32  N   UNL     1      33.095 -11.089  -4.489  1.00  0.00    -0.068 N 
HETATM   33  H   UNL     1      32.898 -10.915  -5.483  1.00  0.00     0.280 HD
HETATM   34  C   UNL     1      33.307 -12.601  -4.327  1.00  0.00     0.254 C 
HETATM   35  C   UNL     1      34.463 -13.083  -5.229  1.00  0.00     0.150 C 
BRANCH  32  36
HETATM   36  C   UNL     1      31.942 -10.550  -3.679  1.00  0.00     0.230 C 
HETATM   37  C   UNL     1      31.450 -11.586  -2.686  1.00  0.00     0.034 C 
ENDBRANCH  32  36
ENDBRANCH  26  29
ENDBRANCH   1  23
TORSDOF 8
ENDMDL
MODEL 7
REMARK VINA RESULT:      -6.7      3.896     12.413
REMARK  8 active torsions:
REMARK  status: ('A' for Active; 'I' for Inactive)
REMARK    1  A    between atoms: C_2  and  N_3 
REMARK    2  A    between atoms: N_7  and  C_8 
REMARK    3  A    between atoms: C_11  and  N_12 
REMARK       I    between atoms: N_12  and  C_13 
REMARK    4  A    between atoms: C_13  and  C_14 
REMARK    5  A    between atoms: C_17  and  N_18 
REMARK       I    between atoms: N_18  and  C_19 
REMARK    6  A    between atoms: C_19  and  C_20 
REMARK    7  A    between atoms: C_20  and  S_21 
REMARK    8  A    between atoms: S_21  and  C_22 
ROOT
HETATM    1  N   UNL     1      39.194 -14.761   0.595  1.00  0.00    -0.323 N 
HETATM    2  C   UNL     1      39.761 -14.027  -0.431  1.00  0.00     0.256 C 
HETATM    3  O   UNL     1      40.900 -13.581  -0.474  1.00  0.00    -0.267 OA
HETATM    4  H   UNL     1      38.301 -15.198   0.397  1.00  0.00     0.169 HD
ENDROOT
BRANCH   2   5
HETATM    5  C   UNL     1      38.868 -13.860  -1.610  1.00  0.00     0.032 A 
HETATM    6  C   UNL     1      38.863 -14.800  -2.646  1.00  0.00     0.019 A 
HETATM    7  C   UNL     1      38.093 -14.576  -3.791  1.00  0.00     0.030 A 
HETATM    8  C   UNL     1      37.320 -13.419  -3.914  1.00  0.00     0.034 A 
HETATM    9  C   UNL     1      37.280 -12.514  -2.844  1.00  0.00     0.030 A 
HETATM   10  C   UNL     1      38.048 -12.733  -1.694  1.00  0.00     0.019 A 
BRANCH   8  11
HETATM   11  N   UNL     1      36.592 -13.085  -5.073  1.00  0.00    -0.327 N 
HETATM   12  C   UNL     1      35.486 -13.746  -5.591  1.00  0.00     0.231 C 
HETATM   13  O   UNL     1      34.889 -14.678  -5.058  1.00  0.00    -0.272 OA
HETATM   14  H   UNL     1      36.989 -12.362  -5.664  1.00  0.00     0.169 HD
BRANCH  12  15
HETATM   15  C   UNL     1      35.028 -13.196  -6.933  1.00  0.00     0.185 C 
BRANCH  15  16
HETATM   16  S   UNL     1      34.660 -11.418  -6.773  1.00  0.00    -0.083 SA
BRANCH  16  17
HETATM   17  C   UNL     1      33.595 -11.454  -5.411  1.00  0.00     0.168 A 
HETATM   18  N   UNL     1      33.840 -10.763  -4.253  1.00  0.00    -0.339 N 
HETATM   19  C   UNL     1      34.980  -9.935  -3.947  1.00  0.00     0.158 C 
HETATM   20  C   UNL     1      32.783 -10.997  -3.412  1.00  0.00     0.112 A 
HETATM   21  C   UNL     1      31.947 -11.836  -4.112  1.00  0.00     0.136 A 
HETATM   22  N   UNL     1      32.466 -12.119  -5.349  1.00  0.00    -0.235 NA
ENDBRANCH  16  17
ENDBRANCH  15  16
ENDBRANCH  12  15
ENDBRANCH   8  11
ENDBRANCH   2   5
BRANCH   1  23
HETATM   23  C   UNL     1      39.750 -15.050   1.854  1.00  0.00     0.035 A 
HETATM   24  C   UNL     1      40.466 -16.206   2.145  1.00  0.00     0.032 A 
HETATM   25  C   UNL     1      41.011 -16.407   3.423  1.00  0.00     0.031 A 
HETATM   26  C   UNL     1      40.840 -15.475   4.456  1.00  0.00     0.030 A 
HETATM   27  C   UNL     1      40.128 -14.309   4.133  1.00  0.00     0.031 A 
HETATM   28  C   UNL     1      39.594 -14.095   2.857  1.00  0.00     0.032 A 
BRANCH  26  29
HETATM   29  N   UNL     1      41.366 -15.634   5.737  1.00  0.00    -0.378 N 
HETATM   30  C   UNL     1      42.578 -14.907   6.147  1.00  0.00     0.150 C 
HETATM   31  C   UNL     1      43.849 -15.757   5.948  1.00  0.00     0.254 C 
HETATM   32  N   UNL     1      43.706 -17.118   6.648  1.00  0.00    -0.068 N 
HETATM   33  H   UNL     1      43.559 -16.918   7.646  1.00  0.00     0.280 HD
HETATM   34  C   UNL     1      42.449 -17.836   6.139  1.00  0.00     0.254 C 
HETATM   35  C   UNL     1      41.198 -16.960   6.366  1.00  0.00     0.150 C 
BRANCH  32  36
HETATM   36  C   UNL     1      44.966 -17.935   6.511  1.00  0.00     0.230 C 
HETATM   37  C   UNL     1      44.862 -18.898   5.343  1.00  0.00     0.034 C 
ENDBRANCH  32  36
ENDBRANCH  26  29
ENDBRANCH   1  23
TORSDOF 8
ENDMDL
MODEL 8
REMARK VINA RESULT:      -6.7      1.640      2.079
REMARK  8 active torsions:
REMARK  status: ('A' for Active; 'I' for Inactive)
REMARK    1  A    between atoms: C_2  and  N_3 
REMARK    2  A    between atoms: N_7  and  C_8 
REMARK    3  A    between atoms: C_11  and  N_12 
REMARK       I    between atoms: N_12  and  C_13 
REMARK    4  A    between atoms: C_13  and  C_14 
REMARK    5  A    between atoms: C_17  and  N_18 
REMARK       I    between atoms: N_18  and  C_19 
REMARK    6  A    between atoms: C_19  and  C_20 
REMARK    7  A    between atoms: C_20  and  S_21 
REMARK    8  A    between atoms: S_21  and  C_22 
ROOT
HETATM    1  N   UNL     1      39.294 -14.442  -1.354  1.00  0.00    -0.323 N 
HETATM    2  C   UNL     1      40.625 -14.763  -1.550  1.00  0.00     0.256 C 
HETATM    3  O   UNL     1      41.248 -14.709  -2.601  1.00  0.00    -0.267 OA
HETATM    4  H   UNL     1      38.982 -14.378  -0.392  1.00  0.00     0.169 HD
ENDROOT
BRANCH   2   5
HETATM    5  C   UNL     1      41.340 -15.134  -0.298  1.00  0.00     0.032 A 
HETATM    6  C   UNL     1      41.591 -16.474   0.015  1.00  0.00     0.019 A 
HETATM    7  C   UNL     1      42.173 -16.810   1.240  1.00  0.00     0.030 A 
HETATM    8  C   UNL     1      42.513 -15.818   2.163  1.00  0.00     0.034 A 
HETATM    9  C   UNL     1      42.317 -14.475   1.815  1.00  0.00     0.030 A 
HETATM   10  C   UNL     1      41.736 -14.131   0.589  1.00  0.00     0.019 A 
BRANCH   8  11
HETATM   11  N   UNL     1      43.018 -16.088   3.450  1.00  0.00    -0.327 N 
HETATM   12  C   UNL     1      42.309 -16.113   4.644  1.00  0.00     0.231 C 
HETATM   13  O   UNL     1      41.091 -16.007   4.760  1.00  0.00    -0.272 OA
HETATM   14  H   UNL     1      44.027 -16.146   3.536  1.00  0.00     0.169 HD
BRANCH  12  15
HETATM   15  C   UNL     1      43.193 -16.304   5.867  1.00  0.00     0.185 C 
BRANCH  15  16
HETATM   16  S   UNL     1      42.748 -17.860   6.705  1.00  0.00    -0.083 SA
BRANCH  16  17
HETATM   17  C   UNL     1      43.672 -18.981   5.766  1.00  0.00     0.168 A 
HETATM   18  N   UNL     1      43.955 -20.254   6.187  1.00  0.00    -0.339 N 
HETATM   19  C   UNL     1      43.579 -20.871   7.435  1.00  0.00     0.158 C 
HETATM   20  C   UNL     1      44.671 -20.861   5.189  1.00  0.00     0.112 A 
HETATM   21  C   UNL     1      44.794 -19.905   4.205  1.00  0.00     0.136 A 
HETATM   22  N   UNL     1      44.177 -18.740   4.579  1.00  0.00    -0.235 NA
ENDBRANCH  16  17
ENDBRANCH  15  16
ENDBRANCH  12  15
ENDBRANCH   8  11
ENDBRANCH   2   5
BRANCH   1  23
HETATM   23  C   UNL     1      38.339 -14.103  -2.330  1.00  0.00     0.035 A 
HETATM   24  C   UNL     1      37.803 -15.005  -3.243  1.00  0.00     0.032 A 
HETATM   25  C   UNL     1      36.834 -14.591  -4.171  1.00  0.00     0.031 A 
HETATM   26  C   UNL     1      36.389 -13.263  -4.235  1.00  0.00     0.030 A 
HETATM   27  C   UNL     1      36.933 -12.376  -3.293  1.00  0.00     0.031 A 
HETATM   28  C   UNL     1      37.889 -12.784  -2.355  1.00  0.00     0.032 A 
BRANCH  26  29
HETATM   29  N   UNL     1      35.428 -12.812  -5.139  1.00  0.00    -0.378 N 
HETATM   30  C   UNL     1      35.766 -11.797  -6.149  1.00  0.00     0.150 C 
HETATM   31  C   UNL     1      35.412 -10.374  -5.671  1.00  0.00     0.254 C 
HETATM   32  N   UNL     1      33.944 -10.303  -5.222  1.00  0.00    -0.068 N 
HETATM   33  H   UNL     1      33.377 -10.558  -6.041  1.00  0.00     0.280 HD
HETATM   34  C   UNL     1      33.677 -11.357  -4.138  1.00  0.00     0.254 C 
HETATM   35  C   UNL     1      34.031 -12.767  -4.659  1.00  0.00     0.150 C 
BRANCH  32  36
HETATM   36  C   UNL     1      33.569  -8.901  -4.808  1.00  0.00     0.230 C 
HETATM   37  C   UNL     1      33.971  -8.638  -3.368  1.00  0.00     0.034 C 
ENDBRANCH  32  36
ENDBRANCH  26  29
ENDBRANCH   1  23
TORSDOF 8
ENDMDL
MODEL 9
REMARK VINA RESULT:      -6.6      7.317     10.347
REMARK  8 active torsions:
REMARK  status: ('A' for Active; 'I' for Inactive)
REMARK    1  A    between atoms: C_2  and  N_3 
REMARK    2  A    between atoms: N_7  and  C_8 
REMARK    3  A    between atoms: C_11  and  N_12 
REMARK       I    between atoms: N_12  and  C_13 
REMARK    4  A    between atoms: C_13  and  C_14 
REMARK    5  A    between atoms: C_17  and  N_18 
REMARK       I    between atoms: N_18  and  C_19 
REMARK    6  A    between atoms: C_19  and  C_20 
REMARK    7  A    between atoms: C_20  and  S_21 
REMARK    8  A    between atoms: S_21  and  C_22 
ROOT
HETATM    1  N   UNL     1      40.830 -12.648   6.470  1.00  0.00    -0.323 N 
HETATM    2  C   UNL     1      40.737 -12.674   5.090  1.00  0.00     0.256 C 
HETATM    3  O   UNL     1      40.418 -11.749   4.356  1.00  0.00    -0.267 OA
HETATM    4  H   UNL     1      41.272 -13.447   6.907  1.00  0.00     0.169 HD
ENDROOT
BRANCH   2   5
HETATM    5  C   UNL     1      41.154 -13.970   4.488  1.00  0.00     0.032 A 
HETATM    6  C   UNL     1      40.286 -14.691   3.662  1.00  0.00     0.019 A 
HETATM    7  C   UNL     1      40.656 -15.953   3.188  1.00  0.00     0.030 A 
HETATM    8  C   UNL     1      41.893 -16.506   3.528  1.00  0.00     0.034 A 
HETATM    9  C   UNL     1      42.783 -15.749   4.302  1.00  0.00     0.030 A 
HETATM   10  C   UNL     1      42.420 -14.485   4.780  1.00  0.00     0.019 A 
BRANCH   8  11
HETATM   11  N   UNL     1      42.295 -17.806   3.161  1.00  0.00    -0.327 N 
HETATM   12  C   UNL     1      43.347 -18.156   2.325  1.00  0.00     0.231 C 
HETATM   13  O   UNL     1      44.175 -17.384   1.847  1.00  0.00    -0.272 OA
HETATM   14  H   UNL     1      41.678 -18.563   3.433  1.00  0.00     0.169 HD
BRANCH  12  15
HETATM   15  C   UNL     1      43.416 -19.648   2.035  1.00  0.00     0.185 C 
BRANCH  15  16
HETATM   16  S   UNL     1      44.908 -20.352   2.810  1.00  0.00    -0.083 SA
BRANCH  16  17
HETATM   17  C   UNL     1      44.469 -20.222   4.478  1.00  0.00     0.168 A 
HETATM   18  N   UNL     1      44.491 -21.285   5.342  1.00  0.00    -0.339 N 
HETATM   19  C   UNL     1      44.842 -22.652   5.045  1.00  0.00     0.158 C 
HETATM   20  C   UNL     1      44.117 -20.814   6.573  1.00  0.00     0.112 A 
HETATM   21  C   UNL     1      43.875 -19.473   6.384  1.00  0.00     0.136 A 
HETATM   22  N   UNL     1      44.090 -19.118   5.077  1.00  0.00    -0.235 NA
ENDBRANCH  16  17
ENDBRANCH  15  16
ENDBRANCH  12  15
ENDBRANCH   8  11
ENDBRANCH   2   5
BRANCH   1  23
HETATM   23  C   UNL     1      40.464 -11.601   7.335  1.00  0.00     0.035 A 
HETATM   24  C   UNL     1      41.040 -10.335   7.317  1.00  0.00     0.032 A 
HETATM   25  C   UNL     1      40.598  -9.336   8.200  1.00  0.00     0.031 A 
HETATM   26  C   UNL     1      39.589  -9.575   9.142  1.00  0.00     0.030 A 
HETATM   27  C   UNL     1      39.012 -10.854   9.130  1.00  0.00     0.031 A 
HETATM   28  C   UNL     1      39.436 -11.851   8.243  1.00  0.00     0.032 A 
BRANCH  26  29
HETATM   29  N   UNL     1      39.120  -8.611  10.035  1.00  0.00    -0.378 N 
HETATM   30  C   UNL     1      39.781  -7.300  10.140  1.00  0.00     0.150 C 
HETATM   31  C   UNL     1      40.823  -7.276  11.277  1.00  0.00     0.254 C 
HETATM   32  N   UNL     1      40.191  -7.733  12.601  1.00  0.00    -0.068 N 
HETATM   33  H   UNL     1      39.425  -7.076  12.800  1.00  0.00     0.280 HD
HETATM   34  C   UNL     1      39.562  -9.123  12.428  1.00  0.00     0.254 C 
HETATM   35  C   UNL     1      38.517  -9.103  11.290  1.00  0.00     0.150 C 
BRANCH  32  36
HETATM   36  C   UNL     1      41.184  -7.656  13.734  1.00  0.00     0.230 C 
HETATM   37  C   UNL     1      40.878  -8.699  14.792  1.00  0.00     0.034 C 
ENDBRANCH  32  36
ENDBRANCH  26  29
ENDBRANCH   1  23
TORSDOF 8
ENDMDL
MODEL 10
REMARK VINA RESULT:      -6.6      7.278     11.929
REMARK  8 active torsions:
REMARK  status: ('A' for Active; 'I' for Inactive)
REMARK    1  A    between atoms: C_2  and  N_3 
REMARK    2  A    between atoms: N_7  and  C_8 
REMARK    3  A    between atoms: C_11  and  N_12 
REMARK       I    between atoms: N_12  and  C_13 
REMARK    4  A    between atoms: C_13  and  C_14 
REMARK    5  A    between atoms: C_17  and  N_18 
REMARK       I    between atoms: N_18  and  C_19 
REMARK    6  A    between atoms: C_19  and  C_20 
REMARK    7  A    between atoms: C_20  and  S_21 
REMARK    8  A    between atoms: S_21  and  C_22 
ROOT
HETATM    1  N   UNL     1      41.173 -11.784   5.434  1.00  0.00    -0.323 N 
HETATM    2  C   UNL     1      42.053 -12.828   5.216  1.00  0.00     0.256 C 
HETATM    3  O   UNL     1      42.713 -13.422   6.057  1.00  0.00    -0.267 OA
HETATM    4  H   UNL     1      40.582 -11.521   4.655  1.00  0.00     0.169 HD
ENDROOT
BRANCH   2   5
HETATM    5  C   UNL     1      42.102 -13.280   3.799  1.00  0.00     0.032 A 
HETATM    6  C   UNL     1      41.986 -12.364   2.748  1.00  0.00     0.019 A 
HETATM    7  C   UNL     1      41.933 -12.817   1.427  1.00  0.00     0.030 A 
HETATM    8  C   UNL     1      41.999 -14.182   1.139  1.00  0.00     0.034 A 
HETATM    9  C   UNL     1      42.182 -15.088   2.193  1.00  0.00     0.030 A 
HETATM   10  C   UNL     1      42.236 -14.642   3.518  1.00  0.00     0.019 A 
BRANCH   8  11
HETATM   11  N   UNL     1      41.863 -14.715  -0.158  1.00  0.00    -0.327 N 
HETATM   12  C   UNL     1      40.686 -14.903  -0.871  1.00  0.00     0.231 C 
HETATM   13  O   UNL     1      39.567 -14.531  -0.524  1.00  0.00    -0.272 OA
HETATM   14  H   UNL     1      42.696 -15.122  -0.570  1.00  0.00     0.169 HD
BRANCH  12  15
HETATM   15  C   UNL     1      40.889 -15.628  -2.192  1.00  0.00     0.185 C 
BRANCH  15  16
HETATM   16  S   UNL     1      40.495 -14.506  -3.573  1.00  0.00    -0.083 SA
BRANCH  16  17
HETATM   17  C   UNL     1      41.315 -13.078  -3.043  1.00  0.00     0.168 A 
HETATM   18  N   UNL     1      40.668 -11.898  -2.782  1.00  0.00    -0.339 N 
HETATM   19  C   UNL     1      39.259 -11.621  -2.913  1.00  0.00     0.158 C 
HETATM   20  C   UNL     1      41.615 -11.003  -2.359  1.00  0.00     0.112 A 
HETATM   21  C   UNL     1      42.804 -11.696  -2.396  1.00  0.00     0.136 A 
HETATM   22  N   UNL     1      42.606 -12.981  -2.830  1.00  0.00    -0.235 NA
ENDBRANCH  16  17
ENDBRANCH  15  16
ENDBRANCH  12  15
ENDBRANCH   8  11
ENDBRANCH   2   5
BRANCH   1  23
HETATM   23  C   UNL     1      40.936 -11.098   6.640  1.00  0.00     0.035 A 
HETATM   24  C   UNL     1      41.697 -10.026   7.091  1.00  0.00     0.032 A 
HETATM   25  C   UNL     1      41.377  -9.380   8.297  1.00  0.00     0.031 A 
HETATM   26  C   UNL     1      40.307  -9.797   9.099  1.00  0.00     0.030 A 
HETATM   27  C   UNL     1      39.544 -10.871   8.614  1.00  0.00     0.031 A 
HETATM   28  C   UNL     1      39.847 -11.512   7.407  1.00  0.00     0.032 A 
BRANCH  26  29
HETATM   29  N   UNL     1      39.954  -9.183  10.300  1.00  0.00    -0.378 N 
HETATM   30  C   UNL     1      40.846  -8.195  10.928  1.00  0.00     0.150 C 
HETATM   31  C   UNL     1      41.761  -8.844  11.987  1.00  0.00     0.254 C 
HETATM   32  N   UNL     1      40.931  -9.634  13.011  1.00  0.00    -0.068 N 
HETATM   33  H   UNL     1      40.293  -8.957  13.452  1.00  0.00     0.280 HD
HETATM   34  C   UNL     1      40.061 -10.672  12.289  1.00  0.00     0.254 C 
HETATM   35  C   UNL     1      39.152  -9.983  11.248  1.00  0.00     0.150 C 
BRANCH  32  36
HETATM   36  C   UNL     1      41.809 -10.224  14.086  1.00  0.00     0.230 C 
HETATM   37  C   UNL     1      43.025  -9.349  14.330  1.00  0.00     0.034 C 
ENDBRANCH  32  36
ENDBRANCH  26  29
ENDBRANCH   1  23
TORSDOF 8
ENDMDL
