MODEL 1
REMARK VINA RESULT:      -8.7      0.000      0.000
REMARK  10 active torsions:
REMARK  status: ('A' for Active; 'I' for Inactive)
REMARK    1  A    between atoms: C_2  and  C_3 
REMARK    2  A    between atoms: C_3  and  C_4 
REMARK    3  A    between atoms: C_4  and  O_5 
REMARK    4  A    between atoms: O_5  and  C_6 
REMARK    5  A    between atoms: C_9  and  C_10 
REMARK       I    between atoms: C_10  and  N_11 
REMARK    6  A    between atoms: N_11  and  C_12 
REMARK    7  A    between atoms: C_12  and  N_13 
REMARK    8  A    between atoms: N_13  and  C_14 
REMARK    9  A    between atoms: C_16  and  C_17 
REMARK   10  A    between atoms: C_27  and  O_28 
ROOT
HETATM    1  N   UNL     1      41.838 -11.998   3.092  1.00  0.00    -0.333 N 
HETATM    2  H   UNL     1      42.739 -11.570   3.294  1.00  0.00     0.168 HD
ENDROOT
BRANCH   1   3
HETATM    3  C   UNL     1      41.053 -11.180   2.327  1.00  0.00     0.179 C 
HETATM    4  S   UNL     1      40.397  -9.837   3.085  1.00  0.00    -0.040 SA
BRANCH   3   5
HETATM    5  N   UNL     1      40.944 -11.473   0.994  1.00  0.00    -0.299 N 
HETATM    6  C   UNL     1      41.992 -11.847   0.167  1.00  0.00     0.257 C 
HETATM    7  O   UNL     1      43.057 -11.247   0.081  1.00  0.00    -0.267 OA
HETATM    8  H   UNL     1      40.020 -11.795   0.737  1.00  0.00     0.171 HD
BRANCH   6   9
HETATM    9  C   UNL     1      41.674 -12.905  -0.815  1.00  0.00     0.032 A 
HETATM   10  C   UNL     1      41.916 -12.661  -2.169  1.00  0.00     0.020 A 
HETATM   11  C   UNL     1      41.658 -13.658  -3.115  1.00  0.00     0.038 A 
HETATM   12  C   UNL     1      41.180 -14.905  -2.707  1.00  0.00     0.068 A 
HETATM   13  C   UNL     1      40.963 -15.148  -1.345  1.00  0.00     0.038 A 
HETATM   14  C   UNL     1      41.201 -14.150  -0.395  1.00  0.00     0.020 A 
BRANCH  12  15
HETATM   15  O   UNL     1      40.916 -15.968  -3.527  1.00  0.00    -0.351 OA
BRANCH  15  16
HETATM   16  C   UNL     1      39.610 -16.539  -3.434  1.00  0.00     0.175 C 
BRANCH  16  17
HETATM   17  C   UNL     1      38.662 -15.701  -4.286  1.00  0.00     0.026 C 
BRANCH  17  18
HETATM   18  C   UNL     1      37.492 -15.171  -3.459  1.00  0.00    -0.002 C 
HETATM   19  C   UNL     1      37.705 -13.723  -3.049  1.00  0.00     0.005 C 
ENDBRANCH  17  18
ENDBRANCH  16  17
ENDBRANCH  15  16
ENDBRANCH  12  15
ENDBRANCH   6   9
ENDBRANCH   3   5
ENDBRANCH   1   3
BRANCH   1  20
HETATM   20  C   UNL     1      41.551 -13.161   3.839  1.00  0.00     0.035 A 
HETATM   21  C   UNL     1      42.149 -14.413   3.646  1.00  0.00     0.048 A 
HETATM   22  C   UNL     1      41.732 -15.538   4.387  1.00  0.00     0.052 A 
HETATM   23  C   UNL     1      40.682 -15.385   5.306  1.00  0.00     0.080 A 
HETATM   24  C   UNL     1      40.088 -14.147   5.514  1.00  0.00     0.040 A 
HETATM   25  C   UNL     1      40.523 -13.042   4.785  1.00  0.00     0.032 A 
BRANCH  22  26
HETATM   26  C   UNL     1      42.357 -16.844   4.209  1.00  0.00     0.183 A 
HETATM   27  O   UNL     1      42.118 -17.507   3.032  1.00  0.00    -0.289 OA
HETATM   28  C   UNL     1      42.910 -18.617   3.117  1.00  0.00     0.107 A 
HETATM   29  C   UNL     1      43.565 -18.579   4.336  1.00  0.00     0.093 A 
HETATM   30  C   UNL     1      43.069 -19.618   2.165  1.00  0.00     0.046 A 
HETATM   31  N   UNL     1      43.220 -17.440   5.017  1.00  0.00    -0.221 NA
HETATM   32  C   UNL     1      44.440 -19.618   4.671  1.00  0.00     0.035 A 
HETATM   33  C   UNL     1      44.630 -20.649   3.737  1.00  0.00     0.009 A 
HETATM   34  C   UNL     1      43.964 -20.650   2.497  1.00  0.00    -0.059 A 
HETATM   35  C   UNL     1      44.238 -21.760   1.521  1.00  0.00     0.048 C 
ENDBRANCH  22  26
BRANCH  23  36
HETATM   36  O   UNL     1      40.174 -16.426   6.042  1.00  0.00    -0.360 OA
HETATM   37  H   UNL     1      40.363 -16.259   6.991  1.00  0.00     0.217 HD
ENDBRANCH  23  36
ENDBRANCH   1  20
TORSDOF 10
ENDMDL
MODEL 2
REMARK VINA RESULT:      -8.7      6.355     10.593
REMARK  10 active torsions:
REMARK  status: ('A' for Active; 'I' for Inactive)
REMARK    1  A    between atoms: C_2  and  C_3 
REMARK    2  A    between atoms: C_3  and  C_4 
REMARK    3  A    between atoms: C_4  and  O_5 
REMARK    4  A    between atoms: O_5  and  C_6 
REMARK    5  A    between atoms: C_9  and  C_10 
REMARK       I    between atoms: C_10  and  N_11 
REMARK    6  A    between atoms: N_11  and  C_12 
REMARK    7  A    between atoms: C_12  and  N_13 
REMARK    8  A    between atoms: N_13  and  C_14 
REMARK    9  A    between atoms: C_16  and  C_17 
REMARK   10  A    between atoms: C_27  and  O_28 
ROOT
HETATM    1  N   UNL     1      44.210 -13.504   8.282  1.00  0.00    -0.333 N 
HETATM    2  H   UNL     1      43.624 -13.739   9.080  1.00  0.00     0.168 HD
ENDROOT
BRANCH   1   3
HETATM    3  C   UNL     1      45.096 -12.508   8.586  1.00  0.00     0.179 C 
HETATM    4  S   UNL     1      46.555 -12.519   7.762  1.00  0.00    -0.040 SA
BRANCH   3   5
HETATM    5  N   UNL     1      44.685 -11.539   9.461  1.00  0.00    -0.299 N 
HETATM    6  C   UNL     1      43.420 -10.973   9.494  1.00  0.00     0.257 C 
HETATM    7  O   UNL     1      42.836 -10.520   8.516  1.00  0.00    -0.267 OA
HETATM    8  H   UNL     1      45.206 -11.546  10.328  1.00  0.00     0.171 HD
BRANCH   6   9
HETATM    9  C   UNL     1      42.878 -10.717  10.845  1.00  0.00     0.032 A 
HETATM   10  C   UNL     1      41.525 -10.969  11.087  1.00  0.00     0.020 A 
HETATM   11  C   UNL     1      40.996 -10.770  12.365  1.00  0.00     0.038 A 
HETATM   12  C   UNL     1      41.820 -10.339  13.407  1.00  0.00     0.068 A 
HETATM   13  C   UNL     1      43.180 -10.111  13.160  1.00  0.00     0.038 A 
HETATM   14  C   UNL     1      43.713 -10.291  11.880  1.00  0.00     0.020 A 
BRANCH  12  15
HETATM   15  O   UNL     1      41.431 -10.134  14.702  1.00  0.00    -0.351 OA
BRANCH  15  16
HETATM   16  C   UNL     1      42.249  -9.265  15.486  1.00  0.00     0.175 C 
BRANCH  16  17
HETATM   17  C   UNL     1      41.548  -7.913  15.587  1.00  0.00     0.026 C 
BRANCH  17  18
HETATM   18  C   UNL     1      40.116  -8.067  16.098  1.00  0.00    -0.002 C 
HETATM   19  C   UNL     1      39.108  -7.473  15.129  1.00  0.00     0.005 C 
ENDBRANCH  17  18
ENDBRANCH  16  17
ENDBRANCH  15  16
ENDBRANCH  12  15
ENDBRANCH   6   9
ENDBRANCH   3   5
ENDBRANCH   1   3
BRANCH   1  20
HETATM   20  C   UNL     1      43.794 -14.062   7.054  1.00  0.00     0.035 A 
HETATM   21  C   UNL     1      43.977 -15.397   6.670  1.00  0.00     0.048 A 
HETATM   22  C   UNL     1      43.604 -15.839   5.384  1.00  0.00     0.052 A 
HETATM   23  C   UNL     1      43.070 -14.907   4.481  1.00  0.00     0.080 A 
HETATM   24  C   UNL     1      42.873 -13.583   4.853  1.00  0.00     0.040 A 
HETATM   25  C   UNL     1      43.232 -13.166   6.133  1.00  0.00     0.032 A 
BRANCH  22  26
HETATM   26  C   UNL     1      43.774 -17.230   4.977  1.00  0.00     0.183 A 
HETATM   27  O   UNL     1      43.464 -17.554   3.681  1.00  0.00    -0.289 OA
HETATM   28  C   UNL     1      43.824 -18.868   3.578  1.00  0.00     0.107 A 
HETATM   29  C   UNL     1      44.308 -19.273   4.811  1.00  0.00     0.093 A 
HETATM   30  C   UNL     1      43.749 -19.682   2.453  1.00  0.00     0.046 A 
HETATM   31  N   UNL     1      44.287 -18.221   5.690  1.00  0.00    -0.221 NA
HETATM   32  C   UNL     1      44.740 -20.594   4.972  1.00  0.00     0.035 A 
HETATM   33  C   UNL     1      44.682 -21.449   3.860  1.00  0.00     0.009 A 
HETATM   34  C   UNL     1      44.201 -21.003   2.614  1.00  0.00    -0.059 A 
HETATM   35  C   UNL     1      44.200 -21.953   1.449  1.00  0.00     0.048 C 
ENDBRANCH  22  26
BRANCH  23  36
HETATM   36  O   UNL     1      42.718 -15.227   3.194  1.00  0.00    -0.360 OA
HETATM   37  H   UNL     1      43.088 -16.111   2.979  1.00  0.00     0.217 HD
ENDBRANCH  23  36
ENDBRANCH   1  20
TORSDOF 10
ENDMDL
MODEL 3
REMARK VINA RESULT:      -8.6      2.802      8.359
REMARK  10 active torsions:
REMARK  status: ('A' for Active; 'I' for Inactive)
REMARK    1  A    between atoms: C_2  and  C_3 
REMARK    2  A    between atoms: C_3  and  C_4 
REMARK    3  A    between atoms: C_4  and  O_5 
REMARK    4  A    between atoms: O_5  and  C_6 
REMARK    5  A    between atoms: C_9  and  C_10 
REMARK       I    between atoms: C_10  and  N_11 
REMARK    6  A    between atoms: N_11  and  C_12 
REMARK    7  A    between atoms: C_12  and  N_13 
REMARK    8  A    between atoms: N_13  and  C_14 
REMARK    9  A    between atoms: C_16  and  C_17 
REMARK   10  A    between atoms: C_27  and  O_28 
ROOT
HETATM    1  N   UNL     1      42.780 -14.948   6.190  1.00  0.00    -0.333 N 
HETATM    2  H   UNL     1      42.185 -14.282   6.677  1.00  0.00     0.168 HD
ENDROOT
BRANCH   1   3
HETATM    3  C   UNL     1      44.011 -15.046   6.777  1.00  0.00     0.179 C 
HETATM    4  S   UNL     1      44.683 -13.627   7.364  1.00  0.00    -0.040 SA
BRANCH   3   5
HETATM    5  N   UNL     1      44.548 -16.297   6.919  1.00  0.00    -0.299 N 
HETATM    6  C   UNL     1      43.904 -17.385   7.489  1.00  0.00     0.257 C 
HETATM    7  O   UNL     1      43.334 -17.365   8.574  1.00  0.00    -0.267 OA
HETATM    8  H   UNL     1      45.266 -16.497   6.235  1.00  0.00     0.171 HD
BRANCH   6   9
HETATM    9  C   UNL     1      44.141 -18.681   6.818  1.00  0.00     0.032 A 
HETATM   10  C   UNL     1      43.639 -19.845   7.405  1.00  0.00     0.020 A 
HETATM   11  C   UNL     1      43.817 -21.079   6.773  1.00  0.00     0.038 A 
HETATM   12  C   UNL     1      44.478 -21.148   5.545  1.00  0.00     0.068 A 
HETATM   13  C   UNL     1      44.958 -19.973   4.953  1.00  0.00     0.038 A 
HETATM   14  C   UNL     1      44.799 -18.738   5.588  1.00  0.00     0.020 A 
BRANCH  12  15
HETATM   15  O   UNL     1      44.692 -22.286   4.815  1.00  0.00    -0.351 OA
BRANCH  15  16
HETATM   16  C   UNL     1      45.136 -22.109   3.469  1.00  0.00     0.175 C 
BRANCH  16  17
HETATM   17  C   UNL     1      43.926 -22.236   2.549  1.00  0.00     0.026 C 
BRANCH  17  18
HETATM   18  C   UNL     1      43.879 -21.098   1.531  1.00  0.00    -0.002 C 
HETATM   19  C   UNL     1      43.119 -19.896   2.068  1.00  0.00     0.005 C 
ENDBRANCH  17  18
ENDBRANCH  16  17
ENDBRANCH  15  16
ENDBRANCH  12  15
ENDBRANCH   6   9
ENDBRANCH   3   5
ENDBRANCH   1   3
BRANCH   1  20
HETATM   20  C   UNL     1      42.289 -15.382   4.939  1.00  0.00     0.035 A 
HETATM   21  C   UNL     1      42.321 -14.633   3.756  1.00  0.00     0.048 A 
HETATM   22  C   UNL     1      41.725 -15.119   2.574  1.00  0.00     0.052 A 
HETATM   23  C   UNL     1      41.070 -16.361   2.613  1.00  0.00     0.080 A 
HETATM   24  C   UNL     1      41.040 -17.117   3.777  1.00  0.00     0.040 A 
HETATM   25  C   UNL     1      41.649 -16.629   4.932  1.00  0.00     0.032 A 
BRANCH  22  26
HETATM   26  C   UNL     1      41.766 -14.359   1.329  1.00  0.00     0.183 A 
HETATM   27  O   UNL     1      42.109 -13.033   1.408  1.00  0.00    -0.289 OA
HETATM   28  C   UNL     1      42.167 -12.634   0.102  1.00  0.00     0.107 A 
HETATM   29  C   UNL     1      41.840 -13.722  -0.689  1.00  0.00     0.093 A 
HETATM   30  C   UNL     1      42.507 -11.377  -0.385  1.00  0.00     0.046 A 
HETATM   31  N   UNL     1      41.601 -14.818   0.099  1.00  0.00    -0.221 NA
HETATM   32  C   UNL     1      41.820 -13.570  -2.080  1.00  0.00     0.035 A 
HETATM   33  C   UNL     1      42.157 -12.316  -2.613  1.00  0.00     0.009 A 
HETATM   34  C   UNL     1      42.504 -11.234  -1.784  1.00  0.00    -0.059 A 
HETATM   35  C   UNL     1      42.895  -9.926  -2.414  1.00  0.00     0.048 C 
ENDBRANCH  22  26
BRANCH  23  36
HETATM   36  O   UNL     1      40.422 -16.900   1.530  1.00  0.00    -0.360 OA
HETATM   37  H   UNL     1      40.965 -16.738   0.728  1.00  0.00     0.217 HD
ENDBRANCH  23  36
ENDBRANCH   1  20
TORSDOF 10
ENDMDL
MODEL 4
REMARK VINA RESULT:      -8.5      2.423      6.613
REMARK  10 active torsions:
REMARK  status: ('A' for Active; 'I' for Inactive)
REMARK    1  A    between atoms: C_2  and  C_3 
REMARK    2  A    between atoms: C_3  and  C_4 
REMARK    3  A    between atoms: C_4  and  O_5 
REMARK    4  A    between atoms: O_5  and  C_6 
REMARK    5  A    between atoms: C_9  and  C_10 
REMARK       I    between atoms: C_10  and  N_11 
REMARK    6  A    between atoms: N_11  and  C_12 
REMARK    7  A    between atoms: C_12  and  N_13 
REMARK    8  A    between atoms: N_13  and  C_14 
REMARK    9  A    between atoms: C_16  and  C_17 
REMARK   10  A    between atoms: C_27  and  O_28 
ROOT
HETATM    1  N   UNL     1      38.565 -12.719   2.252  1.00  0.00    -0.333 N 
HETATM    2  H   UNL     1      37.601 -12.632   1.941  1.00  0.00     0.168 HD
ENDROOT
BRANCH   1   3
HETATM    3  C   UNL     1      38.901 -11.730   3.134  1.00  0.00     0.179 C 
HETATM    4  S   UNL     1      38.035 -10.299   3.030  1.00  0.00    -0.040 SA
BRANCH   3   5
HETATM    5  N   UNL     1      39.846 -12.021   4.082  1.00  0.00    -0.299 N 
HETATM    6  C   UNL     1      39.621 -12.748   5.240  1.00  0.00     0.257 C 
HETATM    7  O   UNL     1      38.708 -12.534   6.029  1.00  0.00    -0.267 OA
HETATM    8  H   UNL     1      40.785 -12.033   3.709  1.00  0.00     0.171 HD
BRANCH   6   9
HETATM    9  C   UNL     1      40.703 -13.680   5.621  1.00  0.00     0.032 A 
HETATM   10  C   UNL     1      40.385 -15.017   5.871  1.00  0.00     0.020 A 
HETATM   11  C   UNL     1      41.395 -15.926   6.197  1.00  0.00     0.038 A 
HETATM   12  C   UNL     1      42.726 -15.506   6.253  1.00  0.00     0.068 A 
HETATM   13  C   UNL     1      43.038 -14.169   5.978  1.00  0.00     0.038 A 
HETATM   14  C   UNL     1      42.031 -13.250   5.669  1.00  0.00     0.020 A 
BRANCH  12  15
HETATM   15  O   UNL     1      43.804 -16.301   6.533  1.00  0.00    -0.351 OA
BRANCH  15  16
HETATM   16  C   UNL     1      43.690 -17.156   7.671  1.00  0.00     0.175 C 
BRANCH  16  17
HETATM   17  C   UNL     1      44.356 -18.487   7.334  1.00  0.00     0.026 C 
BRANCH  17  18
HETATM   18  C   UNL     1      43.330 -19.613   7.234  1.00  0.00    -0.002 C 
HETATM   19  C   UNL     1      43.973 -20.922   6.805  1.00  0.00     0.005 C 
ENDBRANCH  17  18
ENDBRANCH  16  17
ENDBRANCH  15  16
ENDBRANCH  12  15
ENDBRANCH   6   9
ENDBRANCH   3   5
ENDBRANCH   1   3
BRANCH   1  20
HETATM   20  C   UNL     1      39.344 -13.644   1.522  1.00  0.00     0.035 A 
HETATM   21  C   UNL     1      40.113 -14.672   2.082  1.00  0.00     0.048 A 
HETATM   22  C   UNL     1      40.928 -15.491   1.274  1.00  0.00     0.052 A 
HETATM   23  C   UNL     1      40.975 -15.239  -0.106  1.00  0.00     0.080 A 
HETATM   24  C   UNL     1      40.209 -14.230  -0.676  1.00  0.00     0.040 A 
HETATM   25  C   UNL     1      39.397 -13.439   0.136  1.00  0.00     0.032 A 
BRANCH  22  26
HETATM   26  C   UNL     1      41.720 -16.576   1.842  1.00  0.00     0.183 A 
HETATM   27  O   UNL     1      41.637 -17.806   1.240  1.00  0.00    -0.289 OA
HETATM   28  C   UNL     1      42.554 -18.562   1.914  1.00  0.00     0.107 A 
HETATM   29  C   UNL     1      43.125 -17.765   2.892  1.00  0.00     0.093 A 
HETATM   30  C   UNL     1      42.894 -19.889   1.679  1.00  0.00     0.046 A 
HETATM   31  N   UNL     1      42.600 -16.499   2.829  1.00  0.00    -0.221 NA
HETATM   32  C   UNL     1      44.100 -18.312   3.732  1.00  0.00     0.035 A 
HETATM   33  C   UNL     1      44.473 -19.650   3.528  1.00  0.00     0.009 A 
HETATM   34  C   UNL     1      43.888 -20.430   2.513  1.00  0.00    -0.059 A 
HETATM   35  C   UNL     1      44.357 -21.845   2.316  1.00  0.00     0.048 C 
ENDBRANCH  22  26
BRANCH  23  36
HETATM   36  O   UNL     1      41.769 -15.950  -0.970  1.00  0.00    -0.360 OA
HETATM   37  H   UNL     1      42.689 -15.942  -0.629  1.00  0.00     0.217 HD
ENDBRANCH  23  36
ENDBRANCH   1  20
TORSDOF 10
ENDMDL
MODEL 5
REMARK VINA RESULT:      -8.4      4.499      8.820
REMARK  10 active torsions:
REMARK  status: ('A' for Active; 'I' for Inactive)
REMARK    1  A    between atoms: C_2  and  C_3 
REMARK    2  A    between atoms: C_3  and  C_4 
REMARK    3  A    between atoms: C_4  and  O_5 
REMARK    4  A    between atoms: O_5  and  C_6 
REMARK    5  A    between atoms: C_9  and  C_10 
REMARK       I    between atoms: C_10  and  N_11 
REMARK    6  A    between atoms: N_11  and  C_12 
REMARK    7  A    between atoms: C_12  and  N_13 
REMARK    8  A    between atoms: N_13  and  C_14 
REMARK    9  A    between atoms: C_16  and  C_17 
REMARK   10  A    between atoms: C_27  and  O_28 
ROOT
HETATM    1  N   UNL     1      41.600 -11.880   4.081  1.00  0.00    -0.333 N 
HETATM    2  H   UNL     1      42.509 -11.882   4.537  1.00  0.00     0.168 HD
ENDROOT
BRANCH   1   3
HETATM    3  C   UNL     1      40.968 -10.676   4.221  1.00  0.00     0.179 C 
HETATM    4  S   UNL     1      40.620  -9.838   2.812  1.00  0.00    -0.040 SA
BRANCH   3   5
HETATM    5  N   UNL     1      40.590 -10.301   5.482  1.00  0.00    -0.299 N 
HETATM    6  C   UNL     1      39.970 -11.123   6.410  1.00  0.00     0.257 C 
HETATM    7  O   UNL     1      38.982 -11.810   6.179  1.00  0.00    -0.267 OA
HETATM    8  H   UNL     1      41.141  -9.535   5.845  1.00  0.00     0.171 HD
BRANCH   6   9
HETATM    9  C   UNL     1      40.424 -10.954   7.807  1.00  0.00     0.032 A 
HETATM   10  C   UNL     1      41.721 -10.494   8.043  1.00  0.00     0.020 A 
HETATM   11  C   UNL     1      42.163 -10.291   9.353  1.00  0.00     0.038 A 
HETATM   12  C   UNL     1      41.303 -10.527  10.428  1.00  0.00     0.068 A 
HETATM   13  C   UNL     1      39.996 -10.966  10.181  1.00  0.00     0.038 A 
HETATM   14  C   UNL     1      39.553 -11.189   8.873  1.00  0.00     0.020 A 
BRANCH  12  15
HETATM   15  O   UNL     1      41.604 -10.343  11.750  1.00  0.00    -0.351 OA
BRANCH  15  16
HETATM   16  C   UNL     1      42.456  -9.240  12.063  1.00  0.00     0.175 C 
BRANCH  16  17
HETATM   17  C   UNL     1      43.340  -9.642  13.241  1.00  0.00     0.026 C 
BRANCH  17  18
HETATM   18  C   UNL     1      42.519 -10.287  14.357  1.00  0.00    -0.002 C 
HETATM   19  C   UNL     1      42.200  -9.295  15.463  1.00  0.00     0.005 C 
ENDBRANCH  17  18
ENDBRANCH  16  17
ENDBRANCH  15  16
ENDBRANCH  12  15
ENDBRANCH   6   9
ENDBRANCH   3   5
ENDBRANCH   1   3
BRANCH   1  20
HETATM   20  C   UNL     1      41.141 -13.150   3.667  1.00  0.00     0.035 A 
HETATM   21  C   UNL     1      41.859 -14.347   3.785  1.00  0.00     0.048 A 
HETATM   22  C   UNL     1      41.351 -15.553   3.261  1.00  0.00     0.052 A 
HETATM   23  C   UNL     1      40.118 -15.528   2.591  1.00  0.00     0.080 A 
HETATM   24  C   UNL     1      39.390 -14.350   2.477  1.00  0.00     0.040 A 
HETATM   25  C   UNL     1      39.900 -13.169   3.014  1.00  0.00     0.032 A 
BRANCH  22  26
HETATM   26  C   UNL     1      42.081 -16.810   3.393  1.00  0.00     0.183 A 
HETATM   27  O   UNL     1      42.028 -17.687   2.340  1.00  0.00    -0.289 OA
HETATM   28  C   UNL     1      42.878 -18.691   2.709  1.00  0.00     0.107 A 
HETATM   29  C   UNL     1      43.380 -18.382   3.963  1.00  0.00     0.093 A 
HETATM   30  C   UNL     1      43.217 -19.825   1.980  1.00  0.00     0.046 A 
HETATM   31  N   UNL     1      42.880 -17.176   4.382  1.00  0.00    -0.221 NA
HETATM   32  C   UNL     1      44.278 -19.265   4.572  1.00  0.00     0.035 A 
HETATM   33  C   UNL     1      44.647 -20.423   3.869  1.00  0.00     0.009 A 
HETATM   34  C   UNL     1      44.133 -20.701   2.588  1.00  0.00    -0.059 A 
HETATM   35  C   UNL     1      44.596 -21.936   1.867  1.00  0.00     0.048 C 
ENDBRANCH  22  26
BRANCH  23  36
HETATM   36  O   UNL     1      39.559 -16.637   2.009  1.00  0.00    -0.360 OA
HETATM   37  H   UNL     1      39.149 -17.187   2.712  1.00  0.00     0.217 HD
ENDBRANCH  23  36
ENDBRANCH   1  20
TORSDOF 10
ENDMDL
MODEL 6
REMARK VINA RESULT:      -8.2      4.595      8.326
REMARK  10 active torsions:
REMARK  status: ('A' for Active; 'I' for Inactive)
REMARK    1  A    between atoms: C_2  and  C_3 
REMARK    2  A    between atoms: C_3  and  C_4 
REMARK    3  A    between atoms: C_4  and  O_5 
REMARK    4  A    between atoms: O_5  and  C_6 
REMARK    5  A    between atoms: C_9  and  C_10 
REMARK       I    between atoms: C_10  and  N_11 
REMARK    6  A    between atoms: N_11  and  C_12 
REMARK    7  A    between atoms: C_12  and  N_13 
REMARK    8  A    between atoms: N_13  and  C_14 
REMARK    9  A    between atoms: C_16  and  C_17 
REMARK   10  A    between atoms: C_27  and  O_28 
ROOT
HETATM    1  N   UNL     1      42.401 -12.596   3.964  1.00  0.00    -0.333 N 
HETATM    2  H   UNL     1      43.084 -12.072   3.421  1.00  0.00     0.168 HD
ENDROOT
BRANCH   1   3
HETATM    3  C   UNL     1      41.176 -11.989   3.951  1.00  0.00     0.179 C 
HETATM    4  S   UNL     1      40.129 -12.426   2.718  1.00  0.00    -0.040 SA
BRANCH   3   5
HETATM    5  N   UNL     1      40.873 -11.152   4.992  1.00  0.00    -0.299 N 
HETATM    6  C   UNL     1      39.932 -11.407   5.977  1.00  0.00     0.257 C 
HETATM    7  O   UNL     1      38.780 -11.767   5.762  1.00  0.00    -0.267 OA
HETATM    8  H   UNL     1      41.638 -10.539   5.238  1.00  0.00     0.171 HD
BRANCH   6   9
HETATM    9  C   UNL     1      40.316 -10.988   7.342  1.00  0.00     0.032 A 
HETATM   10  C   UNL     1      39.513 -11.375   8.417  1.00  0.00     0.020 A 
HETATM   11  C   UNL     1      39.874 -11.023   9.721  1.00  0.00     0.038 A 
HETATM   12  C   UNL     1      41.049 -10.303   9.953  1.00  0.00     0.068 A 
HETATM   13  C   UNL     1      41.859  -9.939   8.871  1.00  0.00     0.038 A 
HETATM   14  C   UNL     1      41.495 -10.272   7.562  1.00  0.00     0.020 A 
BRANCH  12  15
HETATM   15  O   UNL     1      41.524  -9.922  11.178  1.00  0.00    -0.351 OA
BRANCH  15  16
HETATM   16  C   UNL     1      41.524 -10.918  12.202  1.00  0.00     0.175 C 
BRANCH  16  17
HETATM   17  C   UNL     1      42.972 -11.298  12.496  1.00  0.00     0.026 C 
BRANCH  17  18
HETATM   18  C   UNL     1      43.946 -10.297  11.878  1.00  0.00    -0.002 C 
HETATM   19  C   UNL     1      44.858 -10.959  10.857  1.00  0.00     0.005 C 
ENDBRANCH  17  18
ENDBRANCH  16  17
ENDBRANCH  15  16
ENDBRANCH  12  15
ENDBRANCH   6   9
ENDBRANCH   3   5
ENDBRANCH   1   3
BRANCH   1  20
HETATM   20  C   UNL     1      42.942 -13.626   4.765  1.00  0.00     0.035 A 
HETATM   21  C   UNL     1      43.103 -14.959   4.366  1.00  0.00     0.048 A 
HETATM   22  C   UNL     1      43.572 -15.934   5.270  1.00  0.00     0.052 A 
HETATM   23  C   UNL     1      43.849 -15.549   6.590  1.00  0.00     0.080 A 
HETATM   24  C   UNL     1      43.703 -14.228   6.996  1.00  0.00     0.040 A 
HETATM   25  C   UNL     1      43.254 -13.273   6.086  1.00  0.00     0.032 A 
BRANCH  22  26
HETATM   26  C   UNL     1      43.761 -17.323   4.863  1.00  0.00     0.183 A 
HETATM   27  O   UNL     1      43.368 -17.672   3.596  1.00  0.00    -0.289 OA
HETATM   28  C   UNL     1      43.767 -18.973   3.478  1.00  0.00     0.107 A 
HETATM   29  C   UNL     1      44.357 -19.346   4.674  1.00  0.00     0.093 A 
HETATM   30  C   UNL     1      43.638 -19.801   2.369  1.00  0.00     0.046 A 
HETATM   31  N   UNL     1      44.363 -18.286   5.543  1.00  0.00    -0.221 NA
HETATM   32  C   UNL     1      44.848 -20.649   4.813  1.00  0.00     0.035 A 
HETATM   33  C   UNL     1      44.738 -21.518   3.716  1.00  0.00     0.009 A 
HETATM   34  C   UNL     1      44.149 -21.104   2.506  1.00  0.00    -0.059 A 
HETATM   35  C   UNL     1      44.096 -22.066   1.352  1.00  0.00     0.048 C 
ENDBRANCH  22  26
BRANCH  23  36
HETATM   36  O   UNL     1      44.267 -16.430   7.556  1.00  0.00    -0.360 OA
HETATM   37  H   UNL     1      45.145 -16.786   7.296  1.00  0.00     0.217 HD
ENDBRANCH  23  36
ENDBRANCH   1  20
TORSDOF 10
ENDMDL
MODEL 7
REMARK VINA RESULT:      -8.2      5.869      9.939
REMARK  10 active torsions:
REMARK  status: ('A' for Active; 'I' for Inactive)
REMARK    1  A    between atoms: C_2  and  C_3 
REMARK    2  A    between atoms: C_3  and  C_4 
REMARK    3  A    between atoms: C_4  and  O_5 
REMARK    4  A    between atoms: O_5  and  C_6 
REMARK    5  A    between atoms: C_9  and  C_10 
REMARK       I    between atoms: C_10  and  N_11 
REMARK    6  A    between atoms: N_11  and  C_12 
REMARK    7  A    between atoms: C_12  and  N_13 
REMARK    8  A    between atoms: N_13  and  C_14 
REMARK    9  A    between atoms: C_16  and  C_17 
REMARK   10  A    between atoms: C_27  and  O_28 
ROOT
HETATM    1  N   UNL     1      44.882 -13.900   7.899  1.00  0.00    -0.333 N 
HETATM    2  H   UNL     1      45.305 -14.662   8.423  1.00  0.00     0.168 HD
ENDROOT
BRANCH   1   3
HETATM    3  C   UNL     1      45.040 -12.701   8.538  1.00  0.00     0.179 C 
HETATM    4  S   UNL     1      46.458 -11.863   8.233  1.00  0.00    -0.040 SA
BRANCH   3   5
HETATM    5  N   UNL     1      43.993 -12.245   9.295  1.00  0.00    -0.299 N 
HETATM    6  C   UNL     1      44.012 -12.078  10.671  1.00  0.00     0.257 C 
HETATM    7  O   UNL     1      44.387 -12.930  11.469  1.00  0.00    -0.267 OA
HETATM    8  H   UNL     1      43.357 -11.659   8.772  1.00  0.00     0.171 HD
BRANCH   6   9
HETATM    9  C   UNL     1      43.319 -10.872  11.171  1.00  0.00     0.032 A 
HETATM   10  C   UNL     1      43.489 -10.503  12.507  1.00  0.00     0.020 A 
HETATM   11  C   UNL     1      42.873  -9.347  12.995  1.00  0.00     0.038 A 
HETATM   12  C   UNL     1      42.106  -8.548  12.145  1.00  0.00     0.068 A 
HETATM   13  C   UNL     1      41.960  -8.914  10.801  1.00  0.00     0.038 A 
HETATM   14  C   UNL     1      42.557 -10.079  10.310  1.00  0.00     0.020 A 
BRANCH  12  15
HETATM   15  O   UNL     1      41.477  -7.384  12.493  1.00  0.00    -0.351 OA
BRANCH  15  16
HETATM   16  C   UNL     1      40.075  -7.309  12.226  1.00  0.00     0.175 C 
BRANCH  16  17
HETATM   17  C   UNL     1      39.365  -8.311  13.131  1.00  0.00     0.026 C 
BRANCH  17  18
HETATM   18  C   UNL     1      38.686  -9.411  12.317  1.00  0.00    -0.002 C 
HETATM   19  C   UNL     1      37.695  -8.838  11.317  1.00  0.00     0.005 C 
ENDBRANCH  17  18
ENDBRANCH  16  17
ENDBRANCH  15  16
ENDBRANCH  12  15
ENDBRANCH   6   9
ENDBRANCH   3   5
ENDBRANCH   1   3
BRANCH   1  20
HETATM   20  C   UNL     1      44.055 -14.302   6.827  1.00  0.00     0.035 A 
HETATM   21  C   UNL     1      44.200 -15.488   6.097  1.00  0.00     0.048 A 
HETATM   22  C   UNL     1      43.377 -15.761   4.985  1.00  0.00     0.052 A 
HETATM   23  C   UNL     1      42.423 -14.804   4.605  1.00  0.00     0.080 A 
HETATM   24  C   UNL     1      42.262 -13.628   5.328  1.00  0.00     0.040 A 
HETATM   25  C   UNL     1      43.073 -13.382   6.434  1.00  0.00     0.032 A 
BRANCH  22  26
HETATM   26  C   UNL     1      43.506 -17.000   4.225  1.00  0.00     0.183 A 
HETATM   27  O   UNL     1      44.237 -18.015   4.787  1.00  0.00    -0.289 OA
HETATM   28  C   UNL     1      44.083 -19.051   3.910  1.00  0.00     0.107 A 
HETATM   29  C   UNL     1      43.291 -18.608   2.864  1.00  0.00     0.093 A 
HETATM   30  C   UNL     1      44.596 -20.338   4.021  1.00  0.00     0.046 A 
HETATM   31  N   UNL     1      42.916 -17.307   3.081  1.00  0.00    -0.221 NA
HETATM   32  C   UNL     1      42.988 -19.488   1.820  1.00  0.00     0.035 A 
HETATM   33  C   UNL     1      43.487 -20.798   1.893  1.00  0.00     0.009 A 
HETATM   34  C   UNL     1      44.274 -21.225   2.979  1.00  0.00    -0.059 A 
HETATM   35  C   UNL     1      44.747 -22.652   3.023  1.00  0.00     0.048 C 
ENDBRANCH  22  26
BRANCH  23  36
HETATM   36  O   UNL     1      41.605 -14.954   3.514  1.00  0.00    -0.360 OA
HETATM   37  H   UNL     1      42.158 -14.937   2.703  1.00  0.00     0.217 HD
ENDBRANCH  23  36
ENDBRANCH   1  20
TORSDOF 10
ENDMDL
MODEL 8
REMARK VINA RESULT:      -8.1      2.596      7.184
REMARK  10 active torsions:
REMARK  status: ('A' for Active; 'I' for Inactive)
REMARK    1  A    between atoms: C_2  and  C_3 
REMARK    2  A    between atoms: C_3  and  C_4 
REMARK    3  A    between atoms: C_4  and  O_5 
REMARK    4  A    between atoms: O_5  and  C_6 
REMARK    5  A    between atoms: C_9  and  C_10 
REMARK       I    between atoms: C_10  and  N_11 
REMARK    6  A    between atoms: N_11  and  C_12 
REMARK    7  A    between atoms: C_12  and  N_13 
REMARK    8  A    between atoms: N_13  and  C_14 
REMARK    9  A    between atoms: C_16  and  C_17 
REMARK   10  A    between atoms: C_27  and  O_28 
ROOT
HETATM    1  N   UNL     1      43.018 -13.623   6.977  1.00  0.00    -0.333 N 
HETATM    2  H   UNL     1      42.462 -13.725   7.822  1.00  0.00     0.168 HD
ENDROOT
BRANCH   1   3
HETATM    3  C   UNL     1      44.324 -13.968   7.190  1.00  0.00     0.179 C 
HETATM    4  S   UNL     1      45.302 -12.815   7.912  1.00  0.00    -0.040 SA
BRANCH   3   5
HETATM    5  N   UNL     1      44.700 -15.249   6.883  1.00  0.00    -0.299 N 
HETATM    6  C   UNL     1      43.985 -16.392   7.204  1.00  0.00     0.257 C 
HETATM    7  O   UNL     1      43.551 -16.649   8.322  1.00  0.00    -0.267 OA
HETATM    8  H   UNL     1      45.300 -15.298   6.071  1.00  0.00     0.171 HD
BRANCH   6   9
HETATM    9  C   UNL     1      43.965 -17.439   6.161  1.00  0.00     0.032 A 
HETATM   10  C   UNL     1      45.085 -18.260   6.010  1.00  0.00     0.020 A 
HETATM   11  C   UNL     1      45.078 -19.282   5.055  1.00  0.00     0.038 A 
HETATM   12  C   UNL     1      43.945 -19.497   4.267  1.00  0.00     0.068 A 
HETATM   13  C   UNL     1      42.819 -18.683   4.442  1.00  0.00     0.038 A 
HETATM   14  C   UNL     1      42.825 -17.648   5.382  1.00  0.00     0.020 A 
BRANCH  12  15
HETATM   15  O   UNL     1      43.803 -20.475   3.321  1.00  0.00    -0.351 OA
BRANCH  15  16
HETATM   16  C   UNL     1      43.215 -20.085   2.080  1.00  0.00     0.175 C 
BRANCH  16  17
HETATM   17  C   UNL     1      44.112 -19.031   1.438  1.00  0.00     0.026 C 
BRANCH  17  18
HETATM   18  C   UNL     1      43.332 -17.759   1.114  1.00  0.00    -0.002 C 
HETATM   19  C   UNL     1      43.961 -16.535   1.759  1.00  0.00     0.005 C 
ENDBRANCH  17  18
ENDBRANCH  16  17
ENDBRANCH  15  16
ENDBRANCH  12  15
ENDBRANCH   6   9
ENDBRANCH   3   5
ENDBRANCH   1   3
BRANCH   1  20
HETATM   20  C   UNL     1      42.378 -12.936   5.923  1.00  0.00     0.035 A 
HETATM   21  C   UNL     1      42.443 -13.292   4.570  1.00  0.00     0.048 A 
HETATM   22  C   UNL     1      41.840 -12.490   3.579  1.00  0.00     0.052 A 
HETATM   23  C   UNL     1      41.195 -11.307   3.973  1.00  0.00     0.080 A 
HETATM   24  C   UNL     1      41.115 -10.948   5.312  1.00  0.00     0.040 A 
HETATM   25  C   UNL     1      41.702 -11.760   6.280  1.00  0.00     0.032 A 
BRANCH  22  26
HETATM   26  C   UNL     1      41.884 -12.858   2.168  1.00  0.00     0.183 A 
HETATM   27  O   UNL     1      41.360 -14.075   1.813  1.00  0.00    -0.289 OA
HETATM   28  C   UNL     1      41.446 -14.081   0.449  1.00  0.00     0.107 A 
HETATM   29  C   UNL     1      42.029 -12.889   0.055  1.00  0.00     0.093 A 
HETATM   30  C   UNL     1      41.019 -15.078  -0.421  1.00  0.00     0.046 A 
HETATM   31  N   UNL     1      42.290 -12.110   1.153  1.00  0.00    -0.221 NA
HETATM   32  C   UNL     1      42.236 -12.651  -1.308  1.00  0.00     0.035 A 
HETATM   33  C   UNL     1      41.819 -13.632  -2.221  1.00  0.00     0.009 A 
HETATM   34  C   UNL     1      41.212 -14.826  -1.791  1.00  0.00    -0.059 A 
HETATM   35  C   UNL     1      40.749 -15.823  -2.818  1.00  0.00     0.048 C 
ENDBRANCH  22  26
BRANCH  23  36
HETATM   36  O   UNL     1      40.617 -10.437   3.083  1.00  0.00    -0.360 OA
HETATM   37  H   UNL     1      41.308 -10.118   2.463  1.00  0.00     0.217 HD
ENDBRANCH  23  36
ENDBRANCH   1  20
TORSDOF 10
ENDMDL
MODEL 9
REMARK VINA RESULT:      -8.1      2.755      5.144
REMARK  10 active torsions:
REMARK  status: ('A' for Active; 'I' for Inactive)
REMARK    1  A    between atoms: C_2  and  C_3 
REMARK    2  A    between atoms: C_3  and  C_4 
REMARK    3  A    between atoms: C_4  and  O_5 
REMARK    4  A    between atoms: O_5  and  C_6 
REMARK    5  A    between atoms: C_9  and  C_10 
REMARK       I    between atoms: C_10  and  N_11 
REMARK    6  A    between atoms: N_11  and  C_12 
REMARK    7  A    between atoms: C_12  and  N_13 
REMARK    8  A    between atoms: N_13  and  C_14 
REMARK    9  A    between atoms: C_16  and  C_17 
REMARK   10  A    between atoms: C_27  and  O_28 
ROOT
HETATM    1  N   UNL     1      39.043 -11.790   1.943  1.00  0.00    -0.333 N 
HETATM    2  H   UNL     1      39.101 -10.848   1.565  1.00  0.00     0.168 HD
ENDROOT
BRANCH   1   3
HETATM    3  C   UNL     1      38.270 -12.601   1.160  1.00  0.00     0.179 C 
HETATM    4  S   UNL     1      36.819 -11.965   0.614  1.00  0.00    -0.040 SA
BRANCH   3   5
HETATM    5  N   UNL     1      38.783 -13.822   0.811  1.00  0.00    -0.299 N 
HETATM    6  C   UNL     1      40.078 -14.051   0.373  1.00  0.00     0.257 C 
HETATM    7  O   UNL     1      40.632 -13.419  -0.519  1.00  0.00    -0.267 OA
HETATM    8  H   UNL     1      38.312 -14.591   1.269  1.00  0.00     0.171 HD
BRANCH   6   9
HETATM    9  C   UNL     1      40.709 -15.286   0.884  1.00  0.00     0.032 A 
HETATM   10  C   UNL     1      42.004 -15.603   0.468  1.00  0.00     0.020 A 
HETATM   11  C   UNL     1      42.637 -16.747   0.965  1.00  0.00     0.038 A 
HETATM   12  C   UNL     1      41.985 -17.562   1.893  1.00  0.00     0.068 A 
HETATM   13  C   UNL     1      40.695 -17.223   2.321  1.00  0.00     0.038 A 
HETATM   14  C   UNL     1      40.049 -16.092   1.815  1.00  0.00     0.020 A 
BRANCH  12  15
HETATM   15  O   UNL     1      42.503 -18.688   2.471  1.00  0.00    -0.351 OA
BRANCH  15  16
HETATM   16  C   UNL     1      43.409 -19.456   1.678  1.00  0.00     0.175 C 
BRANCH  16  17
HETATM   17  C   UNL     1      44.293 -20.270   2.619  1.00  0.00     0.026 C 
BRANCH  17  18
HETATM   18  C   UNL     1      44.196 -21.764   2.320  1.00  0.00    -0.002 C 
HETATM   19  C   UNL     1      44.598 -22.604   3.521  1.00  0.00     0.005 C 
ENDBRANCH  17  18
ENDBRANCH  16  17
ENDBRANCH  15  16
ENDBRANCH  12  15
ENDBRANCH   6   9
ENDBRANCH   3   5
ENDBRANCH   1   3
BRANCH   1  20
HETATM   20  C   UNL     1      39.539 -11.934   3.258  1.00  0.00     0.035 A 
HETATM   21  C   UNL     1      40.356 -12.982   3.702  1.00  0.00     0.048 A 
HETATM   22  C   UNL     1      40.730 -13.086   5.057  1.00  0.00     0.052 A 
HETATM   23  C   UNL     1      40.243 -12.131   5.964  1.00  0.00     0.080 A 
HETATM   24  C   UNL     1      39.441 -11.081   5.534  1.00  0.00     0.040 A 
HETATM   25  C   UNL     1      39.094 -10.984   4.188  1.00  0.00     0.032 A 
BRANCH  22  26
HETATM   26  C   UNL     1      41.594 -14.162   5.530  1.00  0.00     0.183 A 
HETATM   27  O   UNL     1      41.165 -15.450   5.341  1.00  0.00    -0.289 OA
HETATM   28  C   UNL     1      42.213 -16.211   5.776  1.00  0.00     0.107 A 
HETATM   29  C   UNL     1      43.205 -15.352   6.220  1.00  0.00     0.093 A 
HETATM   30  C   UNL     1      42.312 -17.597   5.774  1.00  0.00     0.046 A 
HETATM   31  N   UNL     1      42.809 -14.051   6.046  1.00  0.00    -0.221 NA
HETATM   32  C   UNL     1      44.393 -15.889   6.728  1.00  0.00     0.035 A 
HETATM   33  C   UNL     1      44.534 -17.285   6.742  1.00  0.00     0.009 A 
HETATM   34  C   UNL     1      43.516 -18.132   6.267  1.00  0.00    -0.059 A 
HETATM   35  C   UNL     1      43.740 -19.619   6.271  1.00  0.00     0.048 C 
ENDBRANCH  22  26
BRANCH  23  36
HETATM   36  O   UNL     1      40.512 -12.169   7.308  1.00  0.00    -0.360 OA
HETATM   37  H   UNL     1      39.744 -11.794   7.792  1.00  0.00     0.217 HD
ENDBRANCH  23  36
ENDBRANCH   1  20
TORSDOF 10
ENDMDL
MODEL 10
REMARK VINA RESULT:      -8.0      4.311      8.588
REMARK  10 active torsions:
REMARK  status: ('A' for Active; 'I' for Inactive)
REMARK    1  A    between atoms: C_2  and  C_3 
REMARK    2  A    between atoms: C_3  and  C_4 
REMARK    3  A    between atoms: C_4  and  O_5 
REMARK    4  A    between atoms: O_5  and  C_6 
REMARK    5  A    between atoms: C_9  and  C_10 
REMARK       I    between atoms: C_10  and  N_11 
REMARK    6  A    between atoms: N_11  and  C_12 
REMARK    7  A    between atoms: C_12  and  N_13 
REMARK    8  A    between atoms: N_13  and  C_14 
REMARK    9  A    between atoms: C_16  and  C_17 
REMARK   10  A    between atoms: C_27  and  O_28 
ROOT
HETATM    1  N   UNL     1      41.809 -12.259   3.167  1.00  0.00    -0.333 N 
HETATM    2  H   UNL     1      41.966 -11.434   2.595  1.00  0.00     0.168 HD
ENDROOT
BRANCH   1   3
HETATM    3  C   UNL     1      42.002 -13.411   2.455  1.00  0.00     0.179 C 
HETATM    4  S   UNL     1      41.783 -13.318   0.796  1.00  0.00    -0.040 SA
BRANCH   3   5
HETATM    5  N   UNL     1      42.445 -14.511   3.138  1.00  0.00    -0.299 N 
HETATM    6  C   UNL     1      41.736 -15.691   3.302  1.00  0.00     0.257 C 
HETATM    7  O   UNL     1      40.576 -15.757   3.691  1.00  0.00    -0.267 OA
HETATM    8  H   UNL     1      43.454 -14.575   3.168  1.00  0.00     0.171 HD
BRANCH   6   9
HETATM    9  C   UNL     1      42.540 -16.929   3.209  1.00  0.00     0.032 A 
HETATM   10  C   UNL     1      42.480 -17.683   2.035  1.00  0.00     0.020 A 
HETATM   11  C   UNL     1      43.258 -18.838   1.907  1.00  0.00     0.038 A 
HETATM   12  C   UNL     1      44.110 -19.228   2.942  1.00  0.00     0.068 A 
HETATM   13  C   UNL     1      44.180 -18.452   4.106  1.00  0.00     0.038 A 
HETATM   14  C   UNL     1      43.392 -17.306   4.249  1.00  0.00     0.020 A 
BRANCH  12  15
HETATM   15  O   UNL     1      44.938 -20.317   2.929  1.00  0.00    -0.351 OA
BRANCH  15  16
HETATM   16  C   UNL     1      44.365 -21.551   2.495  1.00  0.00     0.175 C 
BRANCH  16  17
HETATM   17  C   UNL     1      44.443 -22.544   3.652  1.00  0.00     0.026 C 
BRANCH  17  18
HETATM   18  C   UNL     1      45.189 -21.951   4.845  1.00  0.00    -0.002 C 
HETATM   19  C   UNL     1      44.262 -21.713   6.025  1.00  0.00     0.005 C 
ENDBRANCH  17  18
ENDBRANCH  16  17
ENDBRANCH  15  16
ENDBRANCH  12  15
ENDBRANCH   6   9
ENDBRANCH   3   5
ENDBRANCH   1   3
BRANCH   1  20
HETATM   20  C   UNL     1      41.207 -12.009   4.420  1.00  0.00     0.035 A 
HETATM   21  C   UNL     1      41.888 -11.625   5.582  1.00  0.00     0.048 A 
HETATM   22  C   UNL     1      41.208 -11.483   6.808  1.00  0.00     0.052 A 
HETATM   23  C   UNL     1      39.833 -11.762   6.850  1.00  0.00     0.080 A 
HETATM   24  C   UNL     1      39.143 -12.133   5.703  1.00  0.00     0.040 A 
HETATM   25  C   UNL     1      39.828 -12.253   4.495  1.00  0.00     0.032 A 
BRANCH  22  26
HETATM   26  C   UNL     1      41.902 -11.066   8.022  1.00  0.00     0.183 A 
HETATM   27  O   UNL     1      41.143 -10.557   9.045  1.00  0.00    -0.289 OA
HETATM   28  C   UNL     1      42.042 -10.369  10.056  1.00  0.00     0.107 A 
HETATM   29  C   UNL     1      43.290 -10.751   9.591  1.00  0.00     0.093 A 
HETATM   30  C   UNL     1      41.787  -9.898  11.339  1.00  0.00     0.046 A 
HETATM   31  N   UNL     1      43.189 -11.208   8.302  1.00  0.00    -0.221 NA
HETATM   32  C   UNL     1      44.394 -10.647  10.443  1.00  0.00     0.035 A 
HETATM   33  C   UNL     1      44.180 -10.176  11.748  1.00  0.00     0.009 A 
HETATM   34  C   UNL     1      42.897  -9.813  12.198  1.00  0.00    -0.059 A 
HETATM   35  C   UNL     1      42.723  -9.353  13.619  1.00  0.00     0.048 C 
ENDBRANCH  22  26
BRANCH  23  36
HETATM   36  O   UNL     1      39.090 -11.696   8.002  1.00  0.00    -0.360 OA
HETATM   37  H   UNL     1      39.643 -12.010   8.750  1.00  0.00     0.217 HD
ENDBRANCH  23  36
ENDBRANCH   1  20
TORSDOF 10
ENDMDL
