MODEL 1
REMARK VINA RESULT:     -10.0      0.000      0.000
REMARK  7 active torsions:
REMARK  status: ('A' for Active; 'I' for Inactive)
REMARK    1  A    between atoms: N_7  and  C_8 
REMARK    2  A    between atoms: C_8  and  C_9 
REMARK       I    between atoms: C_9  and  N_10 
REMARK    3  A    between atoms: N_10  and  C_11 
REMARK    4  A    between atoms: C_11  and  C_12 
REMARK    5  A    between atoms: C_12  and  C_13 
REMARK    6  A    between atoms: C_12  and  C_23 
REMARK    7  A    between atoms: C_26  and  O_27 
ROOT
HETATM    1  C   UNL     1      44.137 -15.182   6.986  1.00  0.00     0.136 C 
ENDROOT
BRANCH   1   2
HETATM    2  N   UNL     1      44.041 -14.078   7.932  1.00  0.00    -0.359 N 
HETATM    3  C   UNL     1      45.064 -13.137   7.902  1.00  0.00     0.236 C 
HETATM    4  O   UNL     1      46.128 -13.343   7.318  1.00  0.00    -0.272 OA
HETATM    5  H   UNL     1      43.116 -13.722   8.151  1.00  0.00     0.162 HD
BRANCH   3   6
HETATM    6  C   UNL     1      44.718 -11.750   8.427  1.00  0.00     0.239 C 
BRANCH   6   7
HETATM    7  N   UNL     1      44.013 -11.713   9.689  1.00  0.00    -0.259 N 
HETATM    8  C   UNL     1      44.527 -12.206  10.847  1.00  0.00     0.326 C 
HETATM    9  N   UNL     1      43.705 -11.831  11.882  1.00  0.00    -0.324 N 
HETATM   10  O   UNL     1      45.558 -12.837  11.001  1.00  0.00    -0.247 OA
HETATM   11  C   UNL     1      42.714 -10.847  11.476  1.00  0.00     0.119 C 
HETATM   12  H   UNL     1      44.005 -12.005  12.834  1.00  0.00     0.165 HD
HETATM   13  C   UNL     1      41.324 -11.221  12.030  1.00  0.00     0.019 C 
HETATM   14  C   UNL     1      42.898 -10.968   9.942  1.00  0.00     0.257 C 
HETATM   15  C   UNL     1      43.166  -9.434  11.893  1.00  0.00     0.041 C 
HETATM   16  C   UNL     1      40.167 -10.476  11.355  1.00  0.00     0.013 C 
HETATM   17  C   UNL     1      41.283 -10.986  13.557  1.00  0.00     0.007 C 
HETATM   18  C   UNL     1      41.712  -9.574  13.958  1.00  0.00     0.001 C 
HETATM   19  C   UNL     1      43.086  -9.216  13.403  1.00  0.00     0.003 C 
HETATM   20  O   UNL     1      42.233 -10.398   9.085  1.00  0.00    -0.270 OA
ENDBRANCH   6   7
ENDBRANCH   3   6
ENDBRANCH   1   2
BRANCH   1  21
HETATM   21  C   UNL     1      43.353 -15.140   5.662  1.00  0.00     0.071 C 
BRANCH  21  22
HETATM   22  C   UNL     1      41.878 -14.817   5.722  1.00  0.00    -0.020 A 
HETATM   23  C   UNL     1      41.317 -13.492   5.582  1.00  0.00    -0.001 A 
HETATM   24  C   UNL     1      39.934 -13.596   5.724  1.00  0.00     0.042 A 
HETATM   25  C   UNL     1      41.865 -12.213   5.348  1.00  0.00     0.014 A 
HETATM   26  C   UNL     1      39.075 -12.491   5.652  1.00  0.00     0.030 A 
HETATM   27  N   UNL     1      39.649 -14.922   5.925  1.00  0.00    -0.365 N 
HETATM   28  C   UNL     1      39.648 -11.237   5.421  1.00  0.00     0.002 A 
HETATM   29  C   UNL     1      41.023 -11.097   5.268  1.00  0.00     0.001 A 
HETATM   30  H   UNL     1      38.718 -15.296   6.052  1.00  0.00     0.165 HD
HETATM   31  C   UNL     1      40.801 -15.664   5.915  1.00  0.00     0.097 A 
ENDBRANCH  21  22
BRANCH  21  32
HETATM   32  C   UNL     1      43.531 -16.332   4.740  1.00  0.00    -0.048 A 
HETATM   33  C   UNL     1      43.833 -17.585   5.301  1.00  0.00     0.011 A 
HETATM   34  C   UNL     1      43.990 -18.715   4.498  1.00  0.00     0.037 A 
HETATM   35  C   UNL     1      43.849 -18.626   3.115  1.00  0.00     0.068 A 
HETATM   36  C   UNL     1      43.552 -17.390   2.541  1.00  0.00     0.037 A 
HETATM   37  C   UNL     1      43.387 -16.254   3.348  1.00  0.00     0.011 A 
BRANCH  35  38
HETATM   38  O   UNL     1      44.027 -19.808   2.450  1.00  0.00    -0.356 OA
HETATM   39  C   UNL     1      44.663 -20.857   3.167  1.00  0.00     0.210 C 
ENDBRANCH  35  38
ENDBRANCH  21  32
ENDBRANCH   1  21
TORSDOF 7
ENDMDL
MODEL 2
REMARK VINA RESULT:     -10.0      2.197      4.049
REMARK  7 active torsions:
REMARK  status: ('A' for Active; 'I' for Inactive)
REMARK    1  A    between atoms: N_7  and  C_8 
REMARK    2  A    between atoms: C_8  and  C_9 
REMARK       I    between atoms: C_9  and  N_10 
REMARK    3  A    between atoms: N_10  and  C_11 
REMARK    4  A    between atoms: C_11  and  C_12 
REMARK    5  A    between atoms: C_12  and  C_13 
REMARK    6  A    between atoms: C_12  and  C_23 
REMARK    7  A    between atoms: C_26  and  O_27 
ROOT
HETATM    1  C   UNL     1      44.418 -14.452   6.697  1.00  0.00     0.136 C 
ENDROOT
BRANCH   1   2
HETATM    2  N   UNL     1      44.527 -13.632   7.896  1.00  0.00    -0.359 N 
HETATM    3  C   UNL     1      45.635 -12.799   7.987  1.00  0.00     0.236 C 
HETATM    4  O   UNL     1      46.613 -12.925   7.248  1.00  0.00    -0.272 OA
HETATM    5  H   UNL     1      43.668 -13.276   8.305  1.00  0.00     0.162 HD
BRANCH   3   6
HETATM    6  C   UNL     1      45.487 -11.576   8.883  1.00  0.00     0.239 C 
BRANCH   6   7
HETATM    7  N   UNL     1      44.431 -11.644   9.868  1.00  0.00    -0.259 N 
HETATM    8  C   UNL     1      44.557 -12.294  11.055  1.00  0.00     0.326 C 
HETATM    9  N   UNL     1      43.465 -11.993  11.833  1.00  0.00    -0.324 N 
HETATM   10  O   UNL     1      45.479 -12.995  11.432  1.00  0.00    -0.247 OA
HETATM   11  C   UNL     1      42.664 -10.915  11.275  1.00  0.00     0.119 C 
HETATM   12  H   UNL     1      43.456 -12.291  12.801  1.00  0.00     0.165 HD
HETATM   13  C   UNL     1      41.165 -11.270  11.333  1.00  0.00     0.019 C 
HETATM   14  C   UNL     1      43.307 -10.870   9.865  1.00  0.00     0.257 C 
HETATM   15  C   UNL     1      42.995  -9.586  11.983  1.00  0.00     0.041 C 
HETATM   16  C   UNL     1      40.284 -10.388  10.440  1.00  0.00     0.013 C 
HETATM   17  C   UNL     1      40.663 -11.208  12.794  1.00  0.00     0.007 C 
HETATM   18  C   UNL     1      40.977  -9.878  13.480  1.00  0.00     0.001 C 
HETATM   19  C   UNL     1      42.461  -9.538  13.413  1.00  0.00     0.003 C 
HETATM   20  O   UNL     1      42.947 -10.169   8.926  1.00  0.00    -0.270 OA
ENDBRANCH   6   7
ENDBRANCH   3   6
ENDBRANCH   1   2
BRANCH   1  21
HETATM   21  C   UNL     1      43.235 -15.422   6.524  1.00  0.00     0.071 C 
BRANCH  21  22
HETATM   22  C   UNL     1      43.431 -16.861   6.942  1.00  0.00    -0.020 A 
HETATM   23  C   UNL     1      43.808 -17.935   6.051  1.00  0.00    -0.001 A 
HETATM   24  C   UNL     1      43.859 -19.112   6.796  1.00  0.00     0.042 A 
HETATM   25  C   UNL     1      44.112 -18.009   4.674  1.00  0.00     0.014 A 
HETATM   26  C   UNL     1      44.187 -20.354   6.239  1.00  0.00     0.030 A 
HETATM   27  N   UNL     1      43.544 -18.782   8.090  1.00  0.00    -0.365 N 
HETATM   28  C   UNL     1      44.480 -20.396   4.873  1.00  0.00     0.002 A 
HETATM   29  C   UNL     1      44.446 -19.240   4.099  1.00  0.00     0.001 A 
HETATM   30  H   UNL     1      43.510 -19.439   8.857  1.00  0.00     0.165 HD
HETATM   31  C   UNL     1      43.297 -17.438   8.192  1.00  0.00     0.097 A 
ENDBRANCH  21  22
BRANCH  21  32
HETATM   32  C   UNL     1      42.559 -15.420   5.166  1.00  0.00    -0.048 A 
HETATM   33  C   UNL     1      43.261 -14.909   4.060  1.00  0.00     0.011 A 
HETATM   34  C   UNL     1      42.692 -14.899   2.787  1.00  0.00     0.037 A 
HETATM   35  C   UNL     1      41.408 -15.401   2.581  1.00  0.00     0.068 A 
HETATM   36  C   UNL     1      40.696 -15.908   3.668  1.00  0.00     0.037 A 
HETATM   37  C   UNL     1      41.270 -15.925   4.948  1.00  0.00     0.011 A 
BRANCH  35  38
HETATM   38  O   UNL     1      40.973 -15.331   1.286  1.00  0.00    -0.356 OA
HETATM   39  C   UNL     1      41.765 -15.989   0.308  1.00  0.00     0.210 C 
ENDBRANCH  35  38
ENDBRANCH  21  32
ENDBRANCH   1  21
TORSDOF 7
ENDMDL
MODEL 3
REMARK VINA RESULT:      -9.9      2.022      4.270
REMARK  7 active torsions:
REMARK  status: ('A' for Active; 'I' for Inactive)
REMARK    1  A    between atoms: N_7  and  C_8 
REMARK    2  A    between atoms: C_8  and  C_9 
REMARK       I    between atoms: C_9  and  N_10 
REMARK    3  A    between atoms: N_10  and  C_11 
REMARK    4  A    between atoms: C_11  and  C_12 
REMARK    5  A    between atoms: C_12  and  C_13 
REMARK    6  A    between atoms: C_12  and  C_23 
REMARK    7  A    between atoms: C_26  and  O_27 
ROOT
HETATM    1  C   UNL     1      44.281 -14.446   6.557  1.00  0.00     0.136 C 
ENDROOT
BRANCH   1   2
HETATM    2  N   UNL     1      44.364 -13.660   7.782  1.00  0.00    -0.359 N 
HETATM    3  C   UNL     1      45.502 -12.881   7.950  1.00  0.00     0.236 C 
HETATM    4  O   UNL     1      46.510 -13.034   7.259  1.00  0.00    -0.272 OA
HETATM    5  H   UNL     1      43.502 -13.276   8.155  1.00  0.00     0.162 HD
BRANCH   3   6
HETATM    6  C   UNL     1      45.361 -11.675   8.869  1.00  0.00     0.239 C 
BRANCH   6   7
HETATM    7  N   UNL     1      44.215 -11.686   9.750  1.00  0.00    -0.259 N 
HETATM    8  C   UNL     1      44.201 -12.320  10.952  1.00  0.00     0.326 C 
HETATM    9  N   UNL     1      43.054 -11.965  11.618  1.00  0.00    -0.324 N 
HETATM   10  O   UNL     1      45.056 -13.049  11.425  1.00  0.00    -0.247 OA
HETATM   11  C   UNL     1      42.352 -10.867  10.971  1.00  0.00     0.119 C 
HETATM   12  H   UNL     1      42.941 -12.246  12.585  1.00  0.00     0.165 HD
HETATM   13  C   UNL     1      40.841 -11.166  10.890  1.00  0.00     0.019 C 
HETATM   14  C   UNL     1      43.127 -10.871   9.628  1.00  0.00     0.257 C 
HETATM   15  C   UNL     1      42.664  -9.541  11.690  1.00  0.00     0.041 C 
HETATM   16  C   UNL     1      40.084 -10.266   9.906  1.00  0.00     0.013 C 
HETATM   17  C   UNL     1      40.205 -11.060  12.295  1.00  0.00     0.007 C 
HETATM   18  C   UNL     1      40.504  -9.731  12.991  1.00  0.00     0.001 C 
HETATM   19  C   UNL     1      42.000  -9.448  13.062  1.00  0.00     0.003 C 
HETATM   20  O   UNL     1      42.885 -10.173   8.651  1.00  0.00    -0.270 OA
ENDBRANCH   6   7
ENDBRANCH   3   6
ENDBRANCH   1   2
BRANCH   1  21
HETATM   21  C   UNL     1      42.975 -15.170   6.186  1.00  0.00     0.071 C 
BRANCH  21  22
HETATM   22  C   UNL     1      43.070 -16.591   5.680  1.00  0.00    -0.020 A 
HETATM   23  C   UNL     1      43.364 -16.963   4.315  1.00  0.00    -0.001 A 
HETATM   24  C   UNL     1      43.335 -18.355   4.235  1.00  0.00     0.042 A 
HETATM   25  C   UNL     1      43.653 -16.237   3.139  1.00  0.00     0.014 A 
HETATM   26  C   UNL     1      43.571 -19.055   3.045  1.00  0.00     0.030 A 
HETATM   27  N   UNL     1      43.053 -18.823   5.493  1.00  0.00    -0.365 N 
HETATM   28  C   UNL     1      43.851 -18.309   1.897  1.00  0.00     0.002 A 
HETATM   29  C   UNL     1      43.895 -16.920   1.941  1.00  0.00     0.001 A 
HETATM   30  H   UNL     1      42.978 -19.802   5.736  1.00  0.00     0.165 HD
HETATM   31  C   UNL     1      42.903 -17.780   6.368  1.00  0.00     0.097 A 
ENDBRANCH  21  22
BRANCH  21  32
HETATM   32  C   UNL     1      42.025 -14.414   5.274  1.00  0.00    -0.048 A 
HETATM   33  C   UNL     1      40.712 -14.892   5.117  1.00  0.00     0.011 A 
HETATM   34  C   UNL     1      39.796 -14.225   4.304  1.00  0.00     0.037 A 
HETATM   35  C   UNL     1      40.163 -13.064   3.627  1.00  0.00     0.068 A 
HETATM   36  C   UNL     1      41.463 -12.579   3.768  1.00  0.00     0.037 A 
HETATM   37  C   UNL     1      42.384 -13.244   4.591  1.00  0.00     0.011 A 
BRANCH  35  38
HETATM   38  O   UNL     1      39.169 -12.513   2.867  1.00  0.00    -0.356 OA
HETATM   39  C   UNL     1      38.708 -13.277   1.761  1.00  0.00     0.210 C 
ENDBRANCH  35  38
ENDBRANCH  21  32
ENDBRANCH   1  21
TORSDOF 7
ENDMDL
MODEL 4
REMARK VINA RESULT:      -9.6      5.193     10.669
REMARK  7 active torsions:
REMARK  status: ('A' for Active; 'I' for Inactive)
REMARK    1  A    between atoms: N_7  and  C_8 
REMARK    2  A    between atoms: C_8  and  C_9 
REMARK       I    between atoms: C_9  and  N_10 
REMARK    3  A    between atoms: N_10  and  C_11 
REMARK    4  A    between atoms: C_11  and  C_12 
REMARK    5  A    between atoms: C_12  and  C_13 
REMARK    6  A    between atoms: C_12  and  C_23 
REMARK    7  A    between atoms: C_26  and  O_27 
ROOT
HETATM    1  C   UNL     1      43.515 -17.524   1.467  1.00  0.00     0.136 C 
ENDROOT
BRANCH   1   2
HETATM    2  N   UNL     1      42.817 -16.517   0.679  1.00  0.00    -0.359 N 
HETATM    3  C   UNL     1      41.441 -16.663   0.553  1.00  0.00     0.236 C 
HETATM    4  O   UNL     1      40.863 -17.711   0.845  1.00  0.00    -0.272 OA
HETATM    5  H   UNL     1      43.161 -15.563   0.721  1.00  0.00     0.162 HD
BRANCH   3   6
HETATM    6  C   UNL     1      40.653 -15.394   0.258  1.00  0.00     0.239 C 
BRANCH   6   7
HETATM    7  N   UNL     1      41.088 -14.638  -0.895  1.00  0.00    -0.259 N 
HETATM    8  C   UNL     1      40.963 -15.084  -2.173  1.00  0.00     0.326 C 
HETATM    9  N   UNL     1      41.275 -14.054  -3.026  1.00  0.00    -0.324 N 
HETATM   10  O   UNL     1      40.594 -16.182  -2.551  1.00  0.00    -0.247 OA
HETATM   11  C   UNL     1      41.395 -12.778  -2.338  1.00  0.00     0.119 C 
HETATM   12  H   UNL     1      41.112 -14.173  -4.018  1.00  0.00     0.165 HD
HETATM   13  C   UNL     1      42.654 -12.025  -2.812  1.00  0.00     0.019 C 
HETATM   14  C   UNL     1      41.422 -13.314  -0.883  1.00  0.00     0.257 C 
HETATM   15  C   UNL     1      40.103 -11.957  -2.512  1.00  0.00     0.041 C 
HETATM   16  C   UNL     1      43.070 -10.872  -1.891  1.00  0.00     0.013 C 
HETATM   17  C   UNL     1      42.445 -11.501  -4.251  1.00  0.00     0.007 C 
HETATM   18  C   UNL     1      41.172 -10.669  -4.408  1.00  0.00     0.001 C 
HETATM   19  C   UNL     1      39.936 -11.425  -3.934  1.00  0.00     0.003 C 
HETATM   20  O   UNL     1      41.593 -12.649   0.131  1.00  0.00    -0.270 OA
ENDBRANCH   6   7
ENDBRANCH   3   6
ENDBRANCH   1   2
BRANCH   1  21
HETATM   21  C   UNL     1      43.872 -17.248   2.939  1.00  0.00     0.071 C 
BRANCH  21  22
HETATM   22  C   UNL     1      44.237 -18.426   3.813  1.00  0.00    -0.020 A 
HETATM   23  C   UNL     1      44.279 -19.801   3.370  1.00  0.00    -0.001 A 
HETATM   24  C   UNL     1      44.625 -20.593   4.464  1.00  0.00     0.042 A 
HETATM   25  C   UNL     1      44.053 -20.442   2.133  1.00  0.00     0.014 A 
HETATM   26  C   UNL     1      44.748 -21.986   4.389  1.00  0.00     0.030 A 
HETATM   27  N   UNL     1      44.805 -19.748   5.530  1.00  0.00    -0.365 N 
HETATM   28  C   UNL     1      44.516 -22.592   3.151  1.00  0.00     0.002 A 
HETATM   29  C   UNL     1      44.175 -21.833   2.036  1.00  0.00     0.001 A 
HETATM   30  H   UNL     1      45.071 -20.046   6.459  1.00  0.00     0.165 HD
HETATM   31  C   UNL     1      44.587 -18.449   5.152  1.00  0.00     0.097 A 
ENDBRANCH  21  22
BRANCH  21  32
HETATM   32  C   UNL     1      42.900 -16.377   3.713  1.00  0.00    -0.048 A 
HETATM   33  C   UNL     1      41.725 -16.959   4.220  1.00  0.00     0.011 A 
HETATM   34  C   UNL     1      40.807 -16.207   4.952  1.00  0.00     0.037 A 
HETATM   35  C   UNL     1      41.037 -14.855   5.201  1.00  0.00     0.068 A 
HETATM   36  C   UNL     1      42.196 -14.261   4.703  1.00  0.00     0.037 A 
HETATM   37  C   UNL     1      43.124 -15.019   3.972  1.00  0.00     0.011 A 
BRANCH  35  38
HETATM   38  O   UNL     1      40.058 -14.239   5.931  1.00  0.00    -0.356 OA
HETATM   39  C   UNL     1      40.010 -12.820   5.870  1.00  0.00     0.210 C 
ENDBRANCH  35  38
ENDBRANCH  21  32
ENDBRANCH   1  21
TORSDOF 7
ENDMDL
MODEL 5
REMARK VINA RESULT:      -9.6      2.484      4.406
REMARK  7 active torsions:
REMARK  status: ('A' for Active; 'I' for Inactive)
REMARK    1  A    between atoms: N_7  and  C_8 
REMARK    2  A    between atoms: C_8  and  C_9 
REMARK       I    between atoms: C_9  and  N_10 
REMARK    3  A    between atoms: N_10  and  C_11 
REMARK    4  A    between atoms: C_11  and  C_12 
REMARK    5  A    between atoms: C_12  and  C_13 
REMARK    6  A    between atoms: C_12  and  C_23 
REMARK    7  A    between atoms: C_26  and  O_27 
ROOT
HETATM    1  C   UNL     1      40.816 -13.003   5.850  1.00  0.00     0.136 C 
ENDROOT
BRANCH   1   2
HETATM    2  N   UNL     1      41.149 -11.586   5.788  1.00  0.00    -0.359 N 
HETATM    3  C   UNL     1      40.416 -10.735   6.607  1.00  0.00     0.236 C 
HETATM    4  O   UNL     1      39.371 -11.089   7.153  1.00  0.00    -0.272 OA
HETATM    5  H   UNL     1      42.121 -11.335   5.642  1.00  0.00     0.162 HD
BRANCH   3   6
HETATM    6  C   UNL     1      41.089  -9.422   6.985  1.00  0.00     0.239 C 
BRANCH   6   7
HETATM    7  N   UNL     1      41.548  -9.322   8.352  1.00  0.00    -0.259 N 
HETATM    8  C   UNL     1      40.983  -8.497   9.273  1.00  0.00     0.326 C 
HETATM    9  N   UNL     1      41.513  -8.793  10.505  1.00  0.00    -0.324 N 
HETATM   10  O   UNL     1      40.119  -7.657   9.097  1.00  0.00    -0.247 OA
HETATM   11  C   UNL     1      42.297 -10.018  10.494  1.00  0.00     0.119 C 
HETATM   12  H   UNL     1      41.111  -8.361  11.328  1.00  0.00     0.165 HD
HETATM   13  C   UNL     1      43.626  -9.815  11.249  1.00  0.00     0.019 C 
HETATM   14  C   UNL     1      42.400 -10.200   8.958  1.00  0.00     0.257 C 
HETATM   15  C   UNL     1      41.463 -11.188  11.051  1.00  0.00     0.041 C 
HETATM   16  C   UNL     1      44.670 -10.904  10.971  1.00  0.00     0.013 C 
HETATM   17  C   UNL     1      43.361  -9.716  12.769  1.00  0.00     0.007 C 
HETATM   18  C   UNL     1      42.551 -10.893  13.315  1.00  0.00     0.001 C 
HETATM   19  C   UNL     1      41.242 -11.083  12.558  1.00  0.00     0.003 C 
HETATM   20  O   UNL     1      43.043 -11.063   8.372  1.00  0.00    -0.270 OA
ENDBRANCH   6   7
ENDBRANCH   3   6
ENDBRANCH   1   2
BRANCH   1  21
HETATM   21  C   UNL     1      41.681 -14.037   5.106  1.00  0.00     0.071 C 
BRANCH  21  22
HETATM   22  C   UNL     1      41.079 -14.736   3.909  1.00  0.00    -0.020 A 
HETATM   23  C   UNL     1      41.820 -15.541   2.964  1.00  0.00    -0.001 A 
HETATM   24  C   UNL     1      40.928 -15.988   1.991  1.00  0.00     0.042 A 
HETATM   25  C   UNL     1      43.173 -15.928   2.851  1.00  0.00     0.014 A 
HETATM   26  C   UNL     1      41.317 -16.792   0.911  1.00  0.00     0.030 A 
HETATM   27  N   UNL     1      39.691 -15.499   2.325  1.00  0.00    -0.365 N 
HETATM   28  C   UNL     1      42.663 -17.157   0.826  1.00  0.00     0.002 A 
HETATM   29  C   UNL     1      43.580 -16.734   1.782  1.00  0.00     0.001 A 
HETATM   30  H   UNL     1      38.845 -15.672   1.798  1.00  0.00     0.165 HD
HETATM   31  C   UNL     1      39.765 -14.758   3.475  1.00  0.00     0.097 A 
ENDBRANCH  21  22
BRANCH  21  32
HETATM   32  C   UNL     1      42.359 -15.087   5.966  1.00  0.00    -0.048 A 
HETATM   33  C   UNL     1      41.617 -16.209   6.377  1.00  0.00     0.011 A 
HETATM   34  C   UNL     1      42.198 -17.211   7.154  1.00  0.00     0.037 A 
HETATM   35  C   UNL     1      43.534 -17.123   7.541  1.00  0.00     0.068 A 
HETATM   36  C   UNL     1      44.283 -16.015   7.144  1.00  0.00     0.037 A 
HETATM   37  C   UNL     1      43.702 -15.010   6.357  1.00  0.00     0.011 A 
BRANCH  35  38
HETATM   38  O   UNL     1      43.974 -18.173   8.298  1.00  0.00    -0.356 OA
HETATM   39  C   UNL     1      43.863 -19.468   7.726  1.00  0.00     0.210 C 
ENDBRANCH  35  38
ENDBRANCH  21  32
ENDBRANCH   1  21
TORSDOF 7
ENDMDL
MODEL 6
REMARK VINA RESULT:      -9.4      5.772     10.015
REMARK  7 active torsions:
REMARK  status: ('A' for Active; 'I' for Inactive)
REMARK    1  A    between atoms: N_7  and  C_8 
REMARK    2  A    between atoms: C_8  and  C_9 
REMARK       I    between atoms: C_9  and  N_10 
REMARK    3  A    between atoms: N_10  and  C_11 
REMARK    4  A    between atoms: C_11  and  C_12 
REMARK    5  A    between atoms: C_12  and  C_13 
REMARK    6  A    between atoms: C_12  and  C_23 
REMARK    7  A    between atoms: C_26  and  O_27 
ROOT
HETATM    1  C   UNL     1      40.902 -17.115   1.661  1.00  0.00     0.136 C 
ENDROOT
BRANCH   1   2
HETATM    2  N   UNL     1      40.206 -15.954   1.122  1.00  0.00    -0.359 N 
HETATM    3  C   UNL     1      40.844 -15.260   0.100  1.00  0.00     0.236 C 
HETATM    4  O   UNL     1      42.036 -15.428  -0.162  1.00  0.00    -0.272 OA
HETATM    5  H   UNL     1      39.193 -15.993   1.067  1.00  0.00     0.162 HD
BRANCH   3   6
HETATM    6  C   UNL     1      39.946 -14.455  -0.829  1.00  0.00     0.239 C 
BRANCH   6   7
HETATM    7  N   UNL     1      40.624 -13.697  -1.858  1.00  0.00    -0.259 N 
HETATM    8  C   UNL     1      40.874 -14.183  -3.102  1.00  0.00     0.326 C 
HETATM    9  N   UNL     1      41.336 -13.154  -3.886  1.00  0.00    -0.324 N 
HETATM   10  O   UNL     1      40.693 -15.315  -3.515  1.00  0.00    -0.247 OA
HETATM   11  C   UNL     1      41.184 -11.856  -3.247  1.00  0.00     0.119 C 
HETATM   12  H   UNL     1      41.453 -13.309  -4.880  1.00  0.00     0.165 HD
HETATM   13  C   UNL     1      42.473 -11.024  -3.402  1.00  0.00     0.019 C 
HETATM   14  C   UNL     1      40.855 -12.353  -1.815  1.00  0.00     0.257 C 
HETATM   15  C   UNL     1      39.935 -11.138  -3.794  1.00  0.00     0.041 C 
HETATM   16  C   UNL     1      42.551  -9.820  -2.456  1.00  0.00     0.013 C 
HETATM   17  C   UNL     1      42.623 -10.552  -4.867  1.00  0.00     0.007 C 
HETATM   18  C   UNL     1      41.387  -9.821  -5.392  1.00  0.00     0.001 C 
HETATM   19  C   UNL     1      40.121 -10.655  -5.230  1.00  0.00     0.003 C 
HETATM   20  O   UNL     1      40.705 -11.651  -0.822  1.00  0.00    -0.270 OA
ENDBRANCH   6   7
ENDBRANCH   3   6
ENDBRANCH   1   2
BRANCH   1  21
HETATM   21  C   UNL     1      41.619 -17.028   3.020  1.00  0.00     0.071 C 
BRANCH  21  22
HETATM   22  C   UNL     1      42.195 -15.694   3.434  1.00  0.00    -0.020 A 
HETATM   23  C   UNL     1      41.552 -14.759   4.328  1.00  0.00    -0.001 A 
HETATM   24  C   UNL     1      42.374 -13.638   4.441  1.00  0.00     0.042 A 
HETATM   25  C   UNL     1      40.340 -14.766   5.052  1.00  0.00     0.014 A 
HETATM   26  C   UNL     1      42.047 -12.528   5.230  1.00  0.00     0.030 A 
HETATM   27  N   UNL     1      43.482 -13.875   3.668  1.00  0.00    -0.365 N 
HETATM   28  C   UNL     1      40.839 -12.564   5.933  1.00  0.00     0.002 A 
HETATM   29  C   UNL     1      39.997 -13.667   5.849  1.00  0.00     0.001 A 
HETATM   30  H   UNL     1      44.257 -13.233   3.566  1.00  0.00     0.165 HD
HETATM   31  C   UNL     1      43.393 -15.104   3.070  1.00  0.00     0.097 A 
ENDBRANCH  21  22
BRANCH  21  32
HETATM   32  C   UNL     1      42.665 -18.092   3.296  1.00  0.00    -0.048 A 
HETATM   33  C   UNL     1      42.981 -18.403   4.630  1.00  0.00     0.011 A 
HETATM   34  C   UNL     1      43.923 -19.384   4.938  1.00  0.00     0.037 A 
HETATM   35  C   UNL     1      44.573 -20.085   3.924  1.00  0.00     0.068 A 
HETATM   36  C   UNL     1      44.275 -19.787   2.594  1.00  0.00     0.037 A 
HETATM   37  C   UNL     1      43.322 -18.804   2.283  1.00  0.00     0.011 A 
BRANCH  35  38
HETATM   38  O   UNL     1      45.470 -21.018   4.365  1.00  0.00    -0.356 OA
HETATM   39  C   UNL     1      44.947 -22.106   5.114  1.00  0.00     0.210 C 
ENDBRANCH  35  38
ENDBRANCH  21  32
ENDBRANCH   1  21
TORSDOF 7
ENDMDL
MODEL 7
REMARK VINA RESULT:      -9.0      2.583      4.919
REMARK  7 active torsions:
REMARK  status: ('A' for Active; 'I' for Inactive)
REMARK    1  A    between atoms: N_7  and  C_8 
REMARK    2  A    between atoms: C_8  and  C_9 
REMARK       I    between atoms: C_9  and  N_10 
REMARK    3  A    between atoms: N_10  and  C_11 
REMARK    4  A    between atoms: C_11  and  C_12 
REMARK    5  A    between atoms: C_12  and  C_13 
REMARK    6  A    between atoms: C_12  and  C_23 
REMARK    7  A    between atoms: C_26  and  O_27 
ROOT
HETATM    1  C   UNL     1      40.574 -13.383   6.229  1.00  0.00     0.136 C 
ENDROOT
BRANCH   1   2
HETATM    2  N   UNL     1      41.097 -12.039   6.018  1.00  0.00    -0.359 N 
HETATM    3  C   UNL     1      40.424 -10.999   6.648  1.00  0.00     0.236 C 
HETATM    4  O   UNL     1      39.301 -11.143   7.133  1.00  0.00    -0.272 OA
HETATM    5  H   UNL     1      42.103 -11.932   5.934  1.00  0.00     0.162 HD
BRANCH   3   6
HETATM    6  C   UNL     1      41.235  -9.739   6.918  1.00  0.00     0.239 C 
BRANCH   6   7
HETATM    7  N   UNL     1      41.650  -9.539   8.288  1.00  0.00    -0.259 N 
HETATM    8  C   UNL     1      41.036  -8.673   9.137  1.00  0.00     0.326 C 
HETATM    9  N   UNL     1      41.535  -8.876  10.401  1.00  0.00    -0.324 N 
HETATM   10  O   UNL     1      40.156  -7.871   8.882  1.00  0.00    -0.247 OA
HETATM   11  C   UNL     1      42.351 -10.076  10.491  1.00  0.00     0.119 C 
HETATM   12  H   UNL     1      41.098  -8.403  11.182  1.00  0.00     0.165 HD
HETATM   13  C   UNL     1      43.651  -9.788  11.269  1.00  0.00     0.019 C 
HETATM   14  C   UNL     1      42.506 -10.352   8.973  1.00  0.00     0.257 C 
HETATM   15  C   UNL     1      41.531 -11.231  11.097  1.00  0.00     0.041 C 
HETATM   16  C   UNL     1      44.730 -10.863  11.092  1.00  0.00     0.013 C 
HETATM   17  C   UNL     1      43.337  -9.601  12.771  1.00  0.00     0.007 C 
HETATM   18  C   UNL     1      42.542 -10.762  13.368  1.00  0.00     0.001 C 
HETATM   19  C   UNL     1      41.261 -11.037  12.588  1.00  0.00     0.003 C 
HETATM   20  O   UNL     1      43.188 -11.233   8.462  1.00  0.00    -0.270 OA
ENDBRANCH   6   7
ENDBRANCH   3   6
ENDBRANCH   1   2
BRANCH   1  21
HETATM   21  C   UNL     1      41.202 -14.584   5.499  1.00  0.00     0.071 C 
BRANCH  21  22
HETATM   22  C   UNL     1      42.550 -15.076   5.974  1.00  0.00    -0.020 A 
HETATM   23  C   UNL     1      43.008 -16.443   5.881  1.00  0.00    -0.001 A 
HETATM   24  C   UNL     1      44.281 -16.508   6.448  1.00  0.00     0.042 A 
HETATM   25  C   UNL     1      42.452 -17.634   5.364  1.00  0.00     0.014 A 
HETATM   26  C   UNL     1      45.019 -17.696   6.532  1.00  0.00     0.030 A 
HETATM   27  N   UNL     1      44.603 -15.239   6.857  1.00  0.00    -0.365 N 
HETATM   28  C   UNL     1      44.441 -18.858   6.014  1.00  0.00     0.002 A 
HETATM   29  C   UNL     1      43.176 -18.830   5.435  1.00  0.00     0.001 A 
HETATM   30  H   UNL     1      45.475 -14.983   7.299  1.00  0.00     0.165 HD
HETATM   31  C   UNL     1      43.581 -14.372   6.569  1.00  0.00     0.097 A 
ENDBRANCH  21  22
BRANCH  21  32
HETATM   32  C   UNL     1      41.245 -14.501   3.984  1.00  0.00    -0.048 A 
HETATM   33  C   UNL     1      40.210 -15.099   3.243  1.00  0.00     0.011 A 
HETATM   34  C   UNL     1      40.193 -15.037   1.850  1.00  0.00     0.037 A 
HETATM   35  C   UNL     1      41.205 -14.376   1.158  1.00  0.00     0.068 A 
HETATM   36  C   UNL     1      42.242 -13.780   1.877  1.00  0.00     0.037 A 
HETATM   37  C   UNL     1      42.256 -13.835   3.279  1.00  0.00     0.011 A 
BRANCH  35  38
HETATM   38  O   UNL     1      41.065 -14.391  -0.202  1.00  0.00    -0.356 OA
HETATM   39  C   UNL     1      39.811 -13.973  -0.722  1.00  0.00     0.210 C 
ENDBRANCH  35  38
ENDBRANCH  21  32
ENDBRANCH   1  21
TORSDOF 7
ENDMDL
MODEL 8
REMARK VINA RESULT:      -9.0      2.475      4.389
REMARK  7 active torsions:
REMARK  status: ('A' for Active; 'I' for Inactive)
REMARK    1  A    between atoms: N_7  and  C_8 
REMARK    2  A    between atoms: C_8  and  C_9 
REMARK       I    between atoms: C_9  and  N_10 
REMARK    3  A    between atoms: N_10  and  C_11 
REMARK    4  A    between atoms: C_11  and  C_12 
REMARK    5  A    between atoms: C_12  and  C_13 
REMARK    6  A    between atoms: C_12  and  C_23 
REMARK    7  A    between atoms: C_26  and  O_27 
ROOT
HETATM    1  C   UNL     1      39.945 -13.311   5.297  1.00  0.00     0.136 C 
ENDROOT
BRANCH   1   2
HETATM    2  N   UNL     1      40.191 -12.485   6.472  1.00  0.00    -0.359 N 
HETATM    3  C   UNL     1      39.964 -11.121   6.337  1.00  0.00     0.236 C 
HETATM    4  O   UNL     1      39.827 -10.584   5.237  1.00  0.00    -0.272 OA
HETATM    5  H   UNL     1      39.982 -12.883   7.382  1.00  0.00     0.162 HD
BRANCH   3   6
HETATM    6  C   UNL     1      39.659 -10.359   7.620  1.00  0.00     0.239 C 
BRANCH   6   7
HETATM    7  N   UNL     1      40.598 -10.551   8.703  1.00  0.00    -0.259 N 
HETATM    8  C   UNL     1      41.947 -10.514   8.539  1.00  0.00     0.326 C 
HETATM    9  N   UNL     1      42.536 -10.523   9.779  1.00  0.00    -0.324 N 
HETATM   10  O   UNL     1      42.573 -10.437   7.496  1.00  0.00    -0.247 OA
HETATM   11  C   UNL     1      41.576 -10.322  10.853  1.00  0.00     0.119 C 
HETATM   12  H   UNL     1      43.535 -10.372   9.848  1.00  0.00     0.165 HD
HETATM   13  C   UNL     1      41.825 -11.327  11.996  1.00  0.00     0.019 C 
HETATM   14  C   UNL     1      40.278 -10.526  10.029  1.00  0.00     0.257 C 
HETATM   15  C   UNL     1      41.608  -8.856  11.325  1.00  0.00     0.041 C 
HETATM   16  C   UNL     1      40.656 -11.449  12.980  1.00  0.00     0.013 C 
HETATM   17  C   UNL     1      43.117 -10.951  12.757  1.00  0.00     0.007 C 
HETATM   18  C   UNL     1      43.128  -9.500  13.240  1.00  0.00     0.001 C 
HETATM   19  C   UNL     1      42.879  -8.518  12.101  1.00  0.00     0.003 C 
HETATM   20  O   UNL     1      39.135 -10.542  10.471  1.00  0.00    -0.270 OA
ENDBRANCH   6   7
ENDBRANCH   3   6
ENDBRANCH   1   2
BRANCH   1  21
HETATM   21  C   UNL     1      41.062 -14.203   4.727  1.00  0.00     0.071 C 
BRANCH  21  22
HETATM   22  C   UNL     1      40.792 -14.940   3.435  1.00  0.00    -0.020 A 
HETATM   23  C   UNL     1      41.772 -15.712   2.706  1.00  0.00    -0.001 A 
HETATM   24  C   UNL     1      41.156 -16.211   1.558  1.00  0.00     0.042 A 
HETATM   25  C   UNL     1      43.130 -16.032   2.921  1.00  0.00     0.014 A 
HETATM   26  C   UNL     1      41.825 -17.002   0.616  1.00  0.00     0.030 A 
HETATM   27  N   UNL     1      39.853 -15.782   1.584  1.00  0.00    -0.365 N 
HETATM   28  C   UNL     1      43.170 -17.299   0.855  1.00  0.00     0.002 A 
HETATM   29  C   UNL     1      43.815 -16.824   1.992  1.00  0.00     0.001 A 
HETATM   30  H   UNL     1      39.164 -16.001   0.877  1.00  0.00     0.165 HD
HETATM   31  C   UNL     1      39.620 -15.031   2.706  1.00  0.00     0.097 A 
ENDBRANCH  21  22
BRANCH  21  32
HETATM   32  C   UNL     1      41.700 -15.181   5.696  1.00  0.00    -0.048 A 
HETATM   33  C   UNL     1      42.993 -14.912   6.178  1.00  0.00     0.011 A 
HETATM   34  C   UNL     1      43.617 -15.770   7.083  1.00  0.00     0.037 A 
HETATM   35  C   UNL     1      42.969 -16.919   7.533  1.00  0.00     0.068 A 
HETATM   36  C   UNL     1      41.687 -17.203   7.062  1.00  0.00     0.037 A 
HETATM   37  C   UNL     1      41.055 -16.337   6.157  1.00  0.00     0.011 A 
BRANCH  35  38
HETATM   38  O   UNL     1      43.694 -17.669   8.417  1.00  0.00    -0.356 OA
HETATM   39  C   UNL     1      44.409 -18.775   7.885  1.00  0.00     0.210 C 
ENDBRANCH  35  38
ENDBRANCH  21  32
ENDBRANCH   1  21
TORSDOF 7
ENDMDL
MODEL 9
REMARK VINA RESULT:      -8.9      4.752      9.362
REMARK  7 active torsions:
REMARK  status: ('A' for Active; 'I' for Inactive)
REMARK    1  A    between atoms: N_7  and  C_8 
REMARK    2  A    between atoms: C_8  and  C_9 
REMARK       I    between atoms: C_9  and  N_10 
REMARK    3  A    between atoms: N_10  and  C_11 
REMARK    4  A    between atoms: C_11  and  C_12 
REMARK    5  A    between atoms: C_12  and  C_13 
REMARK    6  A    between atoms: C_12  and  C_23 
REMARK    7  A    between atoms: C_26  and  O_27 
ROOT
HETATM    1  C   UNL     1      42.737 -17.609   1.398  1.00  0.00     0.136 C 
ENDROOT
BRANCH   1   2
HETATM    2  N   UNL     1      42.574 -16.671   0.294  1.00  0.00    -0.359 N 
HETATM    3  C   UNL     1      41.406 -15.919   0.278  1.00  0.00     0.236 C 
HETATM    4  O   UNL     1      40.435 -16.200   0.982  1.00  0.00    -0.272 OA
HETATM    5  H   UNL     1      43.406 -16.209  -0.059  1.00  0.00     0.162 HD
BRANCH   3   6
HETATM    6  C   UNL     1      41.467 -14.598  -0.476  1.00  0.00     0.239 C 
BRANCH   6   7
HETATM    7  N   UNL     1      40.742 -13.499   0.121  1.00  0.00    -0.259 N 
HETATM    8  C   UNL     1      41.337 -12.519   0.851  1.00  0.00     0.326 C 
HETATM    9  N   UNL     1      40.412 -11.533   1.092  1.00  0.00    -0.324 N 
HETATM   10  O   UNL     1      42.499 -12.455   1.214  1.00  0.00    -0.247 OA
HETATM   11  C   UNL     1      39.196 -11.708   0.312  1.00  0.00     0.119 C 
HETATM   12  H   UNL     1      40.718 -10.666   1.515  1.00  0.00     0.165 HD
HETATM   13  C   UNL     1      37.952 -11.496   1.197  1.00  0.00     0.019 C 
HETATM   14  C   UNL     1      39.454 -13.156  -0.176  1.00  0.00     0.257 C 
HETATM   15  C   UNL     1      39.220 -10.785  -0.921  1.00  0.00     0.041 C 
HETATM   16  C   UNL     1      36.653 -12.024   0.576  1.00  0.00     0.013 C 
HETATM   17  C   UNL     1      37.798  -9.998   1.544  1.00  0.00     0.007 C 
HETATM   18  C   UNL     1      37.801  -9.093   0.312  1.00  0.00     0.001 C 
HETATM   19  C   UNL     1      39.036  -9.314  -0.555  1.00  0.00     0.003 C 
HETATM   20  O   UNL     1      38.683 -13.849  -0.830  1.00  0.00    -0.270 OA
ENDBRANCH   6   7
ENDBRANCH   3   6
ENDBRANCH   1   2
BRANCH   1  21
HETATM   21  C   UNL     1      43.521 -17.196   2.657  1.00  0.00     0.071 C 
BRANCH  21  22
HETATM   22  C   UNL     1      43.989 -18.289   3.590  1.00  0.00    -0.020 A 
HETATM   23  C   UNL     1      44.118 -19.683   3.230  1.00  0.00    -0.001 A 
HETATM   24  C   UNL     1      44.546 -20.379   4.360  1.00  0.00     0.042 A 
HETATM   25  C   UNL     1      43.908 -20.414   2.041  1.00  0.00     0.014 A 
HETATM   26  C   UNL     1      44.766 -21.762   4.366  1.00  0.00     0.030 A 
HETATM   27  N   UNL     1      44.691 -19.459   5.367  1.00  0.00    -0.365 N 
HETATM   28  C   UNL     1      44.547 -22.459   3.174  1.00  0.00     0.002 A 
HETATM   29  C   UNL     1      44.126 -21.797   2.026  1.00  0.00     0.001 A 
HETATM   30  H   UNL     1      45.000 -19.679   6.305  1.00  0.00     0.165 HD
HETATM   31  C   UNL     1      44.373 -18.205   4.917  1.00  0.00     0.097 A 
ENDBRANCH  21  22
BRANCH  21  32
HETATM   32  C   UNL     1      42.903 -16.097   3.501  1.00  0.00    -0.048 A 
HETATM   33  C   UNL     1      41.702 -16.359   4.183  1.00  0.00     0.011 A 
HETATM   34  C   UNL     1      41.103 -15.388   4.986  1.00  0.00     0.037 A 
HETATM   35  C   UNL     1      41.685 -14.131   5.131  1.00  0.00     0.068 A 
HETATM   36  C   UNL     1      42.875 -13.852   4.458  1.00  0.00     0.037 A 
HETATM   37  C   UNL     1      43.483 -14.830   3.656  1.00  0.00     0.011 A 
BRANCH  35  38
HETATM   38  O   UNL     1      40.994 -13.277   5.946  1.00  0.00    -0.356 OA
HETATM   39  C   UNL     1      41.593 -12.016   6.207  1.00  0.00     0.210 C 
ENDBRANCH  35  38
ENDBRANCH  21  32
ENDBRANCH   1  21
TORSDOF 7
ENDMDL
MODEL 10
REMARK VINA RESULT:      -8.6      2.802      4.759
REMARK  7 active torsions:
REMARK  status: ('A' for Active; 'I' for Inactive)
REMARK    1  A    between atoms: N_7  and  C_8 
REMARK    2  A    between atoms: C_8  and  C_9 
REMARK       I    between atoms: C_9  and  N_10 
REMARK    3  A    between atoms: N_10  and  C_11 
REMARK    4  A    between atoms: C_11  and  C_12 
REMARK    5  A    between atoms: C_12  and  C_13 
REMARK    6  A    between atoms: C_12  and  C_23 
REMARK    7  A    between atoms: C_26  and  O_27 
ROOT
HETATM    1  C   UNL     1      39.055 -13.085   5.356  1.00  0.00     0.136 C 
ENDROOT
BRANCH   1   2
HETATM    2  N   UNL     1      39.436 -12.370   6.567  1.00  0.00    -0.359 N 
HETATM    3  C   UNL     1      39.696 -11.011   6.437  1.00  0.00     0.236 C 
HETATM    4  O   UNL     1      39.868 -10.479   5.339  1.00  0.00    -0.272 OA
HETATM    5  H   UNL     1      39.007 -12.659   7.441  1.00  0.00     0.162 HD
BRANCH   3   6
HETATM    6  C   UNL     1      39.528 -10.169   7.695  1.00  0.00     0.239 C 
BRANCH   6   7
HETATM    7  N   UNL     1      40.497 -10.402   8.741  1.00  0.00    -0.259 N 
HETATM    8  C   UNL     1      41.841 -10.382   8.535  1.00  0.00     0.326 C 
HETATM    9  N   UNL     1      42.469 -10.432   9.755  1.00  0.00    -0.324 N 
HETATM   10  O   UNL     1      42.435 -10.288   7.475  1.00  0.00    -0.247 OA
HETATM   11  C   UNL     1      41.546 -10.244  10.864  1.00  0.00     0.119 C 
HETATM   12  H   UNL     1      43.472 -10.297   9.796  1.00  0.00     0.165 HD
HETATM   13  C   UNL     1      41.816 -11.281  11.973  1.00  0.00     0.019 C 
HETATM   14  C   UNL     1      40.220 -10.407  10.078  1.00  0.00     0.257 C 
HETATM   15  C   UNL     1      41.616  -8.790  11.372  1.00  0.00     0.041 C 
HETATM   16  C   UNL     1      40.677 -11.411  12.990  1.00  0.00     0.013 C 
HETATM   17  C   UNL     1      43.137 -10.944  12.702  1.00  0.00     0.007 C 
HETATM   18  C   UNL     1      43.187  -9.506  13.220  1.00  0.00     0.001 C 
HETATM   19  C   UNL     1      42.917  -8.492  12.115  1.00  0.00     0.003 C 
HETATM   20  O   UNL     1      39.092 -10.417  10.555  1.00  0.00    -0.270 OA
ENDBRANCH   6   7
ENDBRANCH   3   6
ENDBRANCH   1   2
BRANCH   1  21
HETATM   21  C   UNL     1      39.984 -14.160   4.765  1.00  0.00     0.071 C 
BRANCH  21  22
HETATM   22  C   UNL     1      41.422 -14.190   5.231  1.00  0.00    -0.020 A 
HETATM   23  C   UNL     1      42.022 -15.263   5.990  1.00  0.00    -0.001 A 
HETATM   24  C   UNL     1      43.345 -14.913   6.254  1.00  0.00     0.042 A 
HETATM   25  C   UNL     1      41.554 -16.504   6.476  1.00  0.00     0.014 A 
HETATM   26  C   UNL     1      44.219 -15.731   6.982  1.00  0.00     0.030 A 
HETATM   27  N   UNL     1      43.561 -13.690   5.673  1.00  0.00    -0.365 N 
HETATM   28  C   UNL     1      43.727 -16.952   7.452  1.00  0.00     0.002 A 
HETATM   29  C   UNL     1      42.414 -17.336   7.202  1.00  0.00     0.001 A 
HETATM   30  H   UNL     1      44.440 -13.191   5.696  1.00  0.00     0.165 HD
HETATM   31  C   UNL     1      42.422 -13.251   5.049  1.00  0.00     0.097 A 
ENDBRANCH  21  22
BRANCH  21  32
HETATM   32  C   UNL     1      39.983 -14.291   3.253  1.00  0.00    -0.048 A 
HETATM   33  C   UNL     1      39.487 -13.225   2.481  1.00  0.00     0.011 A 
HETATM   34  C   UNL     1      39.479 -13.287   1.088  1.00  0.00     0.037 A 
HETATM   35  C   UNL     1      39.966 -14.413   0.426  1.00  0.00     0.068 A 
HETATM   36  C   UNL     1      40.457 -15.481   1.177  1.00  0.00     0.037 A 
HETATM   37  C   UNL     1      40.473 -15.417   2.579  1.00  0.00     0.011 A 
BRANCH  35  38
HETATM   38  O   UNL     1      39.899 -14.341  -0.937  1.00  0.00    -0.356 OA
HETATM   39  C   UNL     1      40.785 -15.179  -1.667  1.00  0.00     0.210 C 
ENDBRANCH  35  38
ENDBRANCH  21  32
ENDBRANCH   1  21
TORSDOF 7
ENDMDL
