MODEL 1
REMARK VINA RESULT:      -9.6      0.000      0.000
REMARK  5 active torsions:
REMARK  status: ('A' for Active; 'I' for Inactive)
REMARK    1  A    between atoms: C_8  and  C_9 
REMARK    2  A    between atoms: C_9  and  C_10 
REMARK       I    between atoms: C_10  and  N_11 
REMARK    3  A    between atoms: N_11  and  N_12 
REMARK       I    between atoms: N_12  and  C_13 
REMARK    4  A    between atoms: C_13  and  C_14 
REMARK    5  A    between atoms: C_16  and  C_17 
ROOT
HETATM    1  C   UNL     1      43.072 -16.930   7.374  1.00  0.00     0.240 C 
HETATM    2  N   UNL     1      43.359 -15.654   6.920  1.00  0.00    -0.267 N 
HETATM    3  O   UNL     1      43.231 -17.273   8.545  1.00  0.00    -0.272 OA
HETATM    4  H   UNL     1      43.528 -15.474   5.930  1.00  0.00     0.190 HD
ENDROOT
BRANCH   2   5
HETATM    5  N   UNL     1      43.893 -14.727   7.813  1.00  0.00    -0.263 N 
HETATM    6  C   UNL     1      44.720 -13.738   7.325  1.00  0.00     0.270 C 
HETATM    7  O   UNL     1      45.091 -13.672   6.157  1.00  0.00    -0.266 OA
HETATM    8  H   UNL     1      43.807 -14.937   8.806  1.00  0.00     0.190 HD
BRANCH   6   9
HETATM    9  C   UNL     1      45.122 -12.710   8.312  1.00  0.00     0.034 A 
HETATM   10  C   UNL     1      44.205 -12.284   9.284  1.00  0.00     0.029 A 
HETATM   11  C   UNL     1      44.539 -11.253  10.170  1.00  0.00    -0.023 A 
HETATM   12  C   UNL     1      45.817 -10.678  10.084  1.00  0.00     0.012 A 
HETATM   13  C   UNL     1      46.729 -11.104   9.111  1.00  0.00     0.002 A 
HETATM   14  C   UNL     1      46.377 -12.110   8.213  1.00  0.00     0.017 A 
BRANCH  11  15
HETATM   15  C   UNL     1      43.556 -10.783  11.134  1.00  0.00    -0.002 A 
HETATM   16  C   UNL     1      42.194 -10.979  11.023  1.00  0.00     0.153 A 
HETATM   17  O   UNL     1      41.540 -10.467  12.098  1.00  0.00    -0.334 OA
HETATM   18  C   UNL     1      42.484  -9.941  12.918  1.00  0.00     0.142 A 
HETATM   19  C   UNL     1      43.737 -10.111  12.377  1.00  0.00     0.038 A 
ENDBRANCH  11  15
ENDBRANCH   6   9
ENDBRANCH   2   5
BRANCH   1  20
HETATM   20  C   UNL     1      42.422 -17.803   6.323  1.00  0.00     0.145 C 
BRANCH  20  21
HETATM   21  C   UNL     1      43.308 -18.770   5.605  1.00  0.00    -0.021 A 
HETATM   22  C   UNL     1      43.405 -19.077   4.202  1.00  0.00    -0.001 A 
HETATM   23  C   UNL     1      42.814 -18.576   3.022  1.00  0.00     0.014 A 
HETATM   24  C   UNL     1      44.293 -20.150   4.074  1.00  0.00     0.042 A 
HETATM   25  C   UNL     1      43.115 -19.160   1.784  1.00  0.00     0.001 A 
HETATM   26  C   UNL     1      43.993 -20.237   1.700  1.00  0.00     0.002 A 
HETATM   27  C   UNL     1      44.601 -20.750   2.846  1.00  0.00     0.030 A 
HETATM   28  N   UNL     1      44.750 -20.458   5.332  1.00  0.00    -0.365 N 
HETATM   29  H   UNL     1      45.408 -21.197   5.536  1.00  0.00     0.165 HD
HETATM   30  C   UNL     1      44.163 -19.643   6.257  1.00  0.00     0.097 A 
ENDBRANCH  20  21
ENDBRANCH   1  20
TORSDOF 5
ENDMDL
MODEL 2
REMARK VINA RESULT:      -9.2      2.218     10.279
REMARK  5 active torsions:
REMARK  status: ('A' for Active; 'I' for Inactive)
REMARK    1  A    between atoms: C_8  and  C_9 
REMARK    2  A    between atoms: C_9  and  C_10 
REMARK       I    between atoms: C_10  and  N_11 
REMARK    3  A    between atoms: N_11  and  N_12 
REMARK       I    between atoms: N_12  and  C_13 
REMARK    4  A    between atoms: C_13  and  C_14 
REMARK    5  A    between atoms: C_16  and  C_17 
ROOT
HETATM    1  C   UNL     1      45.099 -13.246   7.941  1.00  0.00     0.240 C 
HETATM    2  N   UNL     1      44.091 -14.141   7.623  1.00  0.00    -0.267 N 
HETATM    3  O   UNL     1      45.984 -12.927   7.148  1.00  0.00    -0.272 OA
HETATM    4  H   UNL     1      43.572 -14.629   8.352  1.00  0.00     0.190 HD
ENDROOT
BRANCH   2   5
HETATM    5  N   UNL     1      44.101 -14.743   6.365  1.00  0.00    -0.263 N 
HETATM    6  C   UNL     1      43.525 -15.988   6.224  1.00  0.00     0.270 C 
HETATM    7  O   UNL     1      43.079 -16.644   7.160  1.00  0.00    -0.266 OA
HETATM    8  H   UNL     1      44.701 -14.326   5.656  1.00  0.00     0.190 HD
BRANCH   6   9
HETATM    9  C   UNL     1      43.444 -16.489   4.834  1.00  0.00     0.034 A 
HETATM   10  C   UNL     1      43.665 -17.848   4.570  1.00  0.00     0.029 A 
HETATM   11  C   UNL     1      43.678 -18.323   3.253  1.00  0.00    -0.023 A 
HETATM   12  C   UNL     1      43.436 -17.418   2.209  1.00  0.00     0.012 A 
HETATM   13  C   UNL     1      43.218 -16.060   2.474  1.00  0.00     0.002 A 
HETATM   14  C   UNL     1      43.237 -15.591   3.786  1.00  0.00     0.017 A 
BRANCH  11  15
HETATM   15  C   UNL     1      43.967 -19.725   2.994  1.00  0.00    -0.002 A 
HETATM   16  C   UNL     1      44.649 -20.558   3.859  1.00  0.00     0.153 A 
HETATM   17  O   UNL     1      44.723 -21.820   3.362  1.00  0.00    -0.334 OA
HETATM   18  C   UNL     1      44.077 -21.811   2.170  1.00  0.00     0.142 A 
HETATM   19  C   UNL     1      43.591 -20.554   1.898  1.00  0.00     0.038 A 
ENDBRANCH  11  15
ENDBRANCH   6   9
ENDBRANCH   2   5
BRANCH   1  20
HETATM   20  C   UNL     1      44.918 -12.607   9.301  1.00  0.00     0.145 C 
BRANCH  20  21
HETATM   21  C   UNL     1      43.893 -11.523   9.408  1.00  0.00    -0.021 A 
HETATM   22  C   UNL     1      43.525 -10.699  10.529  1.00  0.00    -0.001 A 
HETATM   23  C   UNL     1      43.996 -10.534  11.849  1.00  0.00     0.014 A 
HETATM   24  C   UNL     1      42.420  -9.937  10.137  1.00  0.00     0.042 A 
HETATM   25  C   UNL     1      43.351  -9.641  12.717  1.00  0.00     0.001 A 
HETATM   26  C   UNL     1      42.245  -8.912  12.294  1.00  0.00     0.002 A 
HETATM   27  C   UNL     1      41.761  -9.045  10.992  1.00  0.00     0.030 A 
HETATM   28  N   UNL     1      42.150 -10.247   8.827  1.00  0.00    -0.365 N 
HETATM   29  H   UNL     1      41.399  -9.842   8.286  1.00  0.00     0.165 HD
HETATM   30  C   UNL     1      43.021 -11.200   8.381  1.00  0.00     0.097 A 
ENDBRANCH  20  21
ENDBRANCH   1  20
TORSDOF 5
ENDMDL
MODEL 3
REMARK VINA RESULT:      -9.2      2.257      9.696
REMARK  5 active torsions:
REMARK  status: ('A' for Active; 'I' for Inactive)
REMARK    1  A    between atoms: C_8  and  C_9 
REMARK    2  A    between atoms: C_9  and  C_10 
REMARK       I    between atoms: C_10  and  N_11 
REMARK    3  A    between atoms: N_11  and  N_12 
REMARK       I    between atoms: N_12  and  C_13 
REMARK    4  A    between atoms: C_13  and  C_14 
REMARK    5  A    between atoms: C_16  and  C_17 
ROOT
HETATM    1  C   UNL     1      45.291 -12.903   8.087  1.00  0.00     0.240 C 
HETATM    2  N   UNL     1      43.992 -13.368   7.978  1.00  0.00    -0.267 N 
HETATM    3  O   UNL     1      46.144 -13.092   7.220  1.00  0.00    -0.272 OA
HETATM    4  H   UNL     1      43.405 -13.487   8.803  1.00  0.00     0.190 HD
ENDROOT
BRANCH   2   5
HETATM    5  N   UNL     1      43.641 -14.123   6.859  1.00  0.00    -0.263 N 
HETATM    6  C   UNL     1      43.565 -15.494   6.984  1.00  0.00     0.270 C 
HETATM    7  O   UNL     1      43.875 -16.106   8.000  1.00  0.00    -0.266 OA
HETATM    8  H   UNL     1      43.646 -13.647   5.959  1.00  0.00     0.190 HD
BRANCH   6   9
HETATM    9  C   UNL     1      43.042 -16.204   5.795  1.00  0.00     0.034 A 
HETATM   10  C   UNL     1      43.633 -17.409   5.389  1.00  0.00     0.029 A 
HETATM   11  C   UNL     1      43.207 -18.049   4.219  1.00  0.00    -0.023 A 
HETATM   12  C   UNL     1      42.160 -17.476   3.480  1.00  0.00     0.012 A 
HETATM   13  C   UNL     1      41.574 -16.272   3.886  1.00  0.00     0.002 A 
HETATM   14  C   UNL     1      42.024 -15.625   5.035  1.00  0.00     0.017 A 
BRANCH  11  15
HETATM   15  C   UNL     1      43.870 -19.268   3.781  1.00  0.00    -0.002 A 
HETATM   16  C   UNL     1      44.532 -20.145   4.619  1.00  0.00     0.153 A 
HETATM   17  O   UNL     1      45.009 -21.212   3.926  1.00  0.00    -0.334 OA
HETATM   18  C   UNL     1      44.648 -21.032   2.631  1.00  0.00     0.142 A 
HETATM   19  C   UNL     1      43.946 -19.859   2.487  1.00  0.00     0.038 A 
ENDBRANCH  11  15
ENDBRANCH   6   9
ENDBRANCH   2   5
BRANCH   1  20
HETATM   20  C   UNL     1      45.510 -12.032   9.305  1.00  0.00     0.145 C 
BRANCH  20  21
HETATM   21  C   UNL     1      44.377 -11.932  10.277  1.00  0.00    -0.021 A 
HETATM   22  C   UNL     1      43.190 -11.119  10.241  1.00  0.00    -0.001 A 
HETATM   23  C   UNL     1      42.616 -10.223   9.314  1.00  0.00     0.014 A 
HETATM   24  C   UNL     1      42.525 -11.303  11.457  1.00  0.00     0.042 A 
HETATM   25  C   UNL     1      41.430  -9.548   9.633  1.00  0.00     0.001 A 
HETATM   26  C   UNL     1      40.806  -9.747  10.861  1.00  0.00     0.002 A 
HETATM   27  C   UNL     1      41.343 -10.633  11.795  1.00  0.00     0.030 A 
HETATM   28  N   UNL     1      43.247 -12.216  12.186  1.00  0.00    -0.365 N 
HETATM   29  H   UNL     1      42.995 -12.538  13.110  1.00  0.00     0.165 HD
HETATM   30  C   UNL     1      44.361 -12.595  11.493  1.00  0.00     0.097 A 
ENDBRANCH  20  21
ENDBRANCH   1  20
TORSDOF 5
ENDMDL
MODEL 4
REMARK VINA RESULT:      -9.1      2.343     10.380
REMARK  5 active torsions:
REMARK  status: ('A' for Active; 'I' for Inactive)
REMARK    1  A    between atoms: C_8  and  C_9 
REMARK    2  A    between atoms: C_9  and  C_10 
REMARK       I    between atoms: C_10  and  N_11 
REMARK    3  A    between atoms: N_11  and  N_12 
REMARK       I    between atoms: N_12  and  C_13 
REMARK    4  A    between atoms: C_13  and  C_14 
REMARK    5  A    between atoms: C_16  and  C_17 
ROOT
HETATM    1  C   UNL     1      44.297 -12.531   9.499  1.00  0.00     0.240 C 
HETATM    2  N   UNL     1      44.138 -13.065   8.231  1.00  0.00    -0.267 N 
HETATM    3  O   UNL     1      44.439 -13.226  10.504  1.00  0.00    -0.272 OA
HETATM    4  H   UNL     1      43.714 -12.521   7.481  1.00  0.00     0.190 HD
ENDROOT
BRANCH   2   5
HETATM    5  N   UNL     1      44.091 -14.451   8.088  1.00  0.00    -0.263 N 
HETATM    6  C   UNL     1      43.777 -14.978   6.853  1.00  0.00     0.270 C 
HETATM    7  O   UNL     1      43.447 -14.301   5.885  1.00  0.00    -0.266 OA
HETATM    8  H   UNL     1      44.098 -15.006   8.943  1.00  0.00     0.190 HD
BRANCH   6   9
HETATM    9  C   UNL     1      43.895 -16.450   6.750  1.00  0.00     0.034 A 
HETATM   10  C   UNL     1      43.960 -17.056   5.487  1.00  0.00     0.029 A 
HETATM   11  C   UNL     1      43.985 -18.450   5.369  1.00  0.00    -0.023 A 
HETATM   12  C   UNL     1      43.974 -19.225   6.539  1.00  0.00     0.012 A 
HETATM   13  C   UNL     1      43.906 -18.618   7.799  1.00  0.00     0.002 A 
HETATM   14  C   UNL     1      43.851 -17.230   7.906  1.00  0.00     0.017 A 
BRANCH  11  15
HETATM   15  C   UNL     1      43.994 -19.063   4.050  1.00  0.00    -0.002 A 
HETATM   16  C   UNL     1      44.553 -20.293   3.760  1.00  0.00     0.153 A 
HETATM   17  O   UNL     1      44.364 -20.616   2.454  1.00  0.00    -0.334 OA
HETATM   18  C   UNL     1      43.672 -19.594   1.892  1.00  0.00     0.142 A 
HETATM   19  C   UNL     1      43.416 -18.618   2.826  1.00  0.00     0.038 A 
ENDBRANCH  11  15
ENDBRANCH   6   9
ENDBRANCH   2   5
BRANCH   1  20
HETATM   20  C   UNL     1      44.415 -11.022   9.496  1.00  0.00     0.145 C 
BRANCH  20  21
HETATM   21  C   UNL     1      43.279 -10.254  10.092  1.00  0.00    -0.021 A 
HETATM   22  C   UNL     1      43.045  -9.845  11.452  1.00  0.00    -0.001 A 
HETATM   23  C   UNL     1      43.769  -9.922  12.661  1.00  0.00     0.014 A 
HETATM   24  C   UNL     1      41.771  -9.271  11.498  1.00  0.00     0.042 A 
HETATM   25  C   UNL     1      43.201  -9.445  13.851  1.00  0.00     0.001 A 
HETATM   26  C   UNL     1      41.923  -8.894  13.857  1.00  0.00     0.002 A 
HETATM   27  C   UNL     1      41.185  -8.793  12.677  1.00  0.00     0.030 A 
HETATM   28  N   UNL     1      41.266  -9.288  10.221  1.00  0.00    -0.365 N 
HETATM   29  H   UNL     1      40.356  -8.934   9.961  1.00  0.00     0.165 HD
HETATM   30  C   UNL     1      42.156  -9.880   9.372  1.00  0.00     0.097 A 
ENDBRANCH  20  21
ENDBRANCH   1  20
TORSDOF 5
ENDMDL
MODEL 5
REMARK VINA RESULT:      -9.1      1.787      2.456
REMARK  5 active torsions:
REMARK  status: ('A' for Active; 'I' for Inactive)
REMARK    1  A    between atoms: C_8  and  C_9 
REMARK    2  A    between atoms: C_9  and  C_10 
REMARK       I    between atoms: C_10  and  N_11 
REMARK    3  A    between atoms: N_11  and  N_12 
REMARK       I    between atoms: N_12  and  C_13 
REMARK    4  A    between atoms: C_13  and  C_14 
REMARK    5  A    between atoms: C_16  and  C_17 
ROOT
HETATM    1  C   UNL     1      43.562 -17.092   7.184  1.00  0.00     0.240 C 
HETATM    2  N   UNL     1      43.958 -15.828   6.780  1.00  0.00    -0.267 N 
HETATM    3  O   UNL     1      43.198 -17.343   8.332  1.00  0.00    -0.272 OA
HETATM    4  H   UNL     1      44.542 -15.699   5.954  1.00  0.00     0.190 HD
ENDROOT
BRANCH   2   5
HETATM    5  N   UNL     1      43.990 -14.802   7.723  1.00  0.00    -0.263 N 
HETATM    6  C   UNL     1      44.865 -13.754   7.530  1.00  0.00     0.270 C 
HETATM    7  O   UNL     1      45.688 -13.710   6.621  1.00  0.00    -0.266 OA
HETATM    8  H   UNL     1      43.509 -14.967   8.605  1.00  0.00     0.190 HD
BRANCH   6   9
HETATM    9  C   UNL     1      44.731 -12.637   8.493  1.00  0.00     0.034 A 
HETATM   10  C   UNL     1      43.465 -12.092   8.752  1.00  0.00     0.029 A 
HETATM   11  C   UNL     1      43.330 -10.981   9.593  1.00  0.00    -0.023 A 
HETATM   12  C   UNL     1      44.481 -10.446  10.192  1.00  0.00     0.012 A 
HETATM   13  C   UNL     1      45.744 -10.992   9.930  1.00  0.00     0.002 A 
HETATM   14  C   UNL     1      45.873 -12.078   9.067  1.00  0.00     0.017 A 
BRANCH  11  15
HETATM   15  C   UNL     1      42.018 -10.391   9.805  1.00  0.00    -0.002 A 
HETATM   16  C   UNL     1      41.092 -10.847  10.723  1.00  0.00     0.153 A 
HETATM   17  O   UNL     1      39.980 -10.067  10.722  1.00  0.00    -0.334 OA
HETATM   18  C   UNL     1      40.186  -9.092   9.802  1.00  0.00     0.142 A 
HETATM   19  C   UNL     1      41.420  -9.241   9.213  1.00  0.00     0.038 A 
ENDBRANCH  11  15
ENDBRANCH   6   9
ENDBRANCH   2   5
BRANCH   1  20
HETATM   20  C   UNL     1      43.494 -18.085   6.044  1.00  0.00     0.145 C 
BRANCH  20  21
HETATM   21  C   UNL     1      42.560 -17.764   4.921  1.00  0.00    -0.021 A 
HETATM   22  C   UNL     1      42.811 -17.635   3.510  1.00  0.00    -0.001 A 
HETATM   23  C   UNL     1      43.928 -17.824   2.669  1.00  0.00     0.014 A 
HETATM   24  C   UNL     1      41.625 -17.190   2.918  1.00  0.00     0.042 A 
HETATM   25  C   UNL     1      43.827 -17.555   1.297  1.00  0.00     0.001 A 
HETATM   26  C   UNL     1      42.633 -17.100   0.748  1.00  0.00     0.002 A 
HETATM   27  C   UNL     1      41.507 -16.912   1.550  1.00  0.00     0.030 A 
HETATM   28  N   UNL     1      40.681 -17.092   3.910  1.00  0.00    -0.365 N 
HETATM   29  H   UNL     1      39.727 -16.792   3.764  1.00  0.00     0.165 HD
HETATM   30  C   UNL     1      41.230 -17.426   5.114  1.00  0.00     0.097 A 
ENDBRANCH  20  21
ENDBRANCH   1  20
TORSDOF 5
ENDMDL
MODEL 6
REMARK VINA RESULT:      -9.1      2.311      9.747
REMARK  5 active torsions:
REMARK  status: ('A' for Active; 'I' for Inactive)
REMARK    1  A    between atoms: C_8  and  C_9 
REMARK    2  A    between atoms: C_9  and  C_10 
REMARK       I    between atoms: C_10  and  N_11 
REMARK    3  A    between atoms: N_11  and  N_12 
REMARK       I    between atoms: N_12  and  C_13 
REMARK    4  A    between atoms: C_13  and  C_14 
REMARK    5  A    between atoms: C_16  and  C_17 
ROOT
HETATM    1  C   UNL     1      45.171 -12.588   8.185  1.00  0.00     0.240 C 
HETATM    2  N   UNL     1      44.043 -13.222   7.692  1.00  0.00    -0.267 N 
HETATM    3  O   UNL     1      46.313 -12.904   7.853  1.00  0.00    -0.272 OA
HETATM    4  H   UNL     1      43.155 -13.179   8.191  1.00  0.00     0.190 HD
ENDROOT
BRANCH   2   5
HETATM    5  N   UNL     1      44.205 -14.293   6.814  1.00  0.00    -0.263 N 
HETATM    6  C   UNL     1      44.033 -15.573   7.295  1.00  0.00     0.270 C 
HETATM    7  O   UNL     1      43.833 -15.839   8.475  1.00  0.00    -0.266 OA
HETATM    8  H   UNL     1      44.630 -14.092   5.910  1.00  0.00     0.190 HD
BRANCH   6   9
HETATM    9  C   UNL     1      44.074 -16.640   6.269  1.00  0.00     0.034 A 
HETATM   10  C   UNL     1      43.212 -16.578   5.166  1.00  0.00     0.029 A 
HETATM   11  C   UNL     1      43.177 -17.620   4.232  1.00  0.00    -0.023 A 
HETATM   12  C   UNL     1      44.042 -18.711   4.408  1.00  0.00     0.012 A 
HETATM   13  C   UNL     1      44.901 -18.772   5.512  1.00  0.00     0.002 A 
HETATM   14  C   UNL     1      44.907 -17.745   6.453  1.00  0.00     0.017 A 
BRANCH  11  15
HETATM   15  C   UNL     1      42.235 -17.566   3.125  1.00  0.00    -0.002 A 
HETATM   16  C   UNL     1      41.018 -16.913   3.162  1.00  0.00     0.153 A 
HETATM   17  O   UNL     1      40.383 -17.001   1.964  1.00  0.00    -0.334 OA
HETATM   18  C   UNL     1      41.194 -17.709   1.140  1.00  0.00     0.142 A 
HETATM   19  C   UNL     1      42.344 -18.077   1.799  1.00  0.00     0.038 A 
ENDBRANCH  11  15
ENDBRANCH   6   9
ENDBRANCH   2   5
BRANCH   1  20
HETATM   20  C   UNL     1      44.848 -11.395   9.057  1.00  0.00     0.145 C 
BRANCH  20  21
HETATM   21  C   UNL     1      44.222 -11.678  10.386  1.00  0.00    -0.021 A 
HETATM   22  C   UNL     1      43.522 -10.803  11.289  1.00  0.00    -0.001 A 
HETATM   23  C   UNL     1      43.103  -9.456  11.257  1.00  0.00     0.014 A 
HETATM   24  C   UNL     1      43.259 -11.533  12.452  1.00  0.00     0.042 A 
HETATM   25  C   UNL     1      42.460  -8.894  12.370  1.00  0.00     0.001 A 
HETATM   26  C   UNL     1      42.230  -9.650  13.514  1.00  0.00     0.002 A 
HETATM   27  C   UNL     1      42.623 -10.988  13.575  1.00  0.00     0.030 A 
HETATM   28  N   UNL     1      43.736 -12.806  12.255  1.00  0.00    -0.365 N 
HETATM   29  H   UNL     1      43.679 -13.550  12.936  1.00  0.00     0.165 HD
HETATM   30  C   UNL     1      44.320 -12.903  11.025  1.00  0.00     0.097 A 
ENDBRANCH  20  21
ENDBRANCH   1  20
TORSDOF 5
ENDMDL
MODEL 7
REMARK VINA RESULT:      -8.9      1.969      2.367
REMARK  5 active torsions:
REMARK  status: ('A' for Active; 'I' for Inactive)
REMARK    1  A    between atoms: C_8  and  C_9 
REMARK    2  A    between atoms: C_9  and  C_10 
REMARK       I    between atoms: C_10  and  N_11 
REMARK    3  A    between atoms: N_11  and  N_12 
REMARK       I    between atoms: N_12  and  C_13 
REMARK    4  A    between atoms: C_13  and  C_14 
REMARK    5  A    between atoms: C_16  and  C_17 
ROOT
HETATM    1  C   UNL     1      41.405 -13.914   5.462  1.00  0.00     0.240 C 
HETATM    2  N   UNL     1      42.667 -14.210   5.949  1.00  0.00    -0.267 N 
HETATM    3  O   UNL     1      40.739 -12.962   5.867  1.00  0.00    -0.272 OA
HETATM    4  H   UNL     1      43.064 -15.144   5.850  1.00  0.00     0.190 HD
ENDROOT
BRANCH   2   5
HETATM    5  N   UNL     1      43.192 -13.424   6.974  1.00  0.00    -0.263 N 
HETATM    6  C   UNL     1      44.468 -13.690   7.423  1.00  0.00     0.270 C 
HETATM    7  O   UNL     1      45.145 -14.637   7.038  1.00  0.00    -0.266 OA
HETATM    8  H   UNL     1      42.542 -12.820   7.474  1.00  0.00     0.190 HD
BRANCH   6   9
HETATM    9  C   UNL     1      45.003 -12.719   8.404  1.00  0.00     0.034 A 
HETATM   10  C   UNL     1      44.217 -12.329   9.497  1.00  0.00     0.029 A 
HETATM   11  C   UNL     1      44.673 -11.349  10.386  1.00  0.00    -0.023 A 
HETATM   12  C   UNL     1      45.942 -10.788  10.177  1.00  0.00     0.012 A 
HETATM   13  C   UNL     1      46.725 -11.177   9.083  1.00  0.00     0.002 A 
HETATM   14  C   UNL     1      46.250 -12.131   8.186  1.00  0.00     0.017 A 
BRANCH  11  15
HETATM   15  C   UNL     1      43.819 -10.915  11.482  1.00  0.00    -0.002 A 
HETATM   16  C   UNL     1      43.210 -11.764  12.385  1.00  0.00     0.153 A 
HETATM   17  O   UNL     1      42.515 -11.062  13.318  1.00  0.00    -0.334 OA
HETATM   18  C   UNL     1      42.680  -9.748  13.026  1.00  0.00     0.142 A 
HETATM   19  C   UNL     1      43.473  -9.601  11.912  1.00  0.00     0.038 A 
ENDBRANCH  11  15
ENDBRANCH   6   9
ENDBRANCH   2   5
BRANCH   1  20
HETATM   20  C   UNL     1      40.997 -14.792   4.299  1.00  0.00     0.145 C 
BRANCH  20  21
HETATM   21  C   UNL     1      41.564 -16.176   4.265  1.00  0.00    -0.021 A 
HETATM   22  C   UNL     1      42.483 -16.782   3.338  1.00  0.00    -0.001 A 
HETATM   23  C   UNL     1      43.228 -16.333   2.226  1.00  0.00     0.014 A 
HETATM   24  C   UNL     1      42.582 -18.135   3.678  1.00  0.00     0.042 A 
HETATM   25  C   UNL     1      44.018 -17.236   1.501  1.00  0.00     0.001 A 
HETATM   26  C   UNL     1      44.078 -18.578   1.862  1.00  0.00     0.002 A 
HETATM   27  C   UNL     1      43.362 -19.052   2.962  1.00  0.00     0.030 A 
HETATM   28  N   UNL     1      41.795 -18.339   4.784  1.00  0.00    -0.365 N 
HETATM   29  H   UNL     1      41.678 -19.230   5.247  1.00  0.00     0.165 HD
HETATM   30  C   UNL     1      41.175 -17.176   5.141  1.00  0.00     0.097 A 
ENDBRANCH  20  21
ENDBRANCH   1  20
TORSDOF 5
ENDMDL
MODEL 8
REMARK VINA RESULT:      -8.9      3.036     10.060
REMARK  5 active torsions:
REMARK  status: ('A' for Active; 'I' for Inactive)
REMARK    1  A    between atoms: C_8  and  C_9 
REMARK    2  A    between atoms: C_9  and  C_10 
REMARK       I    between atoms: C_10  and  N_11 
REMARK    3  A    between atoms: N_11  and  N_12 
REMARK       I    between atoms: N_12  and  C_13 
REMARK    4  A    between atoms: C_13  and  C_14 
REMARK    5  A    between atoms: C_16  and  C_17 
ROOT
HETATM    1  C   UNL     1      41.358 -11.311   6.773  1.00  0.00     0.240 C 
HETATM    2  N   UNL     1      42.070 -12.495   6.862  1.00  0.00    -0.267 N 
HETATM    3  O   UNL     1      40.421 -11.153   5.992  1.00  0.00    -0.272 OA
HETATM    4  H   UNL     1      43.009 -12.516   7.258  1.00  0.00     0.190 HD
ENDROOT
BRANCH   2   5
HETATM    5  N   UNL     1      41.743 -13.542   6.001  1.00  0.00    -0.263 N 
HETATM    6  C   UNL     1      42.712 -14.025   5.148  1.00  0.00     0.270 C 
HETATM    7  O   UNL     1      43.829 -13.530   5.034  1.00  0.00    -0.266 OA
HETATM    8  H   UNL     1      40.755 -13.771   5.904  1.00  0.00     0.190 HD
BRANCH   6   9
HETATM    9  C   UNL     1      42.328 -15.229   4.378  1.00  0.00     0.034 A 
HETATM   10  C   UNL     1      43.133 -16.376   4.433  1.00  0.00     0.029 A 
HETATM   11  C   UNL     1      42.832 -17.493   3.645  1.00  0.00    -0.023 A 
HETATM   12  C   UNL     1      41.694 -17.451   2.825  1.00  0.00     0.012 A 
HETATM   13  C   UNL     1      40.893 -16.304   2.770  1.00  0.00     0.002 A 
HETATM   14  C   UNL     1      41.218 -15.185   3.534  1.00  0.00     0.017 A 
BRANCH  11  15
HETATM   15  C   UNL     1      43.711 -18.652   3.671  1.00  0.00    -0.002 A 
HETATM   16  C   UNL     1      44.397 -19.091   4.786  1.00  0.00     0.153 A 
HETATM   17  O   UNL     1      45.098 -20.222   4.511  1.00  0.00    -0.334 OA
HETATM   18  C   UNL     1      44.860 -20.526   3.211  1.00  0.00     0.142 A 
HETATM   19  C   UNL     1      44.014 -19.599   2.650  1.00  0.00     0.038 A 
ENDBRANCH  11  15
ENDBRANCH   6   9
ENDBRANCH   2   5
BRANCH   1  20
HETATM   20  C   UNL     1      41.763 -10.295   7.819  1.00  0.00     0.145 C 
BRANCH  20  21
HETATM   21  C   UNL     1      41.301 -10.546   9.219  1.00  0.00    -0.021 A 
HETATM   22  C   UNL     1      42.029 -10.502  10.460  1.00  0.00    -0.001 A 
HETATM   23  C   UNL     1      43.343 -10.154  10.840  1.00  0.00     0.014 A 
HETATM   24  C   UNL     1      41.164 -10.950  11.463  1.00  0.00     0.042 A 
HETATM   25  C   UNL     1      43.741 -10.274  12.179  1.00  0.00     0.001 A 
HETATM   26  C   UNL     1      42.854 -10.737  13.146  1.00  0.00     0.002 A 
HETATM   27  C   UNL     1      41.546 -11.081  12.805  1.00  0.00     0.030 A 
HETATM   28  N   UNL     1      39.952 -11.214  10.874  1.00  0.00    -0.365 N 
HETATM   29  H   UNL     1      39.138 -11.553  11.367  1.00  0.00     0.165 HD
HETATM   30  C   UNL     1      40.024 -10.983   9.530  1.00  0.00     0.097 A 
ENDBRANCH  20  21
ENDBRANCH   1  20
TORSDOF 5
ENDMDL
MODEL 9
REMARK VINA RESULT:      -8.9      6.300      9.014
REMARK  5 active torsions:
REMARK  status: ('A' for Active; 'I' for Inactive)
REMARK    1  A    between atoms: C_8  and  C_9 
REMARK    2  A    between atoms: C_9  and  C_10 
REMARK       I    between atoms: C_10  and  N_11 
REMARK    3  A    between atoms: N_11  and  N_12 
REMARK       I    between atoms: N_12  and  C_13 
REMARK    4  A    between atoms: C_13  and  C_14 
REMARK    5  A    between atoms: C_16  and  C_17 
ROOT
HETATM    1  C   UNL     1      42.928 -16.160   2.616  1.00  0.00     0.240 C 
HETATM    2  N   UNL     1      42.149 -16.539   1.536  1.00  0.00    -0.267 N 
HETATM    3  O   UNL     1      43.691 -15.196   2.583  1.00  0.00    -0.272 OA
HETATM    4  H   UNL     1      41.780 -17.487   1.461  1.00  0.00     0.190 HD
ENDROOT
BRANCH   2   5
HETATM    5  N   UNL     1      42.262 -15.827   0.343  1.00  0.00    -0.263 N 
HETATM    6  C   UNL     1      41.244 -14.968  -0.013  1.00  0.00     0.270 C 
HETATM    7  O   UNL     1      40.196 -14.855   0.613  1.00  0.00    -0.266 OA
HETATM    8  H   UNL     1      42.995 -16.117  -0.302  1.00  0.00     0.190 HD
BRANCH   6   9
HETATM    9  C   UNL     1      41.511 -14.141  -1.212  1.00  0.00     0.034 A 
HETATM   10  C   UNL     1      42.089 -12.873  -1.068  1.00  0.00     0.029 A 
HETATM   11  C   UNL     1      42.269 -12.044  -2.182  1.00  0.00    -0.023 A 
HETATM   12  C   UNL     1      41.886 -12.521  -3.445  1.00  0.00     0.012 A 
HETATM   13  C   UNL     1      41.306 -13.787  -3.586  1.00  0.00     0.002 A 
HETATM   14  C   UNL     1      41.102 -14.593  -2.467  1.00  0.00     0.017 A 
BRANCH  11  15
HETATM   15  C   UNL     1      42.817 -10.708  -2.006  1.00  0.00    -0.002 A 
HETATM   16  C   UNL     1      42.565  -9.640  -2.845  1.00  0.00     0.153 A 
HETATM   17  O   UNL     1      43.180  -8.514  -2.397  1.00  0.00    -0.334 OA
HETATM   18  C   UNL     1      43.829  -8.849  -1.255  1.00  0.00     0.142 A 
HETATM   19  C   UNL     1      43.638 -10.180  -0.967  1.00  0.00     0.038 A 
ENDBRANCH  11  15
ENDBRANCH   6   9
ENDBRANCH   2   5
BRANCH   1  20
HETATM   20  C   UNL     1      42.643 -16.965   3.866  1.00  0.00     0.145 C 
BRANCH  20  21
HETATM   21  C   UNL     1      43.527 -18.142   4.129  1.00  0.00    -0.021 A 
HETATM   22  C   UNL     1      43.701 -19.359   3.382  1.00  0.00    -0.001 A 
HETATM   23  C   UNL     1      43.214 -19.863   2.157  1.00  0.00     0.014 A 
HETATM   24  C   UNL     1      44.544 -20.187   4.131  1.00  0.00     0.042 A 
HETATM   25  C   UNL     1      43.568 -21.154   1.739  1.00  0.00     0.001 A 
HETATM   26  C   UNL     1      44.397 -21.952   2.520  1.00  0.00     0.002 A 
HETATM   27  C   UNL     1      44.903 -21.481   3.732  1.00  0.00     0.030 A 
HETATM   28  N   UNL     1      44.902 -19.495   5.262  1.00  0.00    -0.365 N 
HETATM   29  H   UNL     1      45.509 -19.855   5.985  1.00  0.00     0.165 HD
HETATM   30  C   UNL     1      44.295 -18.272   5.275  1.00  0.00     0.097 A 
ENDBRANCH  20  21
ENDBRANCH   1  20
TORSDOF 5
ENDMDL
MODEL 10
REMARK VINA RESULT:      -8.8      5.516      9.531
REMARK  5 active torsions:
REMARK  status: ('A' for Active; 'I' for Inactive)
REMARK    1  A    between atoms: C_8  and  C_9 
REMARK    2  A    between atoms: C_9  and  C_10 
REMARK       I    between atoms: C_10  and  N_11 
REMARK    3  A    between atoms: N_11  and  N_12 
REMARK       I    between atoms: N_12  and  C_13 
REMARK    4  A    between atoms: C_13  and  C_14 
REMARK    5  A    between atoms: C_16  and  C_17 
ROOT
HETATM    1  C   UNL     1      41.709 -13.638   2.112  1.00  0.00     0.240 C 
HETATM    2  N   UNL     1      41.311 -14.939   2.368  1.00  0.00    -0.267 N 
HETATM    3  O   UNL     1      42.873 -13.259   2.237  1.00  0.00    -0.272 OA
HETATM    4  H   UNL     1      40.337 -15.161   2.569  1.00  0.00     0.190 HD
ENDROOT
BRANCH   2   5
HETATM    5  N   UNL     1      42.258 -15.853   2.829  1.00  0.00    -0.263 N 
HETATM    6  C   UNL     1      42.361 -16.069   4.187  1.00  0.00     0.270 C 
HETATM    7  O   UNL     1      41.729 -15.440   5.029  1.00  0.00    -0.266 OA
HETATM    8  H   UNL     1      42.959 -16.171   2.162  1.00  0.00     0.190 HD
BRANCH   6   9
HETATM    9  C   UNL     1      43.283 -17.159   4.581  1.00  0.00     0.034 A 
HETATM   10  C   UNL     1      43.415 -18.289   3.760  1.00  0.00     0.029 A 
HETATM   11  C   UNL     1      44.215 -19.366   4.159  1.00  0.00    -0.023 A 
HETATM   12  C   UNL     1      44.903 -19.278   5.379  1.00  0.00     0.012 A 
HETATM   13  C   UNL     1      44.767 -18.150   6.198  1.00  0.00     0.002 A 
HETATM   14  C   UNL     1      43.944 -17.095   5.807  1.00  0.00     0.017 A 
BRANCH  11  15
HETATM   15  C   UNL     1      44.295 -20.554   3.324  1.00  0.00    -0.002 A 
HETATM   16  C   UNL     1      44.685 -21.801   3.770  1.00  0.00     0.153 A 
HETATM   17  O   UNL     1      44.616 -22.719   2.770  1.00  0.00    -0.334 OA
HETATM   18  C   UNL     1      44.170 -22.066   1.668  1.00  0.00     0.142 A 
HETATM   19  C   UNL     1      43.954 -20.738   1.952  1.00  0.00     0.038 A 
ENDBRANCH  11  15
ENDBRANCH   6   9
ENDBRANCH   2   5
BRANCH   1  20
HETATM   20  C   UNL     1      40.602 -12.780   1.539  1.00  0.00     0.145 C 
BRANCH  20  21
HETATM   21  C   UNL     1      39.799 -13.369   0.424  1.00  0.00    -0.021 A 
HETATM   22  C   UNL     1      40.187 -13.719  -0.917  1.00  0.00    -0.001 A 
HETATM   23  C   UNL     1      41.398 -13.728  -1.641  1.00  0.00     0.014 A 
HETATM   24  C   UNL     1      39.027 -14.104  -1.597  1.00  0.00     0.042 A 
HETATM   25  C   UNL     1      41.406 -14.101  -2.992  1.00  0.00     0.001 A 
HETATM   26  C   UNL     1      40.228 -14.463  -3.637  1.00  0.00     0.002 A 
HETATM   27  C   UNL     1      39.015 -14.475  -2.947  1.00  0.00     0.030 A 
HETATM   28  N   UNL     1      37.985 -14.034  -0.704  1.00  0.00    -0.365 N 
HETATM   29  H   UNL     1      37.025 -14.258  -0.927  1.00  0.00     0.165 HD
HETATM   30  C   UNL     1      38.433 -13.589   0.506  1.00  0.00     0.097 A 
ENDBRANCH  20  21
ENDBRANCH   1  20
TORSDOF 5
ENDMDL
