MODEL 1
REMARK VINA RESULT:      -9.1      0.000      0.000
REMARK  9 active torsions:
REMARK  status: ('A' for Active; 'I' for Inactive)
REMARK    1  A    between atoms: C_4  and  C_5 
REMARK    2  A    between atoms: C_8  and  C_9 
REMARK       I    between atoms: C_9  and  N_10 
REMARK    3  A    between atoms: N_10  and  C_11 
REMARK    4  A    between atoms: N_10  and  C_26 
REMARK    5  A    between atoms: C_11  and  C_12 
REMARK    6  A    between atoms: C_11  and  C_21 
REMARK       I    between atoms: C_12  and  N_13 
REMARK    7  A    between atoms: N_13  and  C_14 
REMARK    8  A    between atoms: C_14  and  C_15 
REMARK    9  A    between atoms: C_26  and  C_27 
ROOT
HETATM    1  C   UNL     1      43.355 -16.643   7.036  1.00  0.00     0.271 C 
HETATM    2  N   UNL     1      42.750 -15.801   6.096  1.00  0.00    -0.324 N 
HETATM    3  O   UNL     1      43.655 -16.226   8.156  1.00  0.00    -0.266 OA
ENDROOT
BRANCH   2   4
HETATM    4  C   UNL     1      42.704 -14.339   6.344  1.00  0.00     0.220 C 
BRANCH   4   5
HETATM    5  C   UNL     1      44.082 -13.681   6.671  1.00  0.00     0.245 C 
HETATM    6  N   UNL     1      44.228 -13.166   7.939  1.00  0.00    -0.357 N 
HETATM    7  H   UNL     1      43.571 -13.511   8.640  1.00  0.00     0.162 HD
HETATM    8  O   UNL     1      45.019 -13.713   5.872  1.00  0.00    -0.271 OA
BRANCH   6   9
HETATM    9  C   UNL     1      45.480 -12.626   8.436  1.00  0.00     0.154 C 
BRANCH   9  10
HETATM   10  C   UNL     1      45.310 -11.499   9.458  1.00  0.00     0.139 C 
HETATM   11  O   UNL     1      44.172 -10.670   9.142  1.00  0.00    -0.384 OA
HETATM   12  C   UNL     1      43.610 -10.195  10.375  1.00  0.00     0.168 C 
HETATM   13  C   UNL     1      44.407 -10.812  11.509  1.00  0.00     0.029 C 
HETATM   14  C   UNL     1      45.031 -12.020  10.857  1.00  0.00     0.035 C 
ENDBRANCH   9  10
ENDBRANCH   6   9
ENDBRANCH   4   5
BRANCH   4  15
HETATM   15  C   UNL     1      41.957 -13.540   5.279  1.00  0.00     0.014 A 
HETATM   16  S   UNL     1      40.283 -13.161   5.447  1.00  0.00    -0.104 SA
HETATM   17  C   UNL     1      40.250 -12.277   3.989  1.00  0.00     0.050 A 
HETATM   18  C   UNL     1      41.486 -12.225   3.391  1.00  0.00     0.008 A 
HETATM   19  C   UNL     1      42.466 -12.944   4.133  1.00  0.00     0.017 A 
ENDBRANCH   4  15
ENDBRANCH   2   4
BRANCH   2  20
HETATM   20  C   UNL     1      41.660 -16.321   5.264  1.00  0.00     0.173 C 
BRANCH  20  21
HETATM   21  C   UNL     1      42.030 -16.362   3.804  1.00  0.00     0.000 A 
HETATM   22  S   UNL     1      40.761 -16.318   2.642  1.00  0.00    -0.105 SA
HETATM   23  C   UNL     1      41.856 -16.395   1.334  1.00  0.00     0.050 A 
HETATM   24  C   UNL     1      43.163 -16.443   1.759  1.00  0.00     0.008 A 
HETATM   25  C   UNL     1      43.262 -16.415   3.180  1.00  0.00     0.017 A 
ENDBRANCH  20  21
ENDBRANCH   2  20
BRANCH   1  26
HETATM   26  C   UNL     1      43.585 -18.025   6.671  1.00  0.00     0.101 A 
HETATM   27  N   UNL     1      43.740 -18.510   5.391  1.00  0.00    -0.351 N 
HETATM   28  C   UNL     1      43.971 -19.869   5.397  1.00  0.00     0.043 A 
HETATM   29  H   UNL     1      43.724 -17.937   4.558  1.00  0.00     0.166 HD
HETATM   30  C   UNL     1      44.004 -20.249   6.727  1.00  0.00     0.033 A 
HETATM   31  C   UNL     1      43.783 -19.100   7.520  1.00  0.00     0.037 A 
BRANCH  28  32
HETATM   32  C   UNL     1      44.178 -20.657   4.176  1.00  0.00    -0.009 A 
HETATM   33  C   UNL     1      44.664 -21.970   4.256  1.00  0.00     0.013 A 
HETATM   34  C   UNL     1      44.861 -22.733   3.103  1.00  0.00     0.001 A 
HETATM   35  C   UNL     1      44.574 -22.194   1.852  1.00  0.00     0.000 A 
HETATM   36  C   UNL     1      44.088 -20.892   1.755  1.00  0.00     0.001 A 
HETATM   37  C   UNL     1      43.892 -20.129   2.910  1.00  0.00     0.013 A 
ENDBRANCH  28  32
ENDBRANCH   1  26
TORSDOF 9
ENDMDL
MODEL 2
REMARK VINA RESULT:      -9.0      2.872      8.628
REMARK  9 active torsions:
REMARK  status: ('A' for Active; 'I' for Inactive)
REMARK    1  A    between atoms: C_4  and  C_5 
REMARK    2  A    between atoms: C_8  and  C_9 
REMARK       I    between atoms: C_9  and  N_10 
REMARK    3  A    between atoms: N_10  and  C_11 
REMARK    4  A    between atoms: N_10  and  C_26 
REMARK    5  A    between atoms: C_11  and  C_12 
REMARK    6  A    between atoms: C_11  and  C_21 
REMARK       I    between atoms: C_12  and  N_13 
REMARK    7  A    between atoms: N_13  and  C_14 
REMARK    8  A    between atoms: C_14  and  C_15 
REMARK    9  A    between atoms: C_26  and  C_27 
ROOT
HETATM    1  C   UNL     1      42.701 -14.135   4.911  1.00  0.00     0.271 C 
HETATM    2  N   UNL     1      42.198 -15.441   4.909  1.00  0.00    -0.324 N 
HETATM    3  O   UNL     1      42.418 -13.348   4.007  1.00  0.00    -0.266 OA
ENDROOT
BRANCH   2   4
HETATM    4  C   UNL     1      41.538 -15.970   3.690  1.00  0.00     0.220 C 
BRANCH   4   5
HETATM    5  C   UNL     1      40.643 -14.945   2.925  1.00  0.00     0.245 C 
HETATM    6  N   UNL     1      41.096 -14.538   1.691  1.00  0.00    -0.357 N 
HETATM    7  H   UNL     1      41.791 -15.140   1.249  1.00  0.00     0.162 HD
HETATM    8  O   UNL     1      39.542 -14.599   3.359  1.00  0.00    -0.271 OA
BRANCH   6   9
HETATM    9  C   UNL     1      40.327 -13.680   0.807  1.00  0.00     0.154 C 
BRANCH   9  10
HETATM   10  C   UNL     1      40.085 -14.275  -0.582  1.00  0.00     0.139 C 
HETATM   11  O   UNL     1      40.285 -13.291  -1.618  1.00  0.00    -0.384 OA
HETATM   12  C   UNL     1      40.795 -13.963  -2.780  1.00  0.00     0.168 C 
HETATM   13  C   UNL     1      40.975 -15.426  -2.420  1.00  0.00     0.029 C 
HETATM   14  C   UNL     1      41.063 -15.389  -0.915  1.00  0.00     0.035 C 
ENDBRANCH   9  10
ENDBRANCH   6   9
ENDBRANCH   4   5
BRANCH   4  15
HETATM   15  C   UNL     1      42.475 -16.698   2.730  1.00  0.00     0.014 A 
HETATM   16  S   UNL     1      41.920 -18.002   1.746  1.00  0.00    -0.104 SA
HETATM   17  C   UNL     1      43.439 -18.191   0.993  1.00  0.00     0.050 A 
HETATM   18  C   UNL     1      44.352 -17.265   1.437  1.00  0.00     0.008 A 
HETATM   19  C   UNL     1      43.798 -16.405   2.428  1.00  0.00     0.017 A 
ENDBRANCH   4  15
ENDBRANCH   2   4
BRANCH   2  20
HETATM   20  C   UNL     1      41.736 -16.034   6.168  1.00  0.00     0.173 C 
BRANCH  20  21
HETATM   21  C   UNL     1      42.575 -17.215   6.582  1.00  0.00     0.000 A 
HETATM   22  S   UNL     1      43.337 -17.169   8.124  1.00  0.00    -0.105 SA
HETATM   23  C   UNL     1      44.045 -18.708   7.901  1.00  0.00     0.050 A 
HETATM   24  C   UNL     1      43.708 -19.258   6.687  1.00  0.00     0.008 A 
HETATM   25  C   UNL     1      42.854 -18.403   5.933  1.00  0.00     0.017 A 
ENDBRANCH  20  21
ENDBRANCH   2  20
BRANCH   1  26
HETATM   26  C   UNL     1      43.531 -13.722   6.024  1.00  0.00     0.101 A 
HETATM   27  N   UNL     1      43.168 -12.850   7.026  1.00  0.00    -0.351 N 
HETATM   28  C   UNL     1      44.183 -12.695   7.946  1.00  0.00     0.043 A 
HETATM   29  H   UNL     1      42.260 -12.410   7.097  1.00  0.00     0.166 HD
HETATM   30  C   UNL     1      45.207 -13.530   7.533  1.00  0.00     0.033 A 
HETATM   31  C   UNL     1      44.795 -14.183   6.350  1.00  0.00     0.037 A 
BRANCH  28  32
HETATM   32  C   UNL     1      44.078 -11.828   9.125  1.00  0.00    -0.009 A 
HETATM   33  C   UNL     1      45.079 -11.844  10.106  1.00  0.00     0.013 A 
HETATM   34  C   UNL     1      44.994 -11.020  11.231  1.00  0.00     0.001 A 
HETATM   35  C   UNL     1      43.906 -10.167  11.390  1.00  0.00     0.000 A 
HETATM   36  C   UNL     1      42.904 -10.137  10.423  1.00  0.00     0.001 A 
HETATM   37  C   UNL     1      42.989 -10.962   9.298  1.00  0.00     0.013 A 
ENDBRANCH  28  32
ENDBRANCH   1  26
TORSDOF 9
ENDMDL
MODEL 3
REMARK VINA RESULT:      -8.9      2.669      4.218
REMARK  9 active torsions:
REMARK  status: ('A' for Active; 'I' for Inactive)
REMARK    1  A    between atoms: C_4  and  C_5 
REMARK    2  A    between atoms: C_8  and  C_9 
REMARK       I    between atoms: C_9  and  N_10 
REMARK    3  A    between atoms: N_10  and  C_11 
REMARK    4  A    between atoms: N_10  and  C_26 
REMARK    5  A    between atoms: C_11  and  C_12 
REMARK    6  A    between atoms: C_11  and  C_21 
REMARK       I    between atoms: C_12  and  N_13 
REMARK    7  A    between atoms: N_13  and  C_14 
REMARK    8  A    between atoms: C_14  and  C_15 
REMARK    9  A    between atoms: C_26  and  C_27 
ROOT
HETATM    1  C   UNL     1      41.035 -15.767   2.343  1.00  0.00     0.271 C 
HETATM    2  N   UNL     1      41.242 -14.886   3.410  1.00  0.00    -0.324 N 
HETATM    3  O   UNL     1      40.021 -15.690   1.648  1.00  0.00    -0.266 OA
ENDROOT
BRANCH   2   4
HETATM    4  C   UNL     1      40.125 -14.027   3.879  1.00  0.00     0.220 C 
BRANCH   4   5
HETATM    5  C   UNL     1      40.003 -13.891   5.429  1.00  0.00     0.245 C 
HETATM    6  N   UNL     1      39.559 -12.677   5.903  1.00  0.00    -0.357 N 
HETATM    7  H   UNL     1      39.068 -12.087   5.230  1.00  0.00     0.162 HD
HETATM    8  O   UNL     1      40.195 -14.849   6.179  1.00  0.00    -0.271 OA
BRANCH   6   9
HETATM    9  C   UNL     1      39.282 -12.426   7.305  1.00  0.00     0.154 C 
BRANCH   9  10
HETATM   10  C   UNL     1      39.913 -11.139   7.844  1.00  0.00     0.139 C 
HETATM   11  O   UNL     1      39.998 -11.159   9.285  1.00  0.00    -0.384 OA
HETATM   12  C   UNL     1      41.172 -10.427   9.672  1.00  0.00     0.168 C 
HETATM   13  C   UNL     1      41.875  -9.986   8.402  1.00  0.00     0.029 C 
HETATM   14  C   UNL     1      41.346 -10.955   7.376  1.00  0.00     0.035 C 
ENDBRANCH   9  10
ENDBRANCH   6   9
ENDBRANCH   4   5
BRANCH   4  15
HETATM   15  C   UNL     1      40.052 -12.661   3.203  1.00  0.00     0.014 A 
HETATM   16  S   UNL     1      38.712 -12.218   2.211  1.00  0.00    -0.104 SA
HETATM   17  C   UNL     1      39.331 -10.655   1.926  1.00  0.00     0.050 A 
HETATM   18  C   UNL     1      40.512 -10.440   2.594  1.00  0.00     0.008 A 
HETATM   19  C   UNL     1      40.923 -11.587   3.331  1.00  0.00     0.017 A 
ENDBRANCH   4  15
ENDBRANCH   2   4
BRANCH   2  20
HETATM   20  C   UNL     1      42.581 -14.335   3.638  1.00  0.00     0.173 C 
BRANCH  20  21
HETATM   21  C   UNL     1      43.212 -14.875   4.895  1.00  0.00     0.000 A 
HETATM   22  S   UNL     1      43.716 -13.754   6.099  1.00  0.00    -0.105 SA
HETATM   23  C   UNL     1      44.283 -14.996   7.124  1.00  0.00     0.050 A 
HETATM   24  C   UNL     1      44.089 -16.243   6.578  1.00  0.00     0.008 A 
HETATM   25  C   UNL     1      43.464 -16.173   5.300  1.00  0.00     0.017 A 
ENDBRANCH  20  21
ENDBRANCH   2  20
BRANCH   1  26
HETATM   26  C   UNL     1      42.063 -16.745   2.053  1.00  0.00     0.101 A 
HETATM   27  N   UNL     1      42.331 -17.880   2.785  1.00  0.00    -0.351 N 
HETATM   28  C   UNL     1      43.355 -18.609   2.219  1.00  0.00     0.043 A 
HETATM   29  H   UNL     1      41.817 -18.161   3.609  1.00  0.00     0.166 HD
HETATM   30  C   UNL     1      43.720 -17.933   1.068  1.00  0.00     0.033 A 
HETATM   31  C   UNL     1      42.904 -16.784   0.954  1.00  0.00     0.037 A 
BRANCH  28  32
HETATM   32  C   UNL     1      43.854 -19.870   2.781  1.00  0.00    -0.009 A 
HETATM   33  C   UNL     1      43.839 -21.042   2.012  1.00  0.00     0.013 A 
HETATM   34  C   UNL     1      44.315 -22.248   2.533  1.00  0.00     0.001 A 
HETATM   35  C   UNL     1      44.815 -22.298   3.831  1.00  0.00     0.000 A 
HETATM   36  C   UNL     1      44.839 -21.141   4.608  1.00  0.00     0.001 A 
HETATM   37  C   UNL     1      44.362 -19.936   4.086  1.00  0.00     0.013 A 
ENDBRANCH  28  32
ENDBRANCH   1  26
TORSDOF 9
ENDMDL
MODEL 4
REMARK VINA RESULT:      -8.8      3.457      6.282
REMARK  9 active torsions:
REMARK  status: ('A' for Active; 'I' for Inactive)
REMARK    1  A    between atoms: C_4  and  C_5 
REMARK    2  A    between atoms: C_8  and  C_9 
REMARK       I    between atoms: C_9  and  N_10 
REMARK    3  A    between atoms: N_10  and  C_11 
REMARK    4  A    between atoms: N_10  and  C_26 
REMARK    5  A    between atoms: C_11  and  C_12 
REMARK    6  A    between atoms: C_11  and  C_21 
REMARK       I    between atoms: C_12  and  N_13 
REMARK    7  A    between atoms: N_13  and  C_14 
REMARK    8  A    between atoms: C_14  and  C_15 
REMARK    9  A    between atoms: C_26  and  C_27 
ROOT
HETATM    1  C   UNL     1      43.008 -14.680   3.272  1.00  0.00     0.271 C 
HETATM    2  N   UNL     1      41.845 -13.981   2.931  1.00  0.00    -0.324 N 
HETATM    3  O   UNL     1      43.775 -14.247   4.134  1.00  0.00    -0.266 OA
ENDROOT
BRANCH   2   4
HETATM    4  C   UNL     1      41.660 -12.588   3.410  1.00  0.00     0.220 C 
BRANCH   4   5
HETATM    5  C   UNL     1      41.120 -11.588   2.339  1.00  0.00     0.245 C 
HETATM    6  N   UNL     1      41.962 -11.305   1.287  1.00  0.00    -0.357 N 
HETATM    7  H   UNL     1      42.715 -11.974   1.126  1.00  0.00     0.162 HD
HETATM    8  O   UNL     1      39.967 -11.157   2.381  1.00  0.00    -0.271 OA
BRANCH   6   9
HETATM    9  C   UNL     1      41.568 -10.488   0.154  1.00  0.00     0.154 C 
BRANCH   9  10
HETATM   10  C   UNL     1      42.292 -10.839  -1.148  1.00  0.00     0.139 C 
HETATM   11  O   UNL     1      42.967 -12.110  -1.048  1.00  0.00    -0.384 OA
HETATM   12  C   UNL     1      42.947 -12.729  -2.344  1.00  0.00     0.168 C 
HETATM   13  C   UNL     1      42.167 -11.819  -3.273  1.00  0.00     0.029 C 
HETATM   14  C   UNL     1      41.336 -11.002  -2.318  1.00  0.00     0.035 C 
ENDBRANCH   9  10
ENDBRANCH   6   9
ENDBRANCH   4   5
BRANCH   4  15
HETATM   15  C   UNL     1      40.876 -12.467   4.714  1.00  0.00     0.014 A 
HETATM   16  S   UNL     1      41.173 -11.182   5.826  1.00  0.00    -0.104 SA
HETATM   17  C   UNL     1      39.942 -11.702   6.886  1.00  0.00     0.050 A 
HETATM   18  C   UNL     1      39.281 -12.805   6.403  1.00  0.00     0.008 A 
HETATM   19  C   UNL     1      39.812 -13.241   5.155  1.00  0.00     0.017 A 
ENDBRANCH   4  15
ENDBRANCH   2   4
BRANCH   2  20
HETATM   20  C   UNL     1      40.603 -14.723   2.698  1.00  0.00     0.173 C 
BRANCH  20  21
HETATM   21  C   UNL     1      40.012 -14.433   1.343  1.00  0.00     0.000 A 
HETATM   22  S   UNL     1      38.330 -14.082   1.247  1.00  0.00    -0.105 SA
HETATM   23  C   UNL     1      38.393 -13.883  -0.448  1.00  0.00     0.050 A 
HETATM   24  C   UNL     1      39.663 -14.068  -0.941  1.00  0.00     0.008 A 
HETATM   25  C   UNL     1      40.596 -14.375   0.091  1.00  0.00     0.017 A 
ENDBRANCH  20  21
ENDBRANCH   2  20
BRANCH   1  26
HETATM   26  C   UNL     1      43.266 -15.944   2.614  1.00  0.00     0.101 A 
HETATM   27  N   UNL     1      43.529 -17.143   3.238  1.00  0.00    -0.351 N 
HETATM   28  C   UNL     1      43.700 -18.157   2.319  1.00  0.00     0.043 A 
HETATM   29  H   UNL     1      43.555 -17.271   4.241  1.00  0.00     0.166 HD
HETATM   30  C   UNL     1      43.497 -17.587   1.074  1.00  0.00     0.033 A 
HETATM   31  C   UNL     1      43.209 -16.216   1.258  1.00  0.00     0.037 A 
BRANCH  28  32
HETATM   32  C   UNL     1      43.988 -19.546   2.695  1.00  0.00    -0.009 A 
HETATM   33  C   UNL     1      44.539 -19.839   3.951  1.00  0.00     0.013 A 
HETATM   34  C   UNL     1      44.815 -21.157   4.323  1.00  0.00     0.001 A 
HETATM   35  C   UNL     1      44.542 -22.202   3.444  1.00  0.00     0.000 A 
HETATM   36  C   UNL     1      43.993 -21.927   2.193  1.00  0.00     0.001 A 
HETATM   37  C   UNL     1      43.718 -20.608   1.821  1.00  0.00     0.013 A 
ENDBRANCH  28  32
ENDBRANCH   1  26
TORSDOF 9
ENDMDL
MODEL 5
REMARK VINA RESULT:      -8.7      2.668      5.451
REMARK  9 active torsions:
REMARK  status: ('A' for Active; 'I' for Inactive)
REMARK    1  A    between atoms: C_4  and  C_5 
REMARK    2  A    between atoms: C_8  and  C_9 
REMARK       I    between atoms: C_9  and  N_10 
REMARK    3  A    between atoms: N_10  and  C_11 
REMARK    4  A    between atoms: N_10  and  C_26 
REMARK    5  A    between atoms: C_11  and  C_12 
REMARK    6  A    between atoms: C_11  and  C_21 
REMARK       I    between atoms: C_12  and  N_13 
REMARK    7  A    between atoms: N_13  and  C_14 
REMARK    8  A    between atoms: C_14  and  C_15 
REMARK    9  A    between atoms: C_26  and  C_27 
ROOT
HETATM    1  C   UNL     1      43.454 -15.174   5.677  1.00  0.00     0.271 C 
HETATM    2  N   UNL     1      42.574 -14.835   4.644  1.00  0.00    -0.324 N 
HETATM    3  O   UNL     1      43.815 -14.332   6.502  1.00  0.00    -0.266 OA
ENDROOT
BRANCH   2   4
HETATM    4  C   UNL     1      42.276 -13.406   4.374  1.00  0.00     0.220 C 
BRANCH   4   5
HETATM    5  C   UNL     1      41.970 -13.065   2.882  1.00  0.00     0.245 C 
HETATM    6  N   UNL     1      40.644 -12.894   2.553  1.00  0.00    -0.357 N 
HETATM    7  H   UNL     1      40.012 -12.704   3.330  1.00  0.00     0.162 HD
HETATM    8  O   UNL     1      42.872 -12.860   2.068  1.00  0.00    -0.271 OA
BRANCH   6   9
HETATM    9  C   UNL     1      40.202 -12.463   1.239  1.00  0.00     0.154 C 
BRANCH   9  10
HETATM   10  C   UNL     1      39.887 -13.614   0.279  1.00  0.00     0.139 C 
HETATM   11  O   UNL     1      38.726 -13.323  -0.526  1.00  0.00    -0.384 OA
HETATM   12  C   UNL     1      38.905 -13.947  -1.808  1.00  0.00     0.168 C 
HETATM   13  C   UNL     1      40.272 -14.603  -1.810  1.00  0.00     0.029 C 
HETATM   14  C   UNL     1      41.002 -13.854  -0.724  1.00  0.00     0.035 C 
ENDBRANCH   9  10
ENDBRANCH   6   9
ENDBRANCH   4   5
BRANCH   4  15
HETATM   15  C   UNL     1      41.228 -12.794   5.300  1.00  0.00     0.014 A 
HETATM   16  S   UNL     1      41.197 -11.101   5.629  1.00  0.00    -0.104 SA
HETATM   17  C   UNL     1      39.807 -11.231   6.609  1.00  0.00     0.050 A 
HETATM   18  C   UNL     1      39.336 -12.521   6.665  1.00  0.00     0.008 A 
HETATM   19  C   UNL     1      40.147 -13.416   5.910  1.00  0.00     0.017 A 
ENDBRANCH   4  15
ENDBRANCH   2   4
BRANCH   2  20
HETATM   20  C   UNL     1      41.505 -15.768   4.275  1.00  0.00     0.173 C 
BRANCH  20  21
HETATM   21  C   UNL     1      41.674 -16.303   2.877  1.00  0.00     0.000 A 
HETATM   22  S   UNL     1      40.276 -16.874   2.051  1.00  0.00    -0.105 SA
HETATM   23  C   UNL     1      41.176 -17.284   0.658  1.00  0.00     0.050 A 
HETATM   24  C   UNL     1      42.512 -16.988   0.803  1.00  0.00     0.008 A 
HETATM   25  C   UNL     1      42.795 -16.414   2.076  1.00  0.00     0.017 A 
ENDBRANCH  20  21
ENDBRANCH   2  20
BRANCH   1  26
HETATM   26  C   UNL     1      43.899 -16.549   5.775  1.00  0.00     0.101 A 
HETATM   27  N   UNL     1      43.800 -17.504   4.788  1.00  0.00    -0.351 N 
HETATM   28  C   UNL     1      44.346 -18.703   5.197  1.00  0.00     0.043 A 
HETATM   29  H   UNL     1      43.412 -17.337   3.869  1.00  0.00     0.166 HD
HETATM   30  C   UNL     1      44.843 -18.485   6.470  1.00  0.00     0.033 A 
HETATM   31  C   UNL     1      44.583 -17.141   6.822  1.00  0.00     0.037 A 
BRANCH  28  32
HETATM   32  C   UNL     1      44.385 -19.901   4.351  1.00  0.00    -0.009 A 
HETATM   33  C   UNL     1      44.754 -21.139   4.896  1.00  0.00     0.013 A 
HETATM   34  C   UNL     1      44.792 -22.290   4.103  1.00  0.00     0.001 A 
HETATM   35  C   UNL     1      44.458 -22.217   2.754  1.00  0.00     0.000 A 
HETATM   36  C   UNL     1      44.086 -20.995   2.198  1.00  0.00     0.001 A 
HETATM   37  C   UNL     1      44.050 -19.845   2.991  1.00  0.00     0.013 A 
ENDBRANCH  28  32
ENDBRANCH   1  26
TORSDOF 9
ENDMDL
MODEL 6
REMARK VINA RESULT:      -8.5      4.186      7.717
REMARK  9 active torsions:
REMARK  status: ('A' for Active; 'I' for Inactive)
REMARK    1  A    between atoms: C_4  and  C_5 
REMARK    2  A    between atoms: C_8  and  C_9 
REMARK       I    between atoms: C_9  and  N_10 
REMARK    3  A    between atoms: N_10  and  C_11 
REMARK    4  A    between atoms: N_10  and  C_26 
REMARK    5  A    between atoms: C_11  and  C_12 
REMARK    6  A    between atoms: C_11  and  C_21 
REMARK       I    between atoms: C_12  and  N_13 
REMARK    7  A    between atoms: N_13  and  C_14 
REMARK    8  A    between atoms: C_14  and  C_15 
REMARK    9  A    between atoms: C_26  and  C_27 
ROOT
HETATM    1  C   UNL     1      42.410 -14.284   2.464  1.00  0.00     0.271 C 
HETATM    2  N   UNL     1      41.081 -14.207   2.033  1.00  0.00    -0.324 N 
HETATM    3  O   UNL     1      43.195 -13.357   2.260  1.00  0.00    -0.266 OA
ENDROOT
BRANCH   2   4
HETATM    4  C   UNL     1      40.675 -13.128   1.098  1.00  0.00     0.220 C 
BRANCH   4   5
HETATM    5  C   UNL     1      41.375 -13.165  -0.297  1.00  0.00     0.245 C 
HETATM    6  N   UNL     1      40.966 -14.155  -1.160  1.00  0.00    -0.357 N 
HETATM    7  H   UNL     1      40.061 -14.580  -0.956  1.00  0.00     0.162 HD
HETATM    8  O   UNL     1      42.175 -12.293  -0.642  1.00  0.00    -0.271 OA
BRANCH   6   9
HETATM    9  C   UNL     1      41.434 -14.256  -2.531  1.00  0.00     0.154 C 
BRANCH   9  10
HETATM   10  C   UNL     1      40.319 -14.484  -3.555  1.00  0.00     0.139 C 
HETATM   11  O   UNL     1      40.221 -15.875  -3.925  1.00  0.00    -0.384 OA
HETATM   12  C   UNL     1      38.843 -16.166  -4.205  1.00  0.00     0.168 C 
HETATM   13  C   UNL     1      38.045 -14.904  -3.936  1.00  0.00     0.029 C 
HETATM   14  C   UNL     1      38.947 -14.134  -3.006  1.00  0.00     0.035 C 
ENDBRANCH   9  10
ENDBRANCH   6   9
ENDBRANCH   4   5
BRANCH   4  15
HETATM   15  C   UNL     1      39.166 -12.957   0.947  1.00  0.00     0.014 A 
HETATM   16  S   UNL     1      38.435 -11.394   0.921  1.00  0.00    -0.104 SA
HETATM   17  C   UNL     1      36.874 -12.036   0.678  1.00  0.00     0.050 A 
HETATM   18  C   UNL     1      36.891 -13.406   0.575  1.00  0.00     0.008 A 
HETATM   19  C   UNL     1      38.206 -13.934   0.723  1.00  0.00     0.017 A 
ENDBRANCH   4  15
ENDBRANCH   2   4
BRANCH   2  20
HETATM   20  C   UNL     1      40.012 -14.700   2.907  1.00  0.00     0.173 C 
BRANCH  20  21
HETATM   21  C   UNL     1      39.833 -13.836   4.128  1.00  0.00     0.000 A 
HETATM   22  S   UNL     1      40.074 -14.553   5.674  1.00  0.00    -0.105 SA
HETATM   23  C   UNL     1      39.723 -13.094   6.488  1.00  0.00     0.050 A 
HETATM   24  C   UNL     1      39.436 -12.072   5.613  1.00  0.00     0.008 A 
HETATM   25  C   UNL     1      39.509 -12.498   4.255  1.00  0.00     0.017 A 
ENDBRANCH  20  21
ENDBRANCH   2  20
BRANCH   1  26
HETATM   26  C   UNL     1      42.827 -15.465   3.191  1.00  0.00     0.101 A 
HETATM   27  N   UNL     1      43.052 -16.711   2.650  1.00  0.00    -0.351 N 
HETATM   28  C   UNL     1      43.466 -17.607   3.613  1.00  0.00     0.043 A 
HETATM   29  H   UNL     1      42.962 -16.931   1.667  1.00  0.00     0.166 HD
HETATM   30  C   UNL     1      43.545 -16.891   4.796  1.00  0.00     0.033 A 
HETATM   31  C   UNL     1      43.166 -15.556   4.529  1.00  0.00     0.037 A 
BRANCH  28  32
HETATM   32  C   UNL     1      43.784 -19.010   3.327  1.00  0.00    -0.009 A 
HETATM   33  C   UNL     1      43.373 -19.596   2.121  1.00  0.00     0.013 A 
HETATM   34  C   UNL     1      43.672 -20.931   1.834  1.00  0.00     0.001 A 
HETATM   35  C   UNL     1      44.388 -21.698   2.749  1.00  0.00     0.000 A 
HETATM   36  C   UNL     1      44.805 -21.130   3.951  1.00  0.00     0.001 A 
HETATM   37  C   UNL     1      44.505 -19.795   4.237  1.00  0.00     0.013 A 
ENDBRANCH  28  32
ENDBRANCH   1  26
TORSDOF 9
ENDMDL
MODEL 7
REMARK VINA RESULT:      -8.5      3.048      6.083
REMARK  9 active torsions:
REMARK  status: ('A' for Active; 'I' for Inactive)
REMARK    1  A    between atoms: C_4  and  C_5 
REMARK    2  A    between atoms: C_8  and  C_9 
REMARK       I    between atoms: C_9  and  N_10 
REMARK    3  A    between atoms: N_10  and  C_11 
REMARK    4  A    between atoms: N_10  and  C_26 
REMARK    5  A    between atoms: C_11  and  C_12 
REMARK    6  A    between atoms: C_11  and  C_21 
REMARK       I    between atoms: C_12  and  N_13 
REMARK    7  A    between atoms: N_13  and  C_14 
REMARK    8  A    between atoms: C_14  and  C_15 
REMARK    9  A    between atoms: C_26  and  C_27 
ROOT
HETATM    1  C   UNL     1      42.395 -14.397   3.010  1.00  0.00     0.271 C 
HETATM    2  N   UNL     1      41.464 -13.929   3.943  1.00  0.00    -0.324 N 
HETATM    3  O   UNL     1      43.293 -13.665   2.591  1.00  0.00    -0.266 OA
ENDROOT
BRANCH   2   4
HETATM    4  C   UNL     1      41.388 -12.476   4.237  1.00  0.00     0.220 C 
BRANCH   4   5
HETATM    5  C   UNL     1      40.756 -11.605   3.106  1.00  0.00     0.245 C 
HETATM    6  N   UNL     1      41.611 -11.166   2.122  1.00  0.00    -0.357 N 
HETATM    7  H   UNL     1      42.492 -11.673   2.036  1.00  0.00     0.162 HD
HETATM    8  O   UNL     1      39.540 -11.410   3.044  1.00  0.00    -0.271 OA
BRANCH   6   9
HETATM    9  C   UNL     1      41.162 -10.446   0.944  1.00  0.00     0.154 C 
BRANCH   9  10
HETATM   10  C   UNL     1      41.170 -11.283  -0.338  1.00  0.00     0.139 C 
HETATM   11  O   UNL     1      42.254 -12.236  -0.337  1.00  0.00    -0.384 OA
HETATM   12  C   UNL     1      41.820 -13.403  -1.052  1.00  0.00     0.168 C 
HETATM   13  C   UNL     1      40.377 -13.180  -1.462  1.00  0.00     0.029 C 
HETATM   14  C   UNL     1      39.915 -12.125  -0.489  1.00  0.00     0.035 C 
ENDBRANCH   9  10
ENDBRANCH   6   9
ENDBRANCH   4   5
BRANCH   4  15
HETATM   15  C   UNL     1      40.777 -12.137   5.593  1.00  0.00     0.014 A 
HETATM   16  S   UNL     1      41.529 -11.014   6.665  1.00  0.00    -0.104 SA
HETATM   17  C   UNL     1      40.281 -11.148   7.819  1.00  0.00     0.050 A 
HETATM   18  C   UNL     1      39.282 -11.994   7.400  1.00  0.00     0.008 A 
HETATM   19  C   UNL     1      39.563 -12.556   6.122  1.00  0.00     0.017 A 
ENDBRANCH   4  15
ENDBRANCH   2   4
BRANCH   2  20
HETATM   20  C   UNL     1      41.048 -14.803   5.043  1.00  0.00     0.173 C 
BRANCH  20  21
HETATM   21  C   UNL     1      42.212 -15.242   5.893  1.00  0.00     0.000 A 
HETATM   22  S   UNL     1      42.148 -16.803   6.616  1.00  0.00    -0.105 SA
HETATM   23  C   UNL     1      43.674 -16.604   7.356  1.00  0.00     0.050 A 
HETATM   24  C   UNL     1      44.235 -15.384   7.059  1.00  0.00     0.008 A 
HETATM   25  C   UNL     1      43.397 -14.605   6.209  1.00  0.00     0.017 A 
ENDBRANCH  20  21
ENDBRANCH   2  20
BRANCH   1  26
HETATM   26  C   UNL     1      42.299 -15.776   2.578  1.00  0.00     0.101 A 
HETATM   27  N   UNL     1      43.100 -16.814   2.998  1.00  0.00    -0.351 N 
HETATM   28  C   UNL     1      42.722 -18.005   2.414  1.00  0.00     0.043 A 
HETATM   29  H   UNL     1      43.844 -16.722   3.677  1.00  0.00     0.166 HD
HETATM   30  C   UNL     1      41.619 -17.716   1.629  1.00  0.00     0.033 A 
HETATM   31  C   UNL     1      41.344 -16.335   1.746  1.00  0.00     0.037 A 
BRANCH  28  32
HETATM   32  C   UNL     1      43.394 -19.282   2.678  1.00  0.00    -0.009 A 
HETATM   33  C   UNL     1      44.143 -19.458   3.850  1.00  0.00     0.013 A 
HETATM   34  C   UNL     1      44.785 -20.670   4.116  1.00  0.00     0.001 A 
HETATM   35  C   UNL     1      44.685 -21.725   3.213  1.00  0.00     0.000 A 
HETATM   36  C   UNL     1      43.943 -21.567   2.045  1.00  0.00     0.001 A 
HETATM   37  C   UNL     1      43.302 -20.354   1.780  1.00  0.00     0.013 A 
ENDBRANCH  28  32
ENDBRANCH   1  26
TORSDOF 9
ENDMDL
MODEL 8
REMARK VINA RESULT:      -8.3      2.715      8.475
REMARK  9 active torsions:
REMARK  status: ('A' for Active; 'I' for Inactive)
REMARK    1  A    between atoms: C_4  and  C_5 
REMARK    2  A    between atoms: C_8  and  C_9 
REMARK       I    between atoms: C_9  and  N_10 
REMARK    3  A    between atoms: N_10  and  C_11 
REMARK    4  A    between atoms: N_10  and  C_26 
REMARK    5  A    between atoms: C_11  and  C_12 
REMARK    6  A    between atoms: C_11  and  C_21 
REMARK       I    between atoms: C_12  and  N_13 
REMARK    7  A    between atoms: N_13  and  C_14 
REMARK    8  A    between atoms: C_14  and  C_15 
REMARK    9  A    between atoms: C_26  and  C_27 
ROOT
HETATM    1  C   UNL     1      41.124 -11.647   4.905  1.00  0.00     0.271 C 
HETATM    2  N   UNL     1      41.342 -12.975   4.522  1.00  0.00    -0.324 N 
HETATM    3  O   UNL     1      41.021 -10.754   4.062  1.00  0.00    -0.266 OA
ENDROOT
BRANCH   2   4
HETATM    4  C   UNL     1      41.714 -13.280   3.118  1.00  0.00     0.220 C 
BRANCH   4   5
HETATM    5  C   UNL     1      42.908 -14.273   2.953  1.00  0.00     0.245 C 
HETATM    6  N   UNL     1      42.608 -15.509   2.427  1.00  0.00    -0.357 N 
HETATM    7  H   UNL     1      41.726 -15.575   1.917  1.00  0.00     0.162 HD
HETATM    8  O   UNL     1      44.069 -13.931   3.184  1.00  0.00    -0.271 OA
BRANCH   6   9
HETATM    9  C   UNL     1      43.618 -16.500   2.103  1.00  0.00     0.154 C 
BRANCH   9  10
HETATM   10  C   UNL     1      43.334 -17.889   2.680  1.00  0.00     0.139 C 
HETATM   11  O   UNL     1      43.793 -18.931   1.793  1.00  0.00    -0.384 OA
HETATM   12  C   UNL     1      44.215 -20.045   2.595  1.00  0.00     0.168 C 
HETATM   13  C   UNL     1      44.063 -19.645   4.050  1.00  0.00     0.029 C 
HETATM   14  C   UNL     1      44.073 -18.139   3.983  1.00  0.00     0.035 C 
ENDBRANCH   9  10
ENDBRANCH   6   9
ENDBRANCH   4   5
BRANCH   4  15
HETATM   15  C   UNL     1      40.542 -13.683   2.227  1.00  0.00     0.014 A 
HETATM   16  S   UNL     1      40.451 -13.181   0.579  1.00  0.00    -0.104 SA
HETATM   17  C   UNL     1      38.999 -14.036   0.312  1.00  0.00     0.050 A 
HETATM   18  C   UNL     1      38.597 -14.728   1.428  1.00  0.00     0.008 A 
HETATM   19  C   UNL     1      39.484 -14.531   2.524  1.00  0.00     0.017 A 
ENDBRANCH   4  15
ENDBRANCH   2   4
BRANCH   2  20
HETATM   20  C   UNL     1      40.631 -14.050   5.220  1.00  0.00     0.173 C 
BRANCH  20  21
HETATM   21  C   UNL     1      41.572 -14.986   5.932  1.00  0.00     0.000 A 
HETATM   22  S   UNL     1      41.029 -16.583   6.272  1.00  0.00    -0.105 SA
HETATM   23  C   UNL     1      42.503 -17.004   7.023  1.00  0.00     0.050 A 
HETATM   24  C   UNL     1      43.402 -15.964   7.014  1.00  0.00     0.008 A 
HETATM   25  C   UNL     1      42.869 -14.806   6.377  1.00  0.00     0.017 A 
ENDBRANCH  20  21
ENDBRANCH   2  20
BRANCH   1  26
HETATM   26  C   UNL     1      40.983 -11.355   6.317  1.00  0.00     0.101 A 
HETATM   27  N   UNL     1      42.012 -11.223   7.223  1.00  0.00    -0.351 N 
HETATM   28  C   UNL     1      41.535 -10.916   8.480  1.00  0.00     0.043 A 
HETATM   29  H   UNL     1      42.993 -11.301   6.988  1.00  0.00     0.166 HD
HETATM   30  C   UNL     1      40.160 -10.812   8.355  1.00  0.00     0.033 A 
HETATM   31  C   UNL     1      39.819 -11.066   7.007  1.00  0.00     0.037 A 
BRANCH  28  32
HETATM   32  C   UNL     1      42.403 -10.713   9.645  1.00  0.00    -0.009 A 
HETATM   33  C   UNL     1      43.748 -11.103   9.601  1.00  0.00     0.013 A 
HETATM   34  C   UNL     1      44.587 -10.912  10.702  1.00  0.00     0.001 A 
HETATM   35  C   UNL     1      44.091 -10.324  11.863  1.00  0.00     0.000 A 
HETATM   36  C   UNL     1      42.757  -9.928  11.922  1.00  0.00     0.001 A 
HETATM   37  C   UNL     1      41.919 -10.121  10.820  1.00  0.00     0.013 A 
ENDBRANCH  28  32
ENDBRANCH   1  26
TORSDOF 9
ENDMDL
MODEL 9
REMARK VINA RESULT:      -8.3      2.200      3.026
REMARK  9 active torsions:
REMARK  status: ('A' for Active; 'I' for Inactive)
REMARK    1  A    between atoms: C_4  and  C_5 
REMARK    2  A    between atoms: C_8  and  C_9 
REMARK       I    between atoms: C_9  and  N_10 
REMARK    3  A    between atoms: N_10  and  C_11 
REMARK    4  A    between atoms: N_10  and  C_26 
REMARK    5  A    between atoms: C_11  and  C_12 
REMARK    6  A    between atoms: C_11  and  C_21 
REMARK       I    between atoms: C_12  and  N_13 
REMARK    7  A    between atoms: N_13  and  C_14 
REMARK    8  A    between atoms: C_14  and  C_15 
REMARK    9  A    between atoms: C_26  and  C_27 
ROOT
HETATM    1  C   UNL     1      41.094 -14.697   5.798  1.00  0.00     0.271 C 
HETATM    2  N   UNL     1      41.341 -13.404   5.323  1.00  0.00    -0.324 N 
HETATM    3  O   UNL     1      39.978 -15.014   6.214  1.00  0.00    -0.266 OA
ENDROOT
BRANCH   2   4
HETATM    4  C   UNL     1      40.343 -12.332   5.562  1.00  0.00     0.220 C 
BRANCH   4   5
HETATM    5  C   UNL     1      40.504 -11.568   6.913  1.00  0.00     0.245 C 
HETATM    6  N   UNL     1      41.794 -11.353   7.345  1.00  0.00    -0.357 N 
HETATM    7  H   UNL     1      42.521 -11.429   6.633  1.00  0.00     0.162 HD
HETATM    8  O   UNL     1      39.534 -11.095   7.508  1.00  0.00    -0.271 OA
BRANCH   6   9
HETATM    9  C   UNL     1      42.117 -10.562   8.518  1.00  0.00     0.154 C 
BRANCH   9  10
HETATM   10  C   UNL     1      43.191 -11.185   9.413  1.00  0.00     0.139 C 
HETATM   11  O   UNL     1      44.507 -11.027   8.842  1.00  0.00    -0.384 OA
HETATM   12  C   UNL     1      45.447 -10.893   9.919  1.00  0.00     0.168 C 
HETATM   13  C   UNL     1      44.662 -10.908  11.216  1.00  0.00     0.029 C 
HETATM   14  C   UNL     1      43.277 -10.511  10.771  1.00  0.00     0.035 C 
ENDBRANCH   9  10
ENDBRANCH   6   9
ENDBRANCH   4   5
BRANCH   4  15
HETATM   15  C   UNL     1      40.173 -11.357   4.401  1.00  0.00     0.014 A 
HETATM   16  S   UNL     1      38.791 -11.416   3.370  1.00  0.00    -0.104 SA
HETATM   17  C   UNL     1      39.307 -10.069   2.460  1.00  0.00     0.050 A 
HETATM   18  C   UNL     1      40.484  -9.546   2.938  1.00  0.00     0.008 A 
HETATM   19  C   UNL     1      40.978 -10.280   4.054  1.00  0.00     0.017 A 
ENDBRANCH   4  15
ENDBRANCH   2   4
BRANCH   2  20
HETATM   20  C   UNL     1      42.165 -13.224   4.124  1.00  0.00     0.173 C 
BRANCH  20  21
HETATM   21  C   UNL     1      41.467 -13.703   2.878  1.00  0.00     0.000 A 
HETATM   22  S   UNL     1      41.913 -12.996   1.373  1.00  0.00    -0.105 SA
HETATM   23  C   UNL     1      40.796 -13.954   0.507  1.00  0.00     0.050 A 
HETATM   24  C   UNL     1      40.099 -14.805   1.333  1.00  0.00     0.008 A 
HETATM   25  C   UNL     1      40.492 -14.666   2.695  1.00  0.00     0.017 A 
ENDBRANCH  20  21
ENDBRANCH   2  20
BRANCH   1  26
HETATM   26  C   UNL     1      42.172 -15.663   5.750  1.00  0.00     0.101 A 
HETATM   27  N   UNL     1      42.288 -16.703   4.856  1.00  0.00    -0.351 N 
HETATM   28  C   UNL     1      43.450 -17.417   5.067  1.00  0.00     0.043 A 
HETATM   29  H   UNL     1      41.627 -16.896   4.115  1.00  0.00     0.166 HD
HETATM   30  C   UNL     1      44.109 -16.780   6.105  1.00  0.00     0.033 A 
HETATM   31  C   UNL     1      43.325 -15.678   6.516  1.00  0.00     0.037 A 
BRANCH  28  32
HETATM   32  C   UNL     1      43.841 -18.579   4.262  1.00  0.00    -0.009 A 
HETATM   33  C   UNL     1      44.655 -19.579   4.813  1.00  0.00     0.013 A 
HETATM   34  C   UNL     1      45.031 -20.694   4.059  1.00  0.00     0.001 A 
HETATM   35  C   UNL     1      44.596 -20.824   2.742  1.00  0.00     0.000 A 
HETATM   36  C   UNL     1      43.785 -19.841   2.182  1.00  0.00     0.001 A 
HETATM   37  C   UNL     1      43.410 -18.726   2.937  1.00  0.00     0.013 A 
ENDBRANCH  28  32
ENDBRANCH   1  26
TORSDOF 9
ENDMDL
MODEL 10
REMARK VINA RESULT:      -8.3      5.506      8.804
REMARK  9 active torsions:
REMARK  status: ('A' for Active; 'I' for Inactive)
REMARK    1  A    between atoms: C_4  and  C_5 
REMARK    2  A    between atoms: C_8  and  C_9 
REMARK       I    between atoms: C_9  and  N_10 
REMARK    3  A    between atoms: N_10  and  C_11 
REMARK    4  A    between atoms: N_10  and  C_26 
REMARK    5  A    between atoms: C_11  and  C_12 
REMARK    6  A    between atoms: C_11  and  C_21 
REMARK       I    between atoms: C_12  and  N_13 
REMARK    7  A    between atoms: N_13  and  C_14 
REMARK    8  A    between atoms: C_14  and  C_15 
REMARK    9  A    between atoms: C_26  and  C_27 
ROOT
HETATM    1  C   UNL     1      41.198 -15.012  -0.309  1.00  0.00     0.271 C 
HETATM    2  N   UNL     1      41.269 -13.652   0.014  1.00  0.00    -0.324 N 
HETATM    3  O   UNL     1      41.129 -15.379  -1.484  1.00  0.00    -0.266 OA
ENDROOT
BRANCH   2   4
HETATM    4  C   UNL     1      40.995 -12.635  -1.032  1.00  0.00     0.220 C 
BRANCH   4   5
HETATM    5  C   UNL     1      39.490 -12.259  -1.209  1.00  0.00     0.245 C 
HETATM    6  N   UNL     1      39.131 -11.734  -2.430  1.00  0.00    -0.357 N 
HETATM    7  H   UNL     1      39.778 -11.910  -3.200  1.00  0.00     0.162 HD
HETATM    8  O   UNL     1      38.654 -12.514  -0.341  1.00  0.00    -0.271 OA
BRANCH   6   9
HETATM    9  C   UNL     1      37.757 -11.442  -2.795  1.00  0.00     0.154 C 
BRANCH   9  10
HETATM   10  C   UNL     1      37.231 -12.278  -3.964  1.00  0.00     0.139 C 
HETATM   11  O   UNL     1      37.555 -13.675  -3.799  1.00  0.00    -0.384 OA
HETATM   12  C   UNL     1      36.498 -14.450  -4.386  1.00  0.00     0.168 C 
HETATM   13  C   UNL     1      35.442 -13.481  -4.883  1.00  0.00     0.029 C 
HETATM   14  C   UNL     1      35.715 -12.244  -4.066  1.00  0.00     0.035 C 
ENDBRANCH   9  10
ENDBRANCH   6   9
ENDBRANCH   4   5
BRANCH   4  15
HETATM   15  C   UNL     1      41.863 -11.383  -0.938  1.00  0.00     0.014 A 
HETATM   16  S   UNL     1      41.373 -10.016  -0.006  1.00  0.00    -0.104 SA
HETATM   17  C   UNL     1      42.807  -9.161  -0.352  1.00  0.00     0.050 A 
HETATM   18  C   UNL     1      43.672  -9.897  -1.125  1.00  0.00     0.008 A 
HETATM   19  C   UNL     1      43.133 -11.173  -1.456  1.00  0.00     0.017 A 
ENDBRANCH   4  15
ENDBRANCH   2   4
BRANCH   2  20
HETATM   20  C   UNL     1      42.175 -13.213   1.080  1.00  0.00     0.173 C 
BRANCH  20  21
HETATM   21  C   UNL     1      41.459 -13.017   2.390  1.00  0.00     0.000 A 
HETATM   22  S   UNL     1      42.282 -13.445   3.839  1.00  0.00    -0.105 SA
HETATM   23  C   UNL     1      40.958 -12.985   4.815  1.00  0.00     0.050 A 
HETATM   24  C   UNL     1      39.909 -12.505   4.067  1.00  0.00     0.008 A 
HETATM   25  C   UNL     1      40.202 -12.515   2.672  1.00  0.00     0.017 A 
ENDBRANCH  20  21
ENDBRANCH   2  20
BRANCH   1  26
HETATM   26  C   UNL     1      41.248 -15.976   0.770  1.00  0.00     0.101 A 
HETATM   27  N   UNL     1      42.298 -16.821   1.053  1.00  0.00    -0.351 N 
HETATM   28  C   UNL     1      42.032 -17.592   2.165  1.00  0.00     0.043 A 
HETATM   29  H   UNL     1      43.166 -16.845   0.536  1.00  0.00     0.166 HD
HETATM   30  C   UNL     1      40.789 -17.192   2.624  1.00  0.00     0.033 A 
HETATM   31  C   UNL     1      40.310 -16.174   1.768  1.00  0.00     0.037 A 
BRANCH  28  32
HETATM   32  C   UNL     1      42.972 -18.581   2.704  1.00  0.00    -0.009 A 
HETATM   33  C   UNL     1      43.492 -18.431   3.998  1.00  0.00     0.013 A 
HETATM   34  C   UNL     1      44.385 -19.368   4.526  1.00  0.00     0.001 A 
HETATM   35  C   UNL     1      44.769 -20.470   3.766  1.00  0.00     0.000 A 
HETATM   36  C   UNL     1      44.260 -20.635   2.480  1.00  0.00     0.001 A 
HETATM   37  C   UNL     1      43.367 -19.697   1.953  1.00  0.00     0.013 A 
ENDBRANCH  28  32
ENDBRANCH   1  26
TORSDOF 9
ENDMDL
