MODEL 1
REMARK VINA RESULT:      -8.3      0.000      0.000
REMARK  6 active torsions:
REMARK  status: ('A' for Active; 'I' for Inactive)
REMARK    1  A    between atoms: C_2  and  O_3 
REMARK    2  A    between atoms: O_3  and  C_4 
REMARK    3  A    between atoms: C_7  and  C_8 
REMARK    4  A    between atoms: C_8  and  N_9 
REMARK       I    between atoms: N_9  and  C_10 
REMARK    5  A    between atoms: C_10  and  C_11 
REMARK    6  A    between atoms: C_15  and  C_16 
ROOT
HETATM    1  N   UNL     1      41.870 -15.043  -0.482  1.00  0.00    -0.347 N 
HETATM    2  C   UNL     1      41.454 -15.333   0.799  1.00  0.00     0.272 C 
HETATM    3  O   UNL     1      40.462 -14.829   1.321  1.00  0.00    -0.266 OA
HETATM    4  H   UNL     1      42.751 -15.463  -0.761  1.00  0.00     0.163 HD
ENDROOT
BRANCH   2   5
HETATM    5  C   UNL     1      42.328 -16.273   1.513  1.00  0.00     0.146 A 
HETATM    6  N   UNL     1      43.189 -15.886   2.473  1.00  0.00    -0.169 NA
HETATM    7  N   UNL     1      43.736 -17.040   2.898  1.00  0.00    -0.277 N 
HETATM    8  H   UNL     1      44.408 -16.994   3.654  1.00  0.00     0.189 HD
HETATM    9  C   UNL     1      43.284 -18.165   2.252  1.00  0.00     0.063 A 
HETATM   10  C   UNL     1      42.366 -17.679   1.339  1.00  0.00     0.071 A 
BRANCH   9  11
HETATM   11  C   UNL     1      43.716 -19.535   2.555  1.00  0.00    -0.008 A 
HETATM   12  C   UNL     1      44.379 -19.812   3.763  1.00  0.00     0.014 A 
HETATM   13  C   UNL     1      44.804 -21.107   4.074  1.00  0.00     0.001 A 
HETATM   14  C   UNL     1      44.574 -22.148   3.182  1.00  0.00     0.000 A 
HETATM   15  C   UNL     1      43.917 -21.896   1.982  1.00  0.00     0.001 A 
HETATM   16  C   UNL     1      43.489 -20.599   1.671  1.00  0.00     0.014 A 
ENDBRANCH   9  11
ENDBRANCH   2   5
BRANCH   1  17
HETATM   17  C   UNL     1      41.317 -13.931  -1.222  1.00  0.00     0.114 C 
HETATM   18  C   UNL     1      42.416 -13.203  -2.003  1.00  0.00     0.037 C 
BRANCH  17  19
HETATM   19  C   UNL     1      40.176 -14.372  -2.117  1.00  0.00    -0.036 A 
HETATM   20  C   UNL     1      38.942 -13.708  -2.038  1.00  0.00     0.012 A 
HETATM   21  C   UNL     1      37.897 -14.039  -2.902  1.00  0.00     0.037 A 
HETATM   22  C   UNL     1      38.065 -15.032  -3.865  1.00  0.00     0.068 A 
HETATM   23  C   UNL     1      39.264 -15.742  -3.917  1.00  0.00     0.037 A 
HETATM   24  C   UNL     1      40.313 -15.413  -3.048  1.00  0.00     0.012 A 
BRANCH  22  25
HETATM   25  O   UNL     1      36.990 -15.236  -4.686  1.00  0.00    -0.352 OA
BRANCH  25  26
HETATM   26  C   UNL     1      35.941 -14.273  -4.580  1.00  0.00     0.171 C 
HETATM   27  C   UNL     1      35.567 -13.834  -5.985  1.00  0.00     0.034 C 
ENDBRANCH  25  26
ENDBRANCH  22  25
ENDBRANCH  17  19
ENDBRANCH   1  17
TORSDOF 6
ENDMDL
MODEL 2
REMARK VINA RESULT:      -7.9      8.588     10.727
REMARK  6 active torsions:
REMARK  status: ('A' for Active; 'I' for Inactive)
REMARK    1  A    between atoms: C_2  and  O_3 
REMARK    2  A    between atoms: O_3  and  C_4 
REMARK    3  A    between atoms: C_7  and  C_8 
REMARK    4  A    between atoms: C_8  and  N_9 
REMARK       I    between atoms: N_9  and  C_10 
REMARK    5  A    between atoms: C_10  and  C_11 
REMARK    6  A    between atoms: C_15  and  C_16 
ROOT
HETATM    1  N   UNL     1      44.106 -13.703   7.673  1.00  0.00    -0.347 N 
HETATM    2  C   UNL     1      45.195 -12.914   7.976  1.00  0.00     0.272 C 
HETATM    3  O   UNL     1      46.265 -12.975   7.376  1.00  0.00    -0.266 OA
HETATM    4  H   UNL     1      43.312 -13.611   8.300  1.00  0.00     0.163 HD
ENDROOT
BRANCH   2   5
HETATM    5  C   UNL     1      44.980 -12.012   9.115  1.00  0.00     0.146 A 
HETATM    6  N   UNL     1      45.696 -10.887   9.301  1.00  0.00    -0.169 NA
HETATM    7  N   UNL     1      45.150 -10.338  10.402  1.00  0.00    -0.277 N 
HETATM    8  H   UNL     1      45.520  -9.449  10.719  1.00  0.00     0.189 HD
HETATM    9  C   UNL     1      44.118 -11.056  10.955  1.00  0.00     0.063 A 
HETATM   10  C   UNL     1      43.998 -12.157  10.127  1.00  0.00     0.071 A 
BRANCH   9  11
HETATM   11  C   UNL     1      43.354 -10.648  12.139  1.00  0.00    -0.008 A 
HETATM   12  C   UNL     1      42.143 -11.289  12.450  1.00  0.00     0.014 A 
HETATM   13  C   UNL     1      41.394 -10.915  13.570  1.00  0.00     0.001 A 
HETATM   14  C   UNL     1      41.843  -9.894  14.400  1.00  0.00     0.000 A 
HETATM   15  C   UNL     1      43.042  -9.249  14.111  1.00  0.00     0.001 A 
HETATM   16  C   UNL     1      43.794  -9.624  12.990  1.00  0.00     0.014 A 
ENDBRANCH   9  11
ENDBRANCH   2   5
BRANCH   1  17
HETATM   17  C   UNL     1      44.223 -14.844   6.793  1.00  0.00     0.114 C 
HETATM   18  C   UNL     1      43.845 -16.134   7.530  1.00  0.00     0.037 C 
BRANCH  17  19
HETATM   19  C   UNL     1      43.413 -14.652   5.526  1.00  0.00    -0.036 A 
HETATM   20  C   UNL     1      42.115 -15.180   5.451  1.00  0.00     0.012 A 
HETATM   21  C   UNL     1      41.316 -14.954   4.329  1.00  0.00     0.037 A 
HETATM   22  C   UNL     1      41.793 -14.192   3.265  1.00  0.00     0.068 A 
HETATM   23  C   UNL     1      43.101 -13.710   3.298  1.00  0.00     0.037 A 
HETATM   24  C   UNL     1      43.906 -13.940   4.421  1.00  0.00     0.012 A 
BRANCH  22  25
HETATM   25  O   UNL     1      40.905 -13.997   2.243  1.00  0.00    -0.352 OA
BRANCH  25  26
HETATM   26  C   UNL     1      40.435 -15.182   1.599  1.00  0.00     0.171 C 
HETATM   27  C   UNL     1      41.411 -15.526   0.487  1.00  0.00     0.034 C 
ENDBRANCH  25  26
ENDBRANCH  22  25
ENDBRANCH  17  19
ENDBRANCH   1  17
TORSDOF 6
ENDMDL
MODEL 3
REMARK VINA RESULT:      -7.5      7.228     10.267
REMARK  6 active torsions:
REMARK  status: ('A' for Active; 'I' for Inactive)
REMARK    1  A    between atoms: C_2  and  O_3 
REMARK    2  A    between atoms: O_3  and  C_4 
REMARK    3  A    between atoms: C_7  and  C_8 
REMARK    4  A    between atoms: C_8  and  N_9 
REMARK       I    between atoms: N_9  and  C_10 
REMARK    5  A    between atoms: C_10  and  C_11 
REMARK    6  A    between atoms: C_15  and  C_16 
ROOT
HETATM    1  N   UNL     1      44.736 -13.965   7.033  1.00  0.00    -0.347 N 
HETATM    2  C   UNL     1      44.201 -15.206   7.305  1.00  0.00     0.272 C 
HETATM    3  O   UNL     1      44.043 -15.642   8.442  1.00  0.00    -0.266 OA
HETATM    4  H   UNL     1      44.889 -13.762   6.050  1.00  0.00     0.163 HD
ENDROOT
BRANCH   2   5
HETATM    5  C   UNL     1      43.869 -15.989   6.108  1.00  0.00     0.146 A 
HETATM    6  N   UNL     1      43.189 -15.476   5.064  1.00  0.00    -0.169 NA
HETATM    7  N   UNL     1      43.155 -16.488   4.176  1.00  0.00    -0.277 N 
HETATM    8  H   UNL     1      42.708 -16.317   3.284  1.00  0.00     0.189 HD
HETATM    9  C   UNL     1      43.768 -17.644   4.593  1.00  0.00     0.063 A 
HETATM   10  C   UNL     1      44.236 -17.335   5.857  1.00  0.00     0.071 A 
BRANCH   9  11
HETATM   11  C   UNL     1      43.879 -18.868   3.792  1.00  0.00    -0.008 A 
HETATM   12  C   UNL     1      44.569 -19.982   4.301  1.00  0.00     0.014 A 
HETATM   13  C   UNL     1      44.693 -21.158   3.556  1.00  0.00     0.001 A 
HETATM   14  C   UNL     1      44.128 -21.243   2.288  1.00  0.00     0.000 A 
HETATM   15  C   UNL     1      43.438 -20.153   1.767  1.00  0.00     0.001 A 
HETATM   16  C   UNL     1      43.312 -18.974   2.514  1.00  0.00     0.014 A 
ENDBRANCH   9  11
ENDBRANCH   2   5
BRANCH   1  17
HETATM   17  C   UNL     1      45.390 -13.184   8.059  1.00  0.00     0.114 C 
HETATM   18  C   UNL     1      46.647 -12.508   7.502  1.00  0.00     0.037 C 
BRANCH  17  19
HETATM   19  C   UNL     1      44.437 -12.188   8.690  1.00  0.00    -0.036 A 
HETATM   20  C   UNL     1      44.725 -11.672   9.962  1.00  0.00     0.012 A 
HETATM   21  C   UNL     1      43.909 -10.696  10.538  1.00  0.00     0.037 A 
HETATM   22  C   UNL     1      42.797 -10.213   9.853  1.00  0.00     0.068 A 
HETATM   23  C   UNL     1      42.463 -10.758   8.614  1.00  0.00     0.037 A 
HETATM   24  C   UNL     1      43.279 -11.741   8.037  1.00  0.00     0.012 A 
BRANCH  22  25
HETATM   25  O   UNL     1      42.101  -9.224  10.494  1.00  0.00    -0.352 OA
BRANCH  25  26
HETATM   26  C   UNL     1      42.093  -9.301  11.920  1.00  0.00     0.171 C 
HETATM   27  C   UNL     1      42.349  -7.906  12.463  1.00  0.00     0.034 C 
ENDBRANCH  25  26
ENDBRANCH  22  25
ENDBRANCH  17  19
ENDBRANCH   1  17
TORSDOF 6
ENDMDL
MODEL 4
REMARK VINA RESULT:      -7.5      2.716      9.092
REMARK  6 active torsions:
REMARK  status: ('A' for Active; 'I' for Inactive)
REMARK    1  A    between atoms: C_2  and  O_3 
REMARK    2  A    between atoms: O_3  and  C_4 
REMARK    3  A    between atoms: C_7  and  C_8 
REMARK    4  A    between atoms: C_8  and  N_9 
REMARK       I    between atoms: N_9  and  C_10 
REMARK    5  A    between atoms: C_10  and  C_11 
REMARK    6  A    between atoms: C_15  and  C_16 
ROOT
HETATM    1  N   UNL     1      41.938 -15.180   3.095  1.00  0.00    -0.347 N 
HETATM    2  C   UNL     1      42.458 -14.124   2.378  1.00  0.00     0.272 C 
HETATM    3  O   UNL     1      43.393 -13.432   2.772  1.00  0.00    -0.266 OA
HETATM    4  H   UNL     1      41.113 -15.616   2.695  1.00  0.00     0.163 HD
ENDROOT
BRANCH   2   5
HETATM    5  C   UNL     1      41.768 -13.867   1.108  1.00  0.00     0.146 A 
HETATM    6  N   UNL     1      41.843 -12.689   0.460  1.00  0.00    -0.169 NA
HETATM    7  N   UNL     1      41.131 -12.895  -0.664  1.00  0.00    -0.277 N 
HETATM    8  H   UNL     1      41.073 -12.136  -1.331  1.00  0.00     0.189 HD
HETATM    9  C   UNL     1      40.582 -14.149  -0.778  1.00  0.00     0.063 A 
HETATM   10  C   UNL     1      40.985 -14.795   0.376  1.00  0.00     0.071 A 
BRANCH   9  11
HETATM   11  C   UNL     1      39.788 -14.614  -1.921  1.00  0.00    -0.008 A 
HETATM   12  C   UNL     1      38.495 -14.105  -2.133  1.00  0.00     0.014 A 
HETATM   13  C   UNL     1      37.716 -14.535  -3.211  1.00  0.00     0.001 A 
HETATM   14  C   UNL     1      38.216 -15.483  -4.098  1.00  0.00     0.000 A 
HETATM   15  C   UNL     1      39.495 -15.997  -3.907  1.00  0.00     0.001 A 
HETATM   16  C   UNL     1      40.277 -15.565  -2.828  1.00  0.00     0.014 A 
ENDBRANCH   9  11
ENDBRANCH   2   5
BRANCH   1  17
HETATM   17  C   UNL     1      42.285 -15.394   4.482  1.00  0.00     0.114 C 
HETATM   18  C   UNL     1      41.037 -15.315   5.369  1.00  0.00     0.037 C 
BRANCH  17  19
HETATM   19  C   UNL     1      43.039 -16.695   4.671  1.00  0.00    -0.036 A 
HETATM   20  C   UNL     1      43.013 -17.660   3.653  1.00  0.00     0.012 A 
HETATM   21  C   UNL     1      43.759 -18.835   3.763  1.00  0.00     0.037 A 
HETATM   22  C   UNL     1      44.550 -19.066   4.886  1.00  0.00     0.068 A 
HETATM   23  C   UNL     1      44.540 -18.145   5.933  1.00  0.00     0.037 A 
HETATM   24  C   UNL     1      43.789 -16.967   5.826  1.00  0.00     0.012 A 
BRANCH  22  25
HETATM   25  O   UNL     1      45.273 -20.227   4.862  1.00  0.00    -0.352 OA
BRANCH  25  26
HETATM   26  C   UNL     1      44.772 -21.247   3.998  1.00  0.00     0.171 C 
HETATM   27  C   UNL     1      44.784 -22.557   4.768  1.00  0.00     0.034 C 
ENDBRANCH  25  26
ENDBRANCH  22  25
ENDBRANCH  17  19
ENDBRANCH   1  17
TORSDOF 6
ENDMDL
MODEL 5
REMARK VINA RESULT:      -7.4      6.935      9.858
REMARK  6 active torsions:
REMARK  status: ('A' for Active; 'I' for Inactive)
REMARK    1  A    between atoms: C_2  and  O_3 
REMARK    2  A    between atoms: O_3  and  C_4 
REMARK    3  A    between atoms: C_7  and  C_8 
REMARK    4  A    between atoms: C_8  and  N_9 
REMARK       I    between atoms: N_9  and  C_10 
REMARK    5  A    between atoms: C_10  and  C_11 
REMARK    6  A    between atoms: C_15  and  C_16 
ROOT
HETATM    1  N   UNL     1      41.272 -13.240   6.202  1.00  0.00    -0.347 N 
HETATM    2  C   UNL     1      42.126 -13.683   5.215  1.00  0.00     0.272 C 
HETATM    3  O   UNL     1      42.757 -12.932   4.476  1.00  0.00    -0.266 OA
HETATM    4  H   UNL     1      40.750 -13.965   6.685  1.00  0.00     0.163 HD
ENDROOT
BRANCH   2   5
HETATM    5  C   UNL     1      42.191 -15.145   5.093  1.00  0.00     0.146 A 
HETATM    6  N   UNL     1      41.327 -15.970   5.715  1.00  0.00    -0.169 NA
HETATM    7  N   UNL     1      41.694 -17.195   5.295  1.00  0.00    -0.277 N 
HETATM    8  H   UNL     1      41.153 -17.987   5.621  1.00  0.00     0.189 HD
HETATM    9  C   UNL     1      42.767 -17.214   4.438  1.00  0.00     0.063 A 
HETATM   10  C   UNL     1      43.107 -15.881   4.300  1.00  0.00     0.071 A 
BRANCH   9  11
HETATM   11  C   UNL     1      43.332 -18.425   3.832  1.00  0.00    -0.008 A 
HETATM   12  C   UNL     1      42.944 -18.811   2.538  1.00  0.00     0.014 A 
HETATM   13  C   UNL     1      43.464 -19.963   1.940  1.00  0.00     0.001 A 
HETATM   14  C   UNL     1      44.381 -20.750   2.626  1.00  0.00     0.000 A 
HETATM   15  C   UNL     1      44.781 -20.385   3.907  1.00  0.00     0.001 A 
HETATM   16  C   UNL     1      44.262 -19.230   4.506  1.00  0.00     0.014 A 
ENDBRANCH   9  11
ENDBRANCH   2   5
BRANCH   1  17
HETATM   17  C   UNL     1      40.854 -11.858   6.274  1.00  0.00     0.114 C 
HETATM   18  C   UNL     1      39.379 -11.719   5.883  1.00  0.00     0.037 C 
BRANCH  17  19
HETATM   19  C   UNL     1      41.143 -11.262   7.637  1.00  0.00    -0.036 A 
HETATM   20  C   UNL     1      40.080 -11.010   8.518  1.00  0.00     0.012 A 
HETATM   21  C   UNL     1      40.319 -10.534   9.808  1.00  0.00     0.037 A 
HETATM   22  C   UNL     1      41.621 -10.308  10.246  1.00  0.00     0.068 A 
HETATM   23  C   UNL     1      42.685 -10.495   9.365  1.00  0.00     0.037 A 
HETATM   24  C   UNL     1      42.447 -10.969   8.067  1.00  0.00     0.012 A 
BRANCH  22  25
HETATM   25  O   UNL     1      41.736  -9.888  11.544  1.00  0.00    -0.352 OA
BRANCH  25  26
HETATM   26  C   UNL     1      42.728 -10.557  12.323  1.00  0.00     0.171 C 
HETATM   27  C   UNL     1      43.274  -9.564  13.334  1.00  0.00     0.034 C 
ENDBRANCH  25  26
ENDBRANCH  22  25
ENDBRANCH  17  19
ENDBRANCH   1  17
TORSDOF 6
ENDMDL
MODEL 6
REMARK VINA RESULT:      -7.4      1.675      2.508
REMARK  6 active torsions:
REMARK  status: ('A' for Active; 'I' for Inactive)
REMARK    1  A    between atoms: C_2  and  O_3 
REMARK    2  A    between atoms: O_3  and  C_4 
REMARK    3  A    between atoms: C_7  and  C_8 
REMARK    4  A    between atoms: C_8  and  N_9 
REMARK       I    between atoms: N_9  and  C_10 
REMARK    5  A    between atoms: C_10  and  C_11 
REMARK    6  A    between atoms: C_15  and  C_16 
ROOT
HETATM    1  N   UNL     1      41.721 -15.047   2.069  1.00  0.00    -0.347 N 
HETATM    2  C   UNL     1      41.500 -15.569   3.326  1.00  0.00     0.272 C 
HETATM    3  O   UNL     1      40.620 -15.166   4.082  1.00  0.00    -0.266 OA
HETATM    4  H   UNL     1      42.533 -15.412   1.581  1.00  0.00     0.163 HD
ENDROOT
BRANCH   2   5
HETATM    5  C   UNL     1      42.441 -16.630   3.705  1.00  0.00     0.146 A 
HETATM    6  N   UNL     1      43.350 -16.484   4.688  1.00  0.00    -0.169 NA
HETATM    7  N   UNL     1      43.952 -17.687   4.749  1.00  0.00    -0.277 N 
HETATM    8  H   UNL     1      44.669 -17.821   5.452  1.00  0.00     0.189 HD
HETATM    9  C   UNL     1      43.492 -18.610   3.842  1.00  0.00     0.063 A 
HETATM   10  C   UNL     1      42.506 -17.932   3.149  1.00  0.00     0.071 A 
BRANCH   9  11
HETATM   11  C   UNL     1      43.977 -19.991   3.734  1.00  0.00    -0.008 A 
HETATM   12  C   UNL     1      43.906 -20.666   2.504  1.00  0.00     0.014 A 
HETATM   13  C   UNL     1      44.357 -21.983   2.375  1.00  0.00     0.001 A 
HETATM   14  C   UNL     1      44.886 -22.649   3.475  1.00  0.00     0.000 A 
HETATM   15  C   UNL     1      44.967 -21.997   4.702  1.00  0.00     0.001 A 
HETATM   16  C   UNL     1      44.517 -20.677   4.831  1.00  0.00     0.014 A 
ENDBRANCH   9  11
ENDBRANCH   2   5
BRANCH   1  17
HETATM   17  C   UNL     1      41.099 -13.813   1.645  1.00  0.00     0.114 C 
HETATM   18  C   UNL     1      42.081 -12.643   1.770  1.00  0.00     0.037 C 
BRANCH  17  19
HETATM   19  C   UNL     1      40.528 -13.932   0.245  1.00  0.00    -0.036 A 
HETATM   20  C   UNL     1      39.136 -13.926   0.067  1.00  0.00     0.012 A 
HETATM   21  C   UNL     1      38.580 -13.957  -1.214  1.00  0.00     0.037 A 
HETATM   22  C   UNL     1      39.402 -13.986  -2.338  1.00  0.00     0.068 A 
HETATM   23  C   UNL     1      40.785 -14.053  -2.177  1.00  0.00     0.037 A 
HETATM   24  C   UNL     1      41.344 -14.027  -0.892  1.00  0.00     0.012 A 
BRANCH  22  25
HETATM   25  O   UNL     1      38.747 -13.965  -3.540  1.00  0.00    -0.352 OA
BRANCH  25  26
HETATM   26  C   UNL     1      37.946 -15.112  -3.826  1.00  0.00     0.171 C 
HETATM   27  C   UNL     1      38.866 -16.208  -4.335  1.00  0.00     0.034 C 
ENDBRANCH  25  26
ENDBRANCH  22  25
ENDBRANCH  17  19
ENDBRANCH   1  17
TORSDOF 6
ENDMDL
MODEL 7
REMARK VINA RESULT:      -7.4      5.031      7.449
REMARK  6 active torsions:
REMARK  status: ('A' for Active; 'I' for Inactive)
REMARK    1  A    between atoms: C_2  and  O_3 
REMARK    2  A    between atoms: O_3  and  C_4 
REMARK    3  A    between atoms: C_7  and  C_8 
REMARK    4  A    between atoms: C_8  and  N_9 
REMARK       I    between atoms: N_9  and  C_10 
REMARK    5  A    between atoms: C_10  and  C_11 
REMARK    6  A    between atoms: C_15  and  C_16 
ROOT
HETATM    1  N   UNL     1      41.915 -14.002   3.442  1.00  0.00    -0.347 N 
HETATM    2  C   UNL     1      43.161 -14.520   3.163  1.00  0.00     0.272 C 
HETATM    3  O   UNL     1      44.201 -13.873   3.258  1.00  0.00    -0.266 OA
HETATM    4  H   UNL     1      41.132 -14.617   3.242  1.00  0.00     0.163 HD
ENDROOT
BRANCH   2   5
HETATM    5  C   UNL     1      43.139 -15.912   2.697  1.00  0.00     0.146 A 
HETATM    6  N   UNL     1      42.662 -16.272   1.491  1.00  0.00    -0.169 NA
HETATM    7  N   UNL     1      42.880 -17.600   1.443  1.00  0.00    -0.277 N 
HETATM    8  H   UNL     1      42.620 -18.091   0.596  1.00  0.00     0.189 HD
HETATM    9  C   UNL     1      43.464 -18.130   2.567  1.00  0.00     0.063 A 
HETATM   10  C   UNL     1      43.636 -17.039   3.399  1.00  0.00     0.071 A 
BRANCH   9  11
HETATM   11  C   UNL     1      43.819 -19.544   2.739  1.00  0.00    -0.008 A 
HETATM   12  C   UNL     1      44.413 -19.980   3.935  1.00  0.00     0.014 A 
HETATM   13  C   UNL     1      44.765 -21.320   4.122  1.00  0.00     0.001 A 
HETATM   14  C   UNL     1      44.529 -22.249   3.114  1.00  0.00     0.000 A 
HETATM   15  C   UNL     1      43.940 -21.838   1.923  1.00  0.00     0.001 A 
HETATM   16  C   UNL     1      43.585 -20.496   1.736  1.00  0.00     0.014 A 
ENDBRANCH   9  11
ENDBRANCH   2   5
BRANCH   1  17
HETATM   17  C   UNL     1      41.710 -12.582   3.623  1.00  0.00     0.114 C 
HETATM   18  C   UNL     1      40.993 -11.983   2.409  1.00  0.00     0.037 C 
BRANCH  17  19
HETATM   19  C   UNL     1      40.983 -12.287   4.920  1.00  0.00    -0.036 A 
HETATM   20  C   UNL     1      41.370 -11.179   5.689  1.00  0.00     0.012 A 
HETATM   21  C   UNL     1      40.671 -10.835   6.848  1.00  0.00     0.037 A 
HETATM   22  C   UNL     1      39.570 -11.584   7.255  1.00  0.00     0.068 A 
HETATM   23  C   UNL     1      39.209 -12.722   6.535  1.00  0.00     0.037 A 
HETATM   24  C   UNL     1      39.912 -13.071   5.375  1.00  0.00     0.012 A 
BRANCH  22  25
HETATM   25  O   UNL     1      38.935 -11.125   8.377  1.00  0.00    -0.352 OA
BRANCH  25  26
HETATM   26  C   UNL     1      39.789 -10.726   9.450  1.00  0.00     0.171 C 
HETATM   27  C   UNL     1      39.064  -9.658  10.250  1.00  0.00     0.034 C 
ENDBRANCH  25  26
ENDBRANCH  22  25
ENDBRANCH  17  19
ENDBRANCH   1  17
TORSDOF 6
ENDMDL
MODEL 8
REMARK VINA RESULT:      -7.4      2.129      2.903
REMARK  6 active torsions:
REMARK  status: ('A' for Active; 'I' for Inactive)
REMARK    1  A    between atoms: C_2  and  O_3 
REMARK    2  A    between atoms: O_3  and  C_4 
REMARK    3  A    between atoms: C_7  and  C_8 
REMARK    4  A    between atoms: C_8  and  N_9 
REMARK       I    between atoms: N_9  and  C_10 
REMARK    5  A    between atoms: C_10  and  C_11 
REMARK    6  A    between atoms: C_15  and  C_16 
ROOT
HETATM    1  N   UNL     1      40.887 -15.675  -0.576  1.00  0.00    -0.347 N 
HETATM    2  C   UNL     1      41.737 -15.303   0.443  1.00  0.00     0.272 C 
HETATM    3  O   UNL     1      42.240 -14.186   0.534  1.00  0.00    -0.266 OA
HETATM    4  H   UNL     1      40.609 -16.651  -0.579  1.00  0.00     0.163 HD
ENDROOT
BRANCH   2   5
HETATM    5  C   UNL     1      42.027 -16.378   1.401  1.00  0.00     0.146 A 
HETATM    6  N   UNL     1      41.426 -16.469   2.603  1.00  0.00    -0.169 NA
HETATM    7  N   UNL     1      41.922 -17.606   3.124  1.00  0.00    -0.277 N 
HETATM    8  H   UNL     1      41.582 -17.896   4.034  1.00  0.00     0.189 HD
HETATM    9  C   UNL     1      42.831 -18.259   2.328  1.00  0.00     0.063 A 
HETATM   10  C   UNL     1      42.914 -17.465   1.199  1.00  0.00     0.071 A 
BRANCH   9  11
HETATM   11  C   UNL     1      43.487 -19.526   2.671  1.00  0.00    -0.008 A 
HETATM   12  C   UNL     1      43.417 -20.616   1.788  1.00  0.00     0.014 A 
HETATM   13  C   UNL     1      44.029 -21.835   2.094  1.00  0.00     0.001 A 
HETATM   14  C   UNL     1      44.723 -21.986   3.290  1.00  0.00     0.000 A 
HETATM   15  C   UNL     1      44.807 -20.917   4.177  1.00  0.00     0.001 A 
HETATM   16  C   UNL     1      44.195 -19.695   3.870  1.00  0.00     0.014 A 
ENDBRANCH   9  11
ENDBRANCH   2   5
BRANCH   1  17
HETATM   17  C   UNL     1      40.725 -14.858  -1.758  1.00  0.00     0.114 C 
HETATM   18  C   UNL     1      40.703 -15.731  -3.017  1.00  0.00     0.037 C 
BRANCH  17  19
HETATM   19  C   UNL     1      39.499 -13.972  -1.656  1.00  0.00    -0.036 A 
HETATM   20  C   UNL     1      38.870 -13.807  -0.412  1.00  0.00     0.012 A 
HETATM   21  C   UNL     1      37.787 -12.938  -0.269  1.00  0.00     0.037 A 
HETATM   22  C   UNL     1      37.317 -12.212  -1.360  1.00  0.00     0.068 A 
HETATM   23  C   UNL     1      37.891 -12.409  -2.615  1.00  0.00     0.037 A 
HETATM   24  C   UNL     1      38.976 -13.284  -2.762  1.00  0.00     0.012 A 
BRANCH  22  25
HETATM   25  O   UNL     1      36.283 -11.357  -1.091  1.00  0.00    -0.352 OA
BRANCH  25  26
HETATM   26  C   UNL     1      36.082 -11.048   0.289  1.00  0.00     0.171 C 
HETATM   27  C   UNL     1      34.586 -10.949   0.531  1.00  0.00     0.034 C 
ENDBRANCH  25  26
ENDBRANCH  22  25
ENDBRANCH  17  19
ENDBRANCH   1  17
TORSDOF 6
ENDMDL
MODEL 9
REMARK VINA RESULT:      -7.3      6.740      9.405
REMARK  6 active torsions:
REMARK  status: ('A' for Active; 'I' for Inactive)
REMARK    1  A    between atoms: C_2  and  O_3 
REMARK    2  A    between atoms: O_3  and  C_4 
REMARK    3  A    between atoms: C_7  and  C_8 
REMARK    4  A    between atoms: C_8  and  N_9 
REMARK       I    between atoms: N_9  and  C_10 
REMARK    5  A    between atoms: C_10  and  C_11 
REMARK    6  A    between atoms: C_15  and  C_16 
ROOT
HETATM    1  N   UNL     1      41.655 -13.220   6.047  1.00  0.00    -0.347 N 
HETATM    2  C   UNL     1      42.520 -13.664   5.069  1.00  0.00     0.272 C 
HETATM    3  O   UNL     1      43.015 -12.930   4.217  1.00  0.00    -0.266 OA
HETATM    4  H   UNL     1      41.253 -13.943   6.635  1.00  0.00     0.163 HD
ENDROOT
BRANCH   2   5
HETATM    5  C   UNL     1      42.772 -15.110   5.107  1.00  0.00     0.146 A 
HETATM    6  N   UNL     1      42.573 -15.859   6.208  1.00  0.00    -0.169 NA
HETATM    7  N   UNL     1      42.860 -17.110   5.801  1.00  0.00    -0.277 N 
HETATM    8  H   UNL     1      42.750 -17.861   6.472  1.00  0.00     0.189 HD
HETATM    9  C   UNL     1      43.251 -17.215   4.489  1.00  0.00     0.063 A 
HETATM   10  C   UNL     1      43.203 -15.915   4.022  1.00  0.00     0.071 A 
BRANCH   9  11
HETATM   11  C   UNL     1      43.590 -18.474   3.815  1.00  0.00    -0.008 A 
HETATM   12  C   UNL     1      44.422 -19.410   4.452  1.00  0.00     0.014 A 
HETATM   13  C   UNL     1      44.765 -20.614   3.830  1.00  0.00     0.001 A 
HETATM   14  C   UNL     1      44.281 -20.904   2.559  1.00  0.00     0.000 A 
HETATM   15  C   UNL     1      43.454 -19.991   1.912  1.00  0.00     0.001 A 
HETATM   16  C   UNL     1      43.109 -18.785   2.535  1.00  0.00     0.014 A 
ENDBRANCH   9  11
ENDBRANCH   2   5
BRANCH   1  17
HETATM   17  C   UNL     1      41.062 -11.903   5.988  1.00  0.00     0.114 C 
HETATM   18  C   UNL     1      39.779 -11.926   5.150  1.00  0.00     0.037 C 
BRANCH  17  19
HETATM   19  C   UNL     1      40.829 -11.337   7.375  1.00  0.00    -0.036 A 
HETATM   20  C   UNL     1      41.893 -10.732   8.060  1.00  0.00     0.012 A 
HETATM   21  C   UNL     1      41.693 -10.134   9.305  1.00  0.00     0.037 A 
HETATM   22  C   UNL     1      40.427 -10.121   9.886  1.00  0.00     0.068 A 
HETATM   23  C   UNL     1      39.372 -10.770   9.247  1.00  0.00     0.037 A 
HETATM   24  C   UNL     1      39.572 -11.375   7.999  1.00  0.00     0.012 A 
BRANCH  22  25
HETATM   25  O   UNL     1      40.341  -9.465  11.084  1.00  0.00    -0.352 OA
BRANCH  25  26
HETATM   26  C   UNL     1      39.650 -10.161  12.121  1.00  0.00     0.171 C 
HETATM   27  C   UNL     1      40.620 -11.148  12.746  1.00  0.00     0.034 C 
ENDBRANCH  25  26
ENDBRANCH  22  25
ENDBRANCH  17  19
ENDBRANCH   1  17
TORSDOF 6
ENDMDL
MODEL 10
REMARK VINA RESULT:      -7.3      3.164      3.817
REMARK  6 active torsions:
REMARK  status: ('A' for Active; 'I' for Inactive)
REMARK    1  A    between atoms: C_2  and  O_3 
REMARK    2  A    between atoms: O_3  and  C_4 
REMARK    3  A    between atoms: C_7  and  C_8 
REMARK    4  A    between atoms: C_8  and  N_9 
REMARK       I    between atoms: N_9  and  C_10 
REMARK    5  A    between atoms: C_10  and  C_11 
REMARK    6  A    between atoms: C_15  and  C_16 
ROOT
HETATM    1  N   UNL     1      41.750 -14.498   1.506  1.00  0.00    -0.347 N 
HETATM    2  C   UNL     1      42.718 -14.413   2.484  1.00  0.00     0.272 C 
HETATM    3  O   UNL     1      43.240 -13.357   2.833  1.00  0.00    -0.266 OA
HETATM    4  H   UNL     1      41.464 -15.439   1.255  1.00  0.00     0.163 HD
ENDROOT
BRANCH   2   5
HETATM    5  C   UNL     1      43.106 -15.710   3.053  1.00  0.00     0.146 A 
HETATM    6  N   UNL     1      43.252 -15.913   4.377  1.00  0.00    -0.169 NA
HETATM    7  N   UNL     1      43.548 -17.223   4.468  1.00  0.00    -0.277 N 
HETATM    8  H   UNL     1      43.676 -17.614   5.394  1.00  0.00     0.189 HD
HETATM    9  C   UNL     1      43.617 -17.886   3.267  1.00  0.00     0.063 A 
HETATM   10  C   UNL     1      43.335 -16.908   2.331  1.00  0.00     0.071 A 
BRANCH   9  11
HETATM   11  C   UNL     1      43.900 -19.318   3.117  1.00  0.00    -0.008 A 
HETATM   12  C   UNL     1      43.496 -19.996   1.954  1.00  0.00     0.014 A 
HETATM   13  C   UNL     1      43.749 -21.361   1.788  1.00  0.00     0.001 A 
HETATM   14  C   UNL     1      44.410 -22.073   2.782  1.00  0.00     0.000 A 
HETATM   15  C   UNL     1      44.821 -21.420   3.941  1.00  0.00     0.001 A 
HETATM   16  C   UNL     1      44.569 -20.052   4.107  1.00  0.00     0.014 A 
ENDBRANCH   9  11
ENDBRANCH   2   5
BRANCH   1  17
HETATM   17  C   UNL     1      41.459 -13.381   0.634  1.00  0.00     0.114 C 
HETATM   18  C   UNL     1      41.656 -13.777  -0.833  1.00  0.00     0.037 C 
BRANCH  17  19
HETATM   19  C   UNL     1      40.075 -12.821   0.894  1.00  0.00    -0.036 A 
HETATM   20  C   UNL     1      39.943 -11.523   1.409  1.00  0.00     0.012 A 
HETATM   21  C   UNL     1      38.682 -10.950   1.587  1.00  0.00     0.037 A 
HETATM   22  C   UNL     1      37.532 -11.657   1.247  1.00  0.00     0.068 A 
HETATM   23  C   UNL     1      37.642 -12.970   0.791  1.00  0.00     0.037 A 
HETATM   24  C   UNL     1      38.907 -13.548   0.616  1.00  0.00     0.012 A 
BRANCH  22  25
HETATM   25  O   UNL     1      36.357 -10.978   1.419  1.00  0.00    -0.352 OA
BRANCH  25  26
HETATM   26  C   UNL     1      35.345 -11.239   0.446  1.00  0.00     0.171 C 
HETATM   27  C   UNL     1      34.043 -10.645   0.956  1.00  0.00     0.034 C 
ENDBRANCH  25  26
ENDBRANCH  22  25
ENDBRANCH  17  19
ENDBRANCH   1  17
TORSDOF 6
ENDMDL
