MODEL 1
REMARK VINA RESULT:      -9.3      0.000      0.000
REMARK  8 active torsions:
REMARK  status: ('A' for Active; 'I' for Inactive)
REMARK    1  A    between atoms: C_2  and  S_3 
REMARK    2  A    between atoms: C_2  and  C_24 
REMARK    3  A    between atoms: S_3  and  C_4 
REMARK    4  A    between atoms: N_5  and  C_6 
REMARK    5  A    between atoms: C_13  and  C_14 
REMARK    6  A    between atoms: C_14  and  N_15 
REMARK       I    between atoms: C_24  and  N_25 
REMARK    7  A    between atoms: N_25  and  C_26 
REMARK    8  A    between atoms: C_29  and  C_30 
REMARK       I    between atoms: C_30  and  N_31 
ROOT
HETATM    1  C   UNL     1      41.502 -14.177   1.832  1.00  0.00     0.197 A 
HETATM    2  N   UNL     1      41.100 -13.379   0.771  1.00  0.00    -0.274 N 
HETATM    3  C   UNL     1      39.837 -13.874   0.452  1.00  0.00     0.161 A 
HETATM    4  N   UNL     1      39.565 -14.919   1.210  1.00  0.00    -0.132 NA
HETATM    5  N   UNL     1      40.597 -15.097   2.077  1.00  0.00    -0.122 NA
ENDROOT
BRANCH   1   6
HETATM    6  S   UNL     1      42.890 -13.885   2.826  1.00  0.00    -0.076 SA
BRANCH   6   7
HETATM    7  C   UNL     1      42.299 -14.445   4.468  1.00  0.00     0.143 C 
HETATM    8  C   UNL     1      43.134 -13.820   5.584  1.00  0.00     0.031 C 
BRANCH   7   9
HETATM    9  C   UNL     1      42.365 -15.978   4.578  1.00  0.00     0.236 C 
HETATM   10  N   UNL     1      43.307 -16.518   3.705  1.00  0.00    -0.326 N 
HETATM   11  H   UNL     1      43.846 -15.867   3.147  1.00  0.00     0.169 HD
HETATM   12  O   UNL     1      41.644 -16.622   5.331  1.00  0.00    -0.272 OA
BRANCH  10  13
HETATM   13  C   UNL     1      43.608 -17.879   3.495  1.00  0.00     0.034 A 
HETATM   14  C   UNL     1      44.234 -18.700   4.435  1.00  0.00     0.030 A 
HETATM   15  C   UNL     1      44.492 -20.048   4.148  1.00  0.00     0.019 A 
HETATM   16  C   UNL     1      44.131 -20.588   2.911  1.00  0.00     0.032 A 
HETATM   17  C   UNL     1      43.492 -19.771   1.972  1.00  0.00     0.019 A 
HETATM   18  C   UNL     1      43.236 -18.427   2.261  1.00  0.00     0.030 A 
BRANCH  16  19
HETATM   19  C   UNL     1      44.373 -22.011   2.553  1.00  0.00     0.249 C 
HETATM   20  N   UNL     1      44.795 -22.855   3.541  1.00  0.00    -0.366 N 
HETATM   21  H   UNL     1      45.128 -22.539   4.439  1.00  0.00     0.159 HD
HETATM   22  H   UNL     1      45.039 -23.795   3.255  1.00  0.00     0.159 HD
HETATM   23  O   UNL     1      44.234 -22.412   1.404  1.00  0.00    -0.268 OA
ENDBRANCH  16  19
ENDBRANCH  10  13
ENDBRANCH   7   9
ENDBRANCH   6   7
ENDBRANCH   1   6
BRANCH   2  24
HETATM   24  C   UNL     1      41.810 -12.344   0.103  1.00  0.00     0.043 A 
HETATM   25  C   UNL     1      42.524 -12.631  -1.071  1.00  0.00     0.033 A 
HETATM   26  C   UNL     1      43.194 -11.610  -1.751  1.00  0.00     0.044 A 
HETATM   27  C   UNL     1      43.154 -10.313  -1.258  1.00  0.00     0.116 A 
HETATM   28  F   UNL     1      43.794  -9.337  -1.912  1.00  0.00    -0.206 F 
HETATM   29  C   UNL     1      42.460 -10.016  -0.092  1.00  0.00     0.044 A 
HETATM   30  C   UNL     1      41.786 -11.030   0.596  1.00  0.00     0.033 A 
ENDBRANCH   2  24
BRANCH   3  31
HETATM   31  C   UNL     1      38.972 -13.448  -0.682  1.00  0.00     0.315 C 
BRANCH  31  32
HETATM   32  N   UNL     1      38.851 -14.544  -1.740  1.00  0.00    -0.064 N 
HETATM   33  H   UNL     1      38.510 -15.367  -1.217  1.00  0.00     0.280 HD
HETATM   34  C   UNL     1      37.788 -14.240  -2.775  1.00  0.00     0.235 C 
HETATM   35  C   UNL     1      37.597 -15.459  -3.665  1.00  0.00     0.028 C 
HETATM   36  C   UNL     1      38.907 -15.881  -4.321  1.00  0.00     0.003 C 
HETATM   37  C   UNL     1      40.000 -16.101  -3.280  1.00  0.00     0.028 C 
HETATM   38  C   UNL     1      40.172 -14.893  -2.369  1.00  0.00     0.235 C 
ENDBRANCH  31  32
ENDBRANCH   3  31
TORSDOF 8
ENDMDL
MODEL 2
REMARK VINA RESULT:      -9.1      4.044      7.240
REMARK  8 active torsions:
REMARK  status: ('A' for Active; 'I' for Inactive)
REMARK    1  A    between atoms: C_2  and  S_3 
REMARK    2  A    between atoms: C_2  and  C_24 
REMARK    3  A    between atoms: S_3  and  C_4 
REMARK    4  A    between atoms: N_5  and  C_6 
REMARK    5  A    between atoms: C_13  and  C_14 
REMARK    6  A    between atoms: C_14  and  N_15 
REMARK       I    between atoms: C_24  and  N_25 
REMARK    7  A    between atoms: N_25  and  C_26 
REMARK    8  A    between atoms: C_29  and  C_30 
REMARK       I    between atoms: C_30  and  N_31 
ROOT
HETATM    1  C   UNL     1      41.764 -12.944   3.706  1.00  0.00     0.197 A 
HETATM    2  N   UNL     1      41.246 -13.448   4.890  1.00  0.00    -0.274 N 
HETATM    3  C   UNL     1      40.290 -12.501   5.254  1.00  0.00     0.161 A 
HETATM    4  N   UNL     1      40.308 -11.498   4.397  1.00  0.00    -0.132 NA
HETATM    5  N   UNL     1      41.217 -11.783   3.428  1.00  0.00    -0.122 NA
ENDROOT
BRANCH   1   6
HETATM    6  S   UNL     1      42.822 -13.806   2.639  1.00  0.00    -0.076 SA
BRANCH   6   7
HETATM    7  C   UNL     1      41.648 -14.895   1.747  1.00  0.00     0.143 C 
HETATM    8  C   UNL     1      40.220 -14.367   1.874  1.00  0.00     0.031 C 
BRANCH   7   9
HETATM    9  C   UNL     1      41.712 -16.331   2.297  1.00  0.00     0.236 C 
HETATM   10  N   UNL     1      43.025 -16.777   2.425  1.00  0.00    -0.326 N 
HETATM   11  H   UNL     1      43.760 -16.122   2.189  1.00  0.00     0.169 HD
HETATM   12  O   UNL     1      40.710 -16.989   2.555  1.00  0.00    -0.272 OA
BRANCH  10  13
HETATM   13  C   UNL     1      43.467 -18.046   2.848  1.00  0.00     0.034 A 
HETATM   14  C   UNL     1      43.941 -18.327   4.131  1.00  0.00     0.030 A 
HETATM   15  C   UNL     1      44.356 -19.622   4.473  1.00  0.00     0.019 A 
HETATM   16  C   UNL     1      44.308 -20.651   3.529  1.00  0.00     0.032 A 
HETATM   17  C   UNL     1      43.822 -20.376   2.246  1.00  0.00     0.019 A 
HETATM   18  C   UNL     1      43.408 -19.084   1.909  1.00  0.00     0.030 A 
BRANCH  16  19
HETATM   19  C   UNL     1      44.729 -22.044   3.835  1.00  0.00     0.249 C 
HETATM   20  N   UNL     1      45.190 -22.310   5.094  1.00  0.00    -0.366 N 
HETATM   21  H   UNL     1      45.437 -21.593   5.759  1.00  0.00     0.159 HD
HETATM   22  H   UNL     1      45.555 -23.241   5.251  1.00  0.00     0.159 HD
HETATM   23  O   UNL     1      44.698 -22.922   2.981  1.00  0.00    -0.268 OA
ENDBRANCH  16  19
ENDBRANCH  10  13
ENDBRANCH   7   9
ENDBRANCH   6   7
ENDBRANCH   1   6
BRANCH   2  24
HETATM   24  C   UNL     1      41.625 -14.608   5.618  1.00  0.00     0.043 A 
HETATM   25  C   UNL     1      40.708 -15.656   5.791  1.00  0.00     0.033 A 
HETATM   26  C   UNL     1      41.087 -16.814   6.477  1.00  0.00     0.044 A 
HETATM   27  C   UNL     1      42.373 -16.920   6.989  1.00  0.00     0.116 A 
HETATM   28  F   UNL     1      42.736 -18.030   7.642  1.00  0.00    -0.206 F 
HETATM   29  C   UNL     1      43.288 -15.886   6.835  1.00  0.00     0.044 A 
HETATM   30  C   UNL     1      42.919 -14.724   6.151  1.00  0.00     0.033 A 
ENDBRANCH   2  24
BRANCH   3  31
HETATM   31  C   UNL     1      39.482 -12.485   6.505  1.00  0.00     0.315 C 
BRANCH  31  32
HETATM   32  N   UNL     1      40.280 -11.930   7.683  1.00  0.00    -0.064 N 
HETATM   33  H   UNL     1      40.762 -12.756   8.075  1.00  0.00     0.280 HD
HETATM   34  C   UNL     1      41.375 -10.978   7.249  1.00  0.00     0.235 C 
HETATM   35  C   UNL     1      42.240 -10.632   8.451  1.00  0.00     0.028 C 
HETATM   36  C   UNL     1      41.408 -10.042   9.585  1.00  0.00     0.003 C 
HETATM   37  C   UNL     1      40.253 -10.965   9.960  1.00  0.00     0.028 C 
HETATM   38  C   UNL     1      39.404 -11.337   8.752  1.00  0.00     0.235 C 
ENDBRANCH  31  32
ENDBRANCH   3  31
TORSDOF 8
ENDMDL
MODEL 3
REMARK VINA RESULT:      -8.9      3.152      7.747
REMARK  8 active torsions:
REMARK  status: ('A' for Active; 'I' for Inactive)
REMARK    1  A    between atoms: C_2  and  S_3 
REMARK    2  A    between atoms: C_2  and  C_24 
REMARK    3  A    between atoms: S_3  and  C_4 
REMARK    4  A    between atoms: N_5  and  C_6 
REMARK    5  A    between atoms: C_13  and  C_14 
REMARK    6  A    between atoms: C_14  and  N_15 
REMARK       I    between atoms: C_24  and  N_25 
REMARK    7  A    between atoms: N_25  and  C_26 
REMARK    8  A    between atoms: C_29  and  C_30 
REMARK       I    between atoms: C_30  and  N_31 
ROOT
HETATM    1  C   UNL     1      42.047 -16.777   6.126  1.00  0.00     0.197 A 
HETATM    2  N   UNL     1      42.819 -17.382   5.146  1.00  0.00    -0.274 N 
HETATM    3  C   UNL     1      43.767 -18.098   5.876  1.00  0.00     0.161 A 
HETATM    4  N   UNL     1      43.605 -17.865   7.165  1.00  0.00    -0.132 NA
HETATM    5  N   UNL     1      42.525 -17.053   7.317  1.00  0.00    -0.122 NA
ENDROOT
BRANCH   1   6
HETATM    6  S   UNL     1      40.551 -15.950   5.842  1.00  0.00    -0.076 SA
BRANCH   6   7
HETATM    7  C   UNL     1      41.097 -14.201   5.784  1.00  0.00     0.143 C 
HETATM    8  C   UNL     1      39.934 -13.262   6.100  1.00  0.00     0.031 C 
BRANCH   7   9
HETATM    9  C   UNL     1      41.671 -13.854   4.400  1.00  0.00     0.236 C 
HETATM   10  N   UNL     1      40.747 -14.085   3.384  1.00  0.00    -0.326 N 
HETATM   11  H   UNL     1      39.827 -14.406   3.661  1.00  0.00     0.169 HD
HETATM   12  O   UNL     1      42.818 -13.452   4.238  1.00  0.00    -0.272 OA
BRANCH  10  13
HETATM   13  C   UNL     1      40.933 -13.929   1.996  1.00  0.00     0.034 A 
HETATM   14  C   UNL     1      42.003 -13.242   1.418  1.00  0.00     0.030 A 
HETATM   15  C   UNL     1      42.118 -13.139   0.024  1.00  0.00     0.019 A 
HETATM   16  C   UNL     1      41.156 -13.718  -0.808  1.00  0.00     0.032 A 
HETATM   17  C   UNL     1      40.090 -14.417  -0.233  1.00  0.00     0.019 A 
HETATM   18  C   UNL     1      39.979 -14.519   1.158  1.00  0.00     0.030 A 
BRANCH  16  19
HETATM   19  C   UNL     1      41.228 -13.646  -2.292  1.00  0.00     0.249 C 
HETATM   20  N   UNL     1      42.465 -13.600  -2.869  1.00  0.00    -0.366 N 
HETATM   21  H   UNL     1      43.314 -13.423  -2.354  1.00  0.00     0.159 HD
HETATM   22  H   UNL     1      42.488 -13.460  -3.872  1.00  0.00     0.159 HD
HETATM   23  O   UNL     1      40.215 -13.596  -2.978  1.00  0.00    -0.268 OA
ENDBRANCH  16  19
ENDBRANCH  10  13
ENDBRANCH   7   9
ENDBRANCH   6   7
ENDBRANCH   1   6
BRANCH   2  24
HETATM   24  C   UNL     1      42.736 -17.265   3.732  1.00  0.00     0.043 A 
HETATM   25  C   UNL     1      41.660 -17.848   3.044  1.00  0.00     0.033 A 
HETATM   26  C   UNL     1      41.554 -17.706   1.658  1.00  0.00     0.044 A 
HETATM   27  C   UNL     1      42.521 -16.990   0.963  1.00  0.00     0.116 A 
HETATM   28  F   UNL     1      42.417 -16.853  -0.363  1.00  0.00    -0.206 F 
HETATM   29  C   UNL     1      43.597 -16.417   1.630  1.00  0.00     0.044 A 
HETATM   30  C   UNL     1      43.711 -16.553   3.017  1.00  0.00     0.033 A 
ENDBRANCH   2  24
BRANCH   3  31
HETATM   31  C   UNL     1      44.918 -18.869   5.330  1.00  0.00     0.315 C 
BRANCH  31  32
HETATM   32  N   UNL     1      44.454 -20.103   4.559  1.00  0.00    -0.064 N 
HETATM   33  H   UNL     1      43.431 -20.123   4.701  1.00  0.00     0.280 HD
HETATM   34  C   UNL     1      44.662 -19.969   3.065  1.00  0.00     0.235 C 
HETATM   35  C   UNL     1      43.998 -21.143   2.362  1.00  0.00     0.028 C 
HETATM   36  C   UNL     1      44.528 -22.475   2.880  1.00  0.00     0.003 C 
HETATM   37  C   UNL     1      44.397 -22.570   4.396  1.00  0.00     0.028 C 
HETATM   38  C   UNL     1      45.035 -21.380   5.100  1.00  0.00     0.235 C 
ENDBRANCH  31  32
ENDBRANCH   3  31
TORSDOF 8
ENDMDL
MODEL 4
REMARK VINA RESULT:      -8.7      6.112      9.906
REMARK  8 active torsions:
REMARK  status: ('A' for Active; 'I' for Inactive)
REMARK    1  A    between atoms: C_2  and  S_3 
REMARK    2  A    between atoms: C_2  and  C_24 
REMARK    3  A    between atoms: S_3  and  C_4 
REMARK    4  A    between atoms: N_5  and  C_6 
REMARK    5  A    between atoms: C_13  and  C_14 
REMARK    6  A    between atoms: C_14  and  N_15 
REMARK       I    between atoms: C_24  and  N_25 
REMARK    7  A    between atoms: N_25  and  C_26 
REMARK    8  A    between atoms: C_29  and  C_30 
REMARK       I    between atoms: C_30  and  N_31 
ROOT
HETATM    1  C   UNL     1      43.439 -13.990   6.488  1.00  0.00     0.197 A 
HETATM    2  N   UNL     1      42.833 -15.083   5.888  1.00  0.00    -0.274 N 
HETATM    3  C   UNL     1      41.793 -14.514   5.154  1.00  0.00     0.161 A 
HETATM    4  N   UNL     1      41.753 -13.213   5.373  1.00  0.00    -0.132 NA
HETATM    5  N   UNL     1      42.787 -12.889   6.194  1.00  0.00    -0.122 NA
ENDROOT
BRANCH   1   6
HETATM    6  S   UNL     1      44.951 -14.034   7.333  1.00  0.00    -0.076 SA
BRANCH   6   7
HETATM    7  C   UNL     1      45.025 -12.349   8.052  1.00  0.00     0.143 C 
HETATM    8  C   UNL     1      46.473 -11.874   8.166  1.00  0.00     0.031 C 
BRANCH   7   9
HETATM    9  C   UNL     1      44.368 -12.321   9.443  1.00  0.00     0.236 C 
HETATM   10  N   UNL     1      43.740 -11.104   9.693  1.00  0.00    -0.326 N 
HETATM   11  H   UNL     1      43.752 -10.416   8.949  1.00  0.00     0.169 HD
HETATM   12  O   UNL     1      44.432 -13.261  10.228  1.00  0.00    -0.272 OA
BRANCH  10  13
HETATM   13  C   UNL     1      43.079 -10.699  10.871  1.00  0.00     0.034 A 
HETATM   14  C   UNL     1      41.704 -10.823  11.084  1.00  0.00     0.030 A 
HETATM   15  C   UNL     1      41.127 -10.402  12.290  1.00  0.00     0.019 A 
HETATM   16  C   UNL     1      41.920  -9.843  13.296  1.00  0.00     0.032 A 
HETATM   17  C   UNL     1      43.299  -9.729  13.090  1.00  0.00     0.019 A 
HETATM   18  C   UNL     1      43.872 -10.151  11.886  1.00  0.00     0.030 A 
BRANCH  16  19
HETATM   19  C   UNL     1      41.364  -9.384  14.596  1.00  0.00     0.249 C 
HETATM   20  N   UNL     1      41.851  -9.958  15.737  1.00  0.00    -0.366 N 
HETATM   21  H   UNL     1      42.417 -10.793  15.742  1.00  0.00     0.159 HD
HETATM   22  H   UNL     1      41.395  -9.695  16.601  1.00  0.00     0.159 HD
HETATM   23  O   UNL     1      40.476  -8.543  14.649  1.00  0.00    -0.268 OA
ENDBRANCH  16  19
ENDBRANCH  10  13
ENDBRANCH   7   9
ENDBRANCH   6   7
ENDBRANCH   1   6
BRANCH   2  24
HETATM   24  C   UNL     1      43.130 -16.467   6.022  1.00  0.00     0.043 A 
HETATM   25  C   UNL     1      43.707 -17.166   4.951  1.00  0.00     0.033 A 
HETATM   26  C   UNL     1      44.033 -18.518   5.090  1.00  0.00     0.044 A 
HETATM   27  C   UNL     1      43.781 -19.167   6.291  1.00  0.00     0.116 A 
HETATM   28  F   UNL     1      44.097 -20.459   6.424  1.00  0.00    -0.206 F 
HETATM   29  C   UNL     1      43.201 -18.490   7.357  1.00  0.00     0.044 A 
HETATM   30  C   UNL     1      42.871 -17.137   7.227  1.00  0.00     0.033 A 
ENDBRANCH   2  24
BRANCH   3  31
HETATM   31  C   UNL     1      40.748 -15.238   4.379  1.00  0.00     0.315 C 
BRANCH  31  32
HETATM   32  N   UNL     1      41.254 -15.646   2.996  1.00  0.00    -0.064 N 
HETATM   33  H   UNL     1      42.232 -15.936   3.159  1.00  0.00     0.280 HD
HETATM   34  C   UNL     1      40.543 -16.867   2.452  1.00  0.00     0.235 C 
HETATM   35  C   UNL     1      41.237 -17.320   1.176  1.00  0.00     0.028 C 
HETATM   36  C   UNL     1      41.289 -16.201   0.143  1.00  0.00     0.003 C 
HETATM   37  C   UNL     1      41.926 -14.942   0.723  1.00  0.00     0.028 C 
HETATM   38  C   UNL     1      41.253 -14.505   2.016  1.00  0.00     0.235 C 
ENDBRANCH  31  32
ENDBRANCH   3  31
TORSDOF 8
ENDMDL
MODEL 5
REMARK VINA RESULT:      -8.7      1.842      2.239
REMARK  8 active torsions:
REMARK  status: ('A' for Active; 'I' for Inactive)
REMARK    1  A    between atoms: C_2  and  S_3 
REMARK    2  A    between atoms: C_2  and  C_24 
REMARK    3  A    between atoms: S_3  and  C_4 
REMARK    4  A    between atoms: N_5  and  C_6 
REMARK    5  A    between atoms: C_13  and  C_14 
REMARK    6  A    between atoms: C_14  and  N_15 
REMARK       I    between atoms: C_24  and  N_25 
REMARK    7  A    between atoms: N_25  and  C_26 
REMARK    8  A    between atoms: C_29  and  C_30 
REMARK       I    between atoms: C_30  and  N_31 
ROOT
HETATM    1  C   UNL     1      40.439 -14.439   2.652  1.00  0.00     0.197 A 
HETATM    2  N   UNL     1      40.092 -13.460   1.734  1.00  0.00    -0.274 N 
HETATM    3  C   UNL     1      40.089 -14.142   0.518  1.00  0.00     0.161 A 
HETATM    4  N   UNL     1      40.478 -15.389   0.706  1.00  0.00    -0.132 NA
HETATM    5  N   UNL     1      40.682 -15.574   2.037  1.00  0.00    -0.122 NA
ENDROOT
BRANCH   1   6
HETATM    6  S   UNL     1      40.366 -14.258   4.373  1.00  0.00    -0.076 SA
BRANCH   6   7
HETATM    7  C   UNL     1      42.091 -14.639   4.863  1.00  0.00     0.143 C 
HETATM    8  C   UNL     1      43.079 -14.047   3.860  1.00  0.00     0.031 C 
BRANCH   7   9
HETATM    9  C   UNL     1      42.307 -16.159   4.957  1.00  0.00     0.236 C 
HETATM   10  N   UNL     1      43.102 -16.633   3.916  1.00  0.00    -0.326 N 
HETATM   11  H   UNL     1      43.465 -15.948   3.263  1.00  0.00     0.169 HD
HETATM   12  O   UNL     1      41.805 -16.849   5.837  1.00  0.00    -0.272 OA
BRANCH  10  13
HETATM   13  C   UNL     1      43.471 -17.967   3.651  1.00  0.00     0.034 A 
HETATM   14  C   UNL     1      44.281 -18.740   4.486  1.00  0.00     0.030 A 
HETATM   15  C   UNL     1      44.595 -20.065   4.150  1.00  0.00     0.019 A 
HETATM   16  C   UNL     1      44.107 -20.629   2.968  1.00  0.00     0.032 A 
HETATM   17  C   UNL     1      43.285 -19.861   2.136  1.00  0.00     0.019 A 
HETATM   18  C   UNL     1      42.974 -18.540   2.474  1.00  0.00     0.030 A 
BRANCH  16  19
HETATM   19  C   UNL     1      44.402 -22.029   2.564  1.00  0.00     0.249 C 
HETATM   20  N   UNL     1      44.807 -22.903   3.533  1.00  0.00    -0.366 N 
HETATM   21  H   UNL     1      45.097 -22.615   4.456  1.00  0.00     0.159 HD
HETATM   22  H   UNL     1      45.088 -23.823   3.220  1.00  0.00     0.159 HD
HETATM   23  O   UNL     1      44.318 -22.387   1.395  1.00  0.00    -0.268 OA
ENDBRANCH  16  19
ENDBRANCH  10  13
ENDBRANCH   7   9
ENDBRANCH   6   7
ENDBRANCH   1   6
BRANCH   2  24
HETATM   24  C   UNL     1      39.858 -12.073   1.940  1.00  0.00     0.043 A 
HETATM   25  C   UNL     1      40.920 -11.161   1.836  1.00  0.00     0.033 A 
HETATM   26  C   UNL     1      40.689  -9.793   2.003  1.00  0.00     0.044 A 
HETATM   27  C   UNL     1      39.405  -9.341   2.276  1.00  0.00     0.116 A 
HETATM   28  F   UNL     1      39.184  -8.031   2.433  1.00  0.00    -0.206 F 
HETATM   29  C   UNL     1      38.346 -10.232   2.393  1.00  0.00     0.044 A 
HETATM   30  C   UNL     1      38.567 -11.603   2.227  1.00  0.00     0.033 A 
ENDBRANCH   2  24
BRANCH   3  31
HETATM   31  C   UNL     1      39.873 -13.555  -0.834  1.00  0.00     0.315 C 
BRANCH  31  32
HETATM   32  N   UNL     1      39.333 -14.593  -1.817  1.00  0.00    -0.064 N 
HETATM   33  H   UNL     1      38.994 -15.361  -1.216  1.00  0.00     0.280 HD
HETATM   34  C   UNL     1      38.124 -14.097  -2.581  1.00  0.00     0.235 C 
HETATM   35  C   UNL     1      37.535 -15.249  -3.383  1.00  0.00     0.028 C 
HETATM   36  C   UNL     1      38.571 -15.863  -4.318  1.00  0.00     0.003 C 
HETATM   37  C   UNL     1      39.825 -16.280  -3.557  1.00  0.00     0.028 C 
HETATM   38  C   UNL     1      40.397 -15.137  -2.730  1.00  0.00     0.235 C 
ENDBRANCH  31  32
ENDBRANCH   3  31
TORSDOF 8
ENDMDL
MODEL 6
REMARK VINA RESULT:      -8.7      2.520      3.871
REMARK  8 active torsions:
REMARK  status: ('A' for Active; 'I' for Inactive)
REMARK    1  A    between atoms: C_2  and  S_3 
REMARK    2  A    between atoms: C_2  and  C_24 
REMARK    3  A    between atoms: S_3  and  C_4 
REMARK    4  A    between atoms: N_5  and  C_6 
REMARK    5  A    between atoms: C_13  and  C_14 
REMARK    6  A    between atoms: C_14  and  N_15 
REMARK       I    between atoms: C_24  and  N_25 
REMARK    7  A    between atoms: N_25  and  C_26 
REMARK    8  A    between atoms: C_29  and  C_30 
REMARK       I    between atoms: C_30  and  N_31 
ROOT
HETATM    1  C   UNL     1      42.173 -13.133   3.862  1.00  0.00     0.197 A 
HETATM    2  N   UNL     1      41.244 -13.583   2.936  1.00  0.00    -0.274 N 
HETATM    3  C   UNL     1      40.386 -12.495   2.782  1.00  0.00     0.161 A 
HETATM    4  N   UNL     1      40.742 -11.528   3.606  1.00  0.00    -0.132 NA
HETATM    5  N   UNL     1      41.862 -11.923   4.267  1.00  0.00    -0.122 NA
ENDROOT
BRANCH   1   6
HETATM    6  S   UNL     1      43.642 -13.953   4.275  1.00  0.00    -0.076 SA
BRANCH   6   7
HETATM    7  C   UNL     1      43.227 -14.658   5.916  1.00  0.00     0.143 C 
HETATM    8  C   UNL     1      44.192 -14.143   6.983  1.00  0.00     0.031 C 
BRANCH   7   9
HETATM    9  C   UNL     1      43.280 -16.195   5.879  1.00  0.00     0.236 C 
HETATM   10  N   UNL     1      43.877 -16.663   4.712  1.00  0.00    -0.326 N 
HETATM   11  H   UNL     1      44.229 -15.969   4.062  1.00  0.00     0.169 HD
HETATM   12  O   UNL     1      42.817 -16.898   6.771  1.00  0.00    -0.272 OA
BRANCH  10  13
HETATM   13  C   UNL     1      44.055 -18.003   4.311  1.00  0.00     0.034 A 
HETATM   14  C   UNL     1      44.612 -18.998   5.117  1.00  0.00     0.030 A 
HETATM   15  C   UNL     1      44.747 -20.310   4.642  1.00  0.00     0.019 A 
HETATM   16  C   UNL     1      44.331 -20.640   3.349  1.00  0.00     0.032 A 
HETATM   17  C   UNL     1      43.761 -19.649   2.544  1.00  0.00     0.019 A 
HETATM   18  C   UNL     1      43.627 -18.341   3.020  1.00  0.00     0.030 A 
BRANCH  16  19
HETATM   19  C   UNL     1      44.444 -22.015   2.794  1.00  0.00     0.249 C 
HETATM   20  N   UNL     1      44.730 -23.032   3.661  1.00  0.00    -0.366 N 
HETATM   21  H   UNL     1      45.051 -22.884   4.606  1.00  0.00     0.159 HD
HETATM   22  H   UNL     1      44.890 -23.942   3.248  1.00  0.00     0.159 HD
HETATM   23  O   UNL     1      44.319 -22.231   1.595  1.00  0.00    -0.268 OA
ENDBRANCH  16  19
ENDBRANCH  10  13
ENDBRANCH   7   9
ENDBRANCH   6   7
ENDBRANCH   1   6
BRANCH   2  24
HETATM   24  C   UNL     1      41.127 -14.861   2.325  1.00  0.00     0.043 A 
HETATM   25  C   UNL     1      40.363 -15.864   2.942  1.00  0.00     0.033 A 
HETATM   26  C   UNL     1      40.215 -17.111   2.329  1.00  0.00     0.044 A 
HETATM   27  C   UNL     1      40.831 -17.355   1.109  1.00  0.00     0.116 A 
HETATM   28  F   UNL     1      40.686 -18.548   0.521  1.00  0.00    -0.206 F 
HETATM   29  C   UNL     1      41.599 -16.375   0.491  1.00  0.00     0.044 A 
HETATM   30  C   UNL     1      41.752 -15.125   1.097  1.00  0.00     0.033 A 
ENDBRANCH   2  24
BRANCH   3  31
HETATM   31  C   UNL     1      39.140 -12.450   1.968  1.00  0.00     0.315 C 
BRANCH  31  32
HETATM   32  N   UNL     1      39.441 -12.200   0.492  1.00  0.00    -0.064 N 
HETATM   33  H   UNL     1      38.825 -11.410   0.236  1.00  0.00     0.280 HD
HETATM   34  C   UNL     1      40.856 -11.714   0.260  1.00  0.00     0.235 C 
HETATM   35  C   UNL     1      41.009 -11.303  -1.198  1.00  0.00     0.028 C 
HETATM   36  C   UNL     1      40.652 -12.447  -2.140  1.00  0.00     0.003 C 
HETATM   37  C   UNL     1      39.259 -12.992  -1.844  1.00  0.00     0.028 C 
HETATM   38  C   UNL     1      39.094 -13.375  -0.380  1.00  0.00     0.235 C 
ENDBRANCH  31  32
ENDBRANCH   3  31
TORSDOF 8
ENDMDL
MODEL 7
REMARK VINA RESULT:      -8.4      2.624      3.382
REMARK  8 active torsions:
REMARK  status: ('A' for Active; 'I' for Inactive)
REMARK    1  A    between atoms: C_2  and  S_3 
REMARK    2  A    between atoms: C_2  and  C_24 
REMARK    3  A    between atoms: S_3  and  C_4 
REMARK    4  A    between atoms: N_5  and  C_6 
REMARK    5  A    between atoms: C_13  and  C_14 
REMARK    6  A    between atoms: C_14  and  N_15 
REMARK       I    between atoms: C_24  and  N_25 
REMARK    7  A    between atoms: N_25  and  C_26 
REMARK    8  A    between atoms: C_29  and  C_30 
REMARK       I    between atoms: C_30  and  N_31 
ROOT
HETATM    1  C   UNL     1      41.922 -14.309   2.340  1.00  0.00     0.197 A 
HETATM    2  N   UNL     1      40.626 -13.821   2.403  1.00  0.00    -0.274 N 
HETATM    3  C   UNL     1      39.918 -14.671   1.555  1.00  0.00     0.161 A 
HETATM    4  N   UNL     1      40.747 -15.528   0.990  1.00  0.00    -0.132 NA
HETATM    5  N   UNL     1      41.991 -15.308   1.490  1.00  0.00    -0.122 NA
ENDROOT
BRANCH   1   6
HETATM    6  S   UNL     1      43.221 -13.816   3.376  1.00  0.00    -0.076 SA
BRANCH   6   7
HETATM    7  C   UNL     1      42.722 -14.557   4.977  1.00  0.00     0.143 C 
HETATM    8  C   UNL     1      43.740 -14.223   6.066  1.00  0.00     0.031 C 
BRANCH   7   9
HETATM    9  C   UNL     1      42.591 -16.085   4.853  1.00  0.00     0.236 C 
HETATM   10  N   UNL     1      43.711 -16.653   4.253  1.00  0.00    -0.326 N 
HETATM   11  H   UNL     1      44.471 -16.029   4.009  1.00  0.00     0.169 HD
HETATM   12  O   UNL     1      41.595 -16.699   5.221  1.00  0.00    -0.272 OA
BRANCH  10  13
HETATM   13  C   UNL     1      43.925 -18.009   3.933  1.00  0.00     0.034 A 
HETATM   14  C   UNL     1      44.513 -18.937   4.795  1.00  0.00     0.030 A 
HETATM   15  C   UNL     1      44.683 -20.272   4.401  1.00  0.00     0.019 A 
HETATM   16  C   UNL     1      44.271 -20.692   3.133  1.00  0.00     0.032 A 
HETATM   17  C   UNL     1      43.670 -19.768   2.272  1.00  0.00     0.019 A 
HETATM   18  C   UNL     1      43.502 -18.437   2.669  1.00  0.00     0.030 A 
BRANCH  16  19
HETATM   19  C   UNL     1      44.420 -22.095   2.663  1.00  0.00     0.249 C 
HETATM   20  N   UNL     1      44.707 -23.054   3.594  1.00  0.00    -0.366 N 
HETATM   21  H   UNL     1      45.006 -22.844   4.534  1.00  0.00     0.159 HD
HETATM   22  H   UNL     1      44.892 -23.983   3.238  1.00  0.00     0.159 HD
HETATM   23  O   UNL     1      44.323 -22.383   1.477  1.00  0.00    -0.268 OA
ENDBRANCH  16  19
ENDBRANCH  10  13
ENDBRANCH   7   9
ENDBRANCH   6   7
ENDBRANCH   1   6
BRANCH   2  24
HETATM   24  C   UNL     1      40.121 -12.688   3.098  1.00  0.00     0.043 A 
HETATM   25  C   UNL     1      40.200 -11.416   2.511  1.00  0.00     0.033 A 
HETATM   26  C   UNL     1      39.674 -10.304   3.175  1.00  0.00     0.044 A 
HETATM   27  C   UNL     1      39.078 -10.463   4.419  1.00  0.00     0.116 A 
HETATM   28  F   UNL     1      38.573  -9.399   5.052  1.00  0.00    -0.206 F 
HETATM   29  C   UNL     1      39.003 -11.715   5.017  1.00  0.00     0.044 A 
HETATM   30  C   UNL     1      39.526 -12.833   4.360  1.00  0.00     0.033 A 
ENDBRANCH   2  24
BRANCH   3  31
HETATM   31  C   UNL     1      38.485 -14.555   1.168  1.00  0.00     0.315 C 
BRANCH  31  32
HETATM   32  N   UNL     1      38.253 -13.387   0.212  1.00  0.00    -0.064 N 
HETATM   33  H   UNL     1      39.141 -12.859   0.235  1.00  0.00     0.280 HD
HETATM   34  C   UNL     1      38.074 -13.835  -1.223  1.00  0.00     0.235 C 
HETATM   35  C   UNL     1      38.049 -12.612  -2.128  1.00  0.00     0.028 C 
HETATM   36  C   UNL     1      36.957 -11.633  -1.711  1.00  0.00     0.003 C 
HETATM   37  C   UNL     1      37.089 -11.252  -0.240  1.00  0.00     0.028 C 
HETATM   38  C   UNL     1      37.145 -12.476   0.664  1.00  0.00     0.235 C 
ENDBRANCH  31  32
ENDBRANCH   3  31
TORSDOF 8
ENDMDL
MODEL 8
REMARK VINA RESULT:      -8.4      3.689      9.245
REMARK  8 active torsions:
REMARK  status: ('A' for Active; 'I' for Inactive)
REMARK    1  A    between atoms: C_2  and  S_3 
REMARK    2  A    between atoms: C_2  and  C_24 
REMARK    3  A    between atoms: S_3  and  C_4 
REMARK    4  A    between atoms: N_5  and  C_6 
REMARK    5  A    between atoms: C_13  and  C_14 
REMARK    6  A    between atoms: C_14  and  N_15 
REMARK       I    between atoms: C_24  and  N_25 
REMARK    7  A    between atoms: N_25  and  C_26 
REMARK    8  A    between atoms: C_29  and  C_30 
REMARK       I    between atoms: C_30  and  N_31 
ROOT
HETATM    1  C   UNL     1      41.030 -16.793   2.169  1.00  0.00     0.197 A 
HETATM    2  N   UNL     1      42.241 -16.784   2.843  1.00  0.00    -0.274 N 
HETATM    3  C   UNL     1      42.940 -17.845   2.269  1.00  0.00     0.161 A 
HETATM    4  N   UNL     1      42.170 -18.463   1.394  1.00  0.00    -0.132 NA
HETATM    5  N   UNL     1      40.987 -17.798   1.324  1.00  0.00    -0.122 NA
ENDROOT
BRANCH   1   6
HETATM    6  S   UNL     1      39.828 -15.548   2.268  1.00  0.00    -0.076 SA
BRANCH   6   7
HETATM    7  C   UNL     1      40.214 -14.537   0.788  1.00  0.00     0.143 C 
HETATM    8  C   UNL     1      40.926 -13.246   1.188  1.00  0.00     0.031 C 
BRANCH   7   9
HETATM    9  C   UNL     1      38.931 -14.194   0.012  1.00  0.00     0.236 C 
HETATM   10  N   UNL     1      39.134 -14.231  -1.364  1.00  0.00    -0.326 N 
HETATM   11  H   UNL     1      40.055 -14.504  -1.688  1.00  0.00     0.169 HD
HETATM   12  O   UNL     1      37.878 -13.900   0.567  1.00  0.00    -0.272 OA
BRANCH  10  13
HETATM   13  C   UNL     1      38.207 -13.929  -2.382  1.00  0.00     0.034 A 
HETATM   14  C   UNL     1      37.734 -12.644  -2.659  1.00  0.00     0.030 A 
HETATM   15  C   UNL     1      36.815 -12.429  -3.696  1.00  0.00     0.019 A 
HETATM   16  C   UNL     1      36.354 -13.501  -4.465  1.00  0.00     0.032 A 
HETATM   17  C   UNL     1      36.836 -14.787  -4.198  1.00  0.00     0.019 A 
HETATM   18  C   UNL     1      37.752 -14.998  -3.163  1.00  0.00     0.030 A 
BRANCH  16  19
HETATM   19  C   UNL     1      35.385 -13.332  -5.581  1.00  0.00     0.249 C 
HETATM   20  N   UNL     1      35.886 -13.113  -6.833  1.00  0.00    -0.366 N 
HETATM   21  H   UNL     1      36.849 -12.873  -7.014  1.00  0.00     0.159 HD
HETATM   22  H   UNL     1      35.208 -12.912  -7.558  1.00  0.00     0.159 HD
HETATM   23  O   UNL     1      34.177 -13.355  -5.385  1.00  0.00    -0.268 OA
ENDBRANCH  16  19
ENDBRANCH  10  13
ENDBRANCH   7   9
ENDBRANCH   6   7
ENDBRANCH   1   6
BRANCH   2  24
HETATM   24  C   UNL     1      42.671 -15.953   3.914  1.00  0.00     0.043 A 
HETATM   25  C   UNL     1      42.491 -16.372   5.241  1.00  0.00     0.033 A 
HETATM   26  C   UNL     1      42.944 -15.575   6.296  1.00  0.00     0.044 A 
HETATM   27  C   UNL     1      43.568 -14.365   6.025  1.00  0.00     0.116 A 
HETATM   28  F   UNL     1      44.003 -13.604   7.036  1.00  0.00    -0.206 F 
HETATM   29  C   UNL     1      43.743 -13.931   4.717  1.00  0.00     0.044 A 
HETATM   30  C   UNL     1      43.294 -14.722   3.655  1.00  0.00     0.033 A 
ENDBRANCH   2  24
BRANCH   3  31
HETATM   31  C   UNL     1      44.276 -18.358   2.678  1.00  0.00     0.315 C 
BRANCH  31  32
HETATM   32  N   UNL     1      44.163 -19.677   3.441  1.00  0.00    -0.064 N 
HETATM   33  H   UNL     1      43.146 -19.849   3.503  1.00  0.00     0.280 HD
HETATM   34  C   UNL     1      44.735 -20.847   2.669  1.00  0.00     0.235 C 
HETATM   35  C   UNL     1      44.406 -22.138   3.405  1.00  0.00     0.028 C 
HETATM   36  C   UNL     1      44.924 -22.110   4.838  1.00  0.00     0.003 C 
HETATM   37  C   UNL     1      44.417 -20.882   5.585  1.00  0.00     0.028 C 
HETATM   38  C   UNL     1      44.719 -19.591   4.836  1.00  0.00     0.235 C 
ENDBRANCH  31  32
ENDBRANCH   3  31
TORSDOF 8
ENDMDL
MODEL 9
REMARK VINA RESULT:      -8.3      2.310      4.477
REMARK  8 active torsions:
REMARK  status: ('A' for Active; 'I' for Inactive)
REMARK    1  A    between atoms: C_2  and  S_3 
REMARK    2  A    between atoms: C_2  and  C_24 
REMARK    3  A    between atoms: S_3  and  C_4 
REMARK    4  A    between atoms: N_5  and  C_6 
REMARK    5  A    between atoms: C_13  and  C_14 
REMARK    6  A    between atoms: C_14  and  N_15 
REMARK       I    between atoms: C_24  and  N_25 
REMARK    7  A    between atoms: N_25  and  C_26 
REMARK    8  A    between atoms: C_29  and  C_30 
REMARK       I    between atoms: C_30  and  N_31 
ROOT
HETATM    1  C   UNL     1      39.418 -13.325   0.813  1.00  0.00     0.197 A 
HETATM    2  N   UNL     1      39.517 -13.065  -0.545  1.00  0.00    -0.274 N 
HETATM    3  C   UNL     1      39.692 -11.684  -0.600  1.00  0.00     0.161 A 
HETATM    4  N   UNL     1      39.621 -11.178   0.617  1.00  0.00    -0.132 NA
HETATM    5  N   UNL     1      39.464 -12.203   1.495  1.00  0.00    -0.122 NA
ENDROOT
BRANCH   1   6
HETATM    6  S   UNL     1      39.438 -14.903   1.528  1.00  0.00    -0.076 SA
BRANCH   6   7
HETATM    7  C   UNL     1      41.126 -14.970   2.238  1.00  0.00     0.143 C 
HETATM    8  C   UNL     1      42.176 -14.702   1.161  1.00  0.00     0.031 C 
BRANCH   7   9
HETATM    9  C   UNL     1      41.393 -16.342   2.881  1.00  0.00     0.236 C 
HETATM   10  N   UNL     1      42.602 -16.886   2.454  1.00  0.00    -0.326 N 
HETATM   11  H   UNL     1      43.164 -16.326   1.824  1.00  0.00     0.169 HD
HETATM   12  O   UNL     1      40.605 -16.880   3.651  1.00  0.00    -0.272 OA
BRANCH  10  13
HETATM   13  C   UNL     1      43.150 -18.140   2.791  1.00  0.00     0.034 A 
HETATM   14  C   UNL     1      43.789 -18.420   4.001  1.00  0.00     0.030 A 
HETATM   15  C   UNL     1      44.301 -19.699   4.260  1.00  0.00     0.019 A 
HETATM   16  C   UNL     1      44.187 -20.713   3.305  1.00  0.00     0.032 A 
HETATM   17  C   UNL     1      43.537 -20.439   2.096  1.00  0.00     0.019 A 
HETATM   18  C   UNL     1      43.026 -19.162   1.841  1.00  0.00     0.030 A 
BRANCH  16  19
HETATM   19  C   UNL     1      44.706 -22.089   3.525  1.00  0.00     0.249 C 
HETATM   20  N   UNL     1      45.124 -22.419   4.784  1.00  0.00    -0.366 N 
HETATM   21  H   UNL     1      45.278 -21.741   5.516  1.00  0.00     0.159 HD
HETATM   22  H   UNL     1      45.556 -23.329   4.889  1.00  0.00     0.159 HD
HETATM   23  O   UNL     1      44.790 -22.894   2.607  1.00  0.00    -0.268 OA
ENDBRANCH  16  19
ENDBRANCH  10  13
ENDBRANCH   7   9
ENDBRANCH   6   7
ENDBRANCH   1   6
BRANCH   2  24
HETATM   24  C   UNL     1      39.401 -13.959  -1.645  1.00  0.00     0.043 A 
HETATM   25  C   UNL     1      38.160 -14.136  -2.275  1.00  0.00     0.033 A 
HETATM   26  C   UNL     1      38.048 -14.987  -3.378  1.00  0.00     0.044 A 
HETATM   27  C   UNL     1      39.170 -15.660  -3.844  1.00  0.00     0.116 A 
HETATM   28  F   UNL     1      39.062 -16.471  -4.902  1.00  0.00    -0.206 F 
HETATM   29  C   UNL     1      40.403 -15.503  -3.224  1.00  0.00     0.044 A 
HETATM   30  C   UNL     1      40.524 -14.654  -2.120  1.00  0.00     0.033 A 
ENDBRANCH   2  24
BRANCH   3  31
HETATM   31  C   UNL     1      39.762 -10.841  -1.825  1.00  0.00     0.315 C 
BRANCH  31  32
HETATM   32  N   UNL     1      41.139 -10.199  -1.988  1.00  0.00    -0.064 N 
HETATM   33  H   UNL     1      41.318 -10.236  -3.005  1.00  0.00     0.280 HD
HETATM   34  C   UNL     1      41.146  -8.731  -1.618  1.00  0.00     0.235 C 
HETATM   35  C   UNL     1      42.491  -8.128  -1.996  1.00  0.00     0.028 C 
HETATM   36  C   UNL     1      43.642  -8.874  -1.331  1.00  0.00     0.003 C 
HETATM   37  C   UNL     1      43.581 -10.368  -1.634  1.00  0.00     0.028 C 
HETATM   38  C   UNL     1      42.225 -10.966  -1.285  1.00  0.00     0.235 C 
ENDBRANCH  31  32
ENDBRANCH   3  31
TORSDOF 8
ENDMDL
MODEL 10
REMARK VINA RESULT:      -8.2      5.822      9.490
REMARK  8 active torsions:
REMARK  status: ('A' for Active; 'I' for Inactive)
REMARK    1  A    between atoms: C_2  and  S_3 
REMARK    2  A    between atoms: C_2  and  C_24 
REMARK    3  A    between atoms: S_3  and  C_4 
REMARK    4  A    between atoms: N_5  and  C_6 
REMARK    5  A    between atoms: C_13  and  C_14 
REMARK    6  A    between atoms: C_14  and  N_15 
REMARK       I    between atoms: C_24  and  N_25 
REMARK    7  A    between atoms: N_25  and  C_26 
REMARK    8  A    between atoms: C_29  and  C_30 
REMARK       I    between atoms: C_30  and  N_31 
ROOT
HETATM    1  C   UNL     1      40.037 -13.119   4.834  1.00  0.00     0.197 A 
HETATM    2  N   UNL     1      41.163 -13.887   4.579  1.00  0.00    -0.274 N 
HETATM    3  C   UNL     1      41.397 -13.680   3.221  1.00  0.00     0.161 A 
HETATM    4  N   UNL     1      40.443 -12.920   2.716  1.00  0.00    -0.132 NA
HETATM    5  N   UNL     1      39.606 -12.563   3.725  1.00  0.00    -0.122 NA
ENDROOT
BRANCH   1   6
HETATM    6  S   UNL     1      39.406 -12.772   6.410  1.00  0.00    -0.076 SA
BRANCH   6   7
HETATM    7  C   UNL     1      39.822 -10.996   6.596  1.00  0.00     0.143 C 
HETATM    8  C   UNL     1      41.228 -10.714   6.072  1.00  0.00     0.031 C 
BRANCH   7   9
HETATM    9  C   UNL     1      39.731 -10.567   8.071  1.00  0.00     0.236 C 
HETATM   10  N   UNL     1      40.913 -10.827   8.758  1.00  0.00    -0.326 N 
HETATM   11  H   UNL     1      41.681 -11.218   8.226  1.00  0.00     0.169 HD
HETATM   12  O   UNL     1      38.716 -10.083   8.560  1.00  0.00    -0.272 OA
BRANCH  10  13
HETATM   13  C   UNL     1      41.181 -10.613  10.126  1.00  0.00     0.034 A 
HETATM   14  C   UNL     1      40.498 -11.242  11.169  1.00  0.00     0.030 A 
HETATM   15  C   UNL     1      40.833 -10.978  12.505  1.00  0.00     0.019 A 
HETATM   16  C   UNL     1      41.853 -10.073  12.811  1.00  0.00     0.032 A 
HETATM   17  C   UNL     1      42.547  -9.450  11.768  1.00  0.00     0.019 A 
HETATM   18  C   UNL     1      42.211  -9.716  10.437  1.00  0.00     0.030 A 
BRANCH  16  19
HETATM   19  C   UNL     1      42.255  -9.757  14.208  1.00  0.00     0.249 C 
HETATM   20  N   UNL     1      43.369  -8.988  14.393  1.00  0.00    -0.366 N 
HETATM   21  H   UNL     1      44.032  -8.782  13.661  1.00  0.00     0.159 HD
HETATM   22  H   UNL     1      43.674  -8.862  15.350  1.00  0.00     0.159 HD
HETATM   23  O   UNL     1      41.632 -10.197  15.166  1.00  0.00    -0.268 OA
ENDBRANCH  16  19
ENDBRANCH  10  13
ENDBRANCH   7   9
ENDBRANCH   6   7
ENDBRANCH   1   6
BRANCH   2  24
HETATM   24  C   UNL     1      41.886 -14.744   5.453  1.00  0.00     0.043 A 
HETATM   25  C   UNL     1      43.137 -14.345   5.948  1.00  0.00     0.033 A 
HETATM   26  C   UNL     1      43.836 -15.168   6.835  1.00  0.00     0.044 A 
HETATM   27  C   UNL     1      43.290 -16.385   7.220  1.00  0.00     0.116 A 
HETATM   28  F   UNL     1      43.958 -17.171   8.071  1.00  0.00    -0.206 F 
HETATM   29  C   UNL     1      42.057 -16.799   6.730  1.00  0.00     0.044 A 
HETATM   30  C   UNL     1      41.350 -15.981   5.843  1.00  0.00     0.033 A 
ENDBRANCH   2  24
BRANCH   3  31
HETATM   31  C   UNL     1      42.436 -14.339   2.383  1.00  0.00     0.315 C 
BRANCH  31  32
HETATM   32  N   UNL     1      42.314 -15.861   2.431  1.00  0.00    -0.064 N 
HETATM   33  H   UNL     1      41.609 -16.038   3.166  1.00  0.00     0.280 HD
HETATM   34  C   UNL     1      41.739 -16.440   1.156  1.00  0.00     0.235 C 
HETATM   35  C   UNL     1      41.467 -17.924   1.360  1.00  0.00     0.028 C 
HETATM   36  C   UNL     1      42.727 -18.667   1.788  1.00  0.00     0.003 C 
HETATM   37  C   UNL     1      43.353 -18.026   3.023  1.00  0.00     0.028 C 
HETATM   38  C   UNL     1      43.598 -16.536   2.831  1.00  0.00     0.235 C 
ENDBRANCH  31  32
ENDBRANCH   3  31
TORSDOF 8
ENDMDL
