MODEL 1
REMARK VINA RESULT:      -7.2      0.000      0.000
REMARK  4 active torsions:
REMARK  status: ('A' for Active; 'I' for Inactive)
REMARK    1  A    between atoms: O_2  and  C_3 
REMARK    2  A    between atoms: C_5  and  N_6 
REMARK    3  A    between atoms: N_6  and  C_7 
REMARK    4  A    between atoms: C_7  and  C_8 
ROOT
HETATM    1  N   UNL     1      41.638 -17.582   1.123  1.00  0.00    -0.372 N 
HETATM    2  H   UNL     1      41.192 -18.160   0.422  1.00  0.00     0.161 HD
ENDROOT
BRANCH   1   3
HETATM    3  C   UNL     1      40.970 -16.499   1.642  1.00  0.00     0.103 A 
HETATM    4  C   UNL     1      40.883 -16.180   3.005  1.00  0.00     0.085 A 
HETATM    5  C   UNL     1      40.163 -15.060   3.420  1.00  0.00     0.073 A 
HETATM    6  C   UNL     1      39.508 -14.284   2.473  1.00  0.00     0.053 A 
HETATM    7  C   UNL     1      39.597 -14.638   1.140  1.00  0.00     0.092 A 
HETATM    8  N   UNL     1      40.308 -15.712   0.776  1.00  0.00    -0.352 N 
HETATM    9  H   UNL     1      40.350 -15.959  -0.207  1.00  0.00     0.166 HD
BRANCH   5  10
HETATM   10  O   UNL     1      40.011 -14.631   4.705  1.00  0.00    -0.356 OA
HETATM   11  C   UNL     1      40.578 -15.428   5.742  1.00  0.00     0.210 C 
ENDBRANCH   5  10
ENDBRANCH   1   3
BRANCH   1  12
HETATM   12  C   UNL     1      43.095 -17.689   1.100  1.00  0.00     0.160 C 
BRANCH  12  13
HETATM   13  C   UNL     1      43.580 -18.685   2.126  1.00  0.00    -0.036 A 
HETATM   14  C   UNL     1      43.954 -18.257   3.423  1.00  0.00     0.031 A 
HETATM   15  C   UNL     1      44.395 -19.175   4.383  1.00  0.00     0.047 A 
HETATM   16 BR   UNL     1      44.871 -18.574   6.107  1.00  0.00    -0.048 Br
HETATM   17  C   UNL     1      44.467 -20.508   4.035  1.00  0.00     0.122 A 
HETATM   18  C   UNL     1      44.114 -20.926   2.774  1.00  0.00     0.107 A 
HETATM   19  O   UNL     1      44.867 -21.544   4.821  1.00  0.00    -0.322 OA
HETATM   20  O   UNL     1      44.250 -22.269   2.611  1.00  0.00    -0.323 OA
HETATM   21  C   UNL     1      43.672 -20.049   1.803  1.00  0.00     0.048 A 
HETATM   22  C   UNL     1      44.767 -22.652   3.903  1.00  0.00     0.352 A 
ENDBRANCH  12  13
ENDBRANCH   1  12
TORSDOF 4
ENDMDL
MODEL 2
REMARK VINA RESULT:      -7.1      1.515      1.963
REMARK  4 active torsions:
REMARK  status: ('A' for Active; 'I' for Inactive)
REMARK    1  A    between atoms: O_2  and  C_3 
REMARK    2  A    between atoms: C_5  and  N_6 
REMARK    3  A    between atoms: N_6  and  C_7 
REMARK    4  A    between atoms: C_7  and  C_8 
ROOT
HETATM    1  N   UNL     1      41.923 -17.628   1.253  1.00  0.00    -0.372 N 
HETATM    2  H   UNL     1      41.428 -18.504   1.143  1.00  0.00     0.161 HD
ENDROOT
BRANCH   1   3
HETATM    3  C   UNL     1      41.311 -16.449   0.900  1.00  0.00     0.103 A 
HETATM    4  C   UNL     1      40.186 -15.900   1.531  1.00  0.00     0.085 A 
HETATM    5  C   UNL     1      39.640 -14.701   1.077  1.00  0.00     0.073 A 
HETATM    6  C   UNL     1      40.203 -14.072  -0.026  1.00  0.00     0.053 A 
HETATM    7  C   UNL     1      41.299 -14.649  -0.638  1.00  0.00     0.092 A 
HETATM    8  N   UNL     1      41.805 -15.795  -0.167  1.00  0.00    -0.352 N 
HETATM    9  H   UNL     1      42.603 -16.206  -0.639  1.00  0.00     0.166 HD
BRANCH   5  10
HETATM   10  O   UNL     1      38.562 -14.055   1.606  1.00  0.00    -0.356 OA
HETATM   11  C   UNL     1      37.413 -13.895   0.780  1.00  0.00     0.210 C 
ENDBRANCH   5  10
ENDBRANCH   1   3
BRANCH   1  12
HETATM   12  C   UNL     1      43.374 -17.799   1.289  1.00  0.00     0.160 C 
BRANCH  12  13
HETATM   13  C   UNL     1      43.782 -18.713   2.419  1.00  0.00    -0.036 A 
HETATM   14  C   UNL     1      44.081 -18.184   3.698  1.00  0.00     0.031 A 
HETATM   15  C   UNL     1      44.451 -19.024   4.754  1.00  0.00     0.047 A 
HETATM   16 BR   UNL     1      44.827 -18.289   6.450  1.00  0.00    -0.048 Br
HETATM   17  C   UNL     1      44.528 -20.381   4.520  1.00  0.00     0.122 A 
HETATM   18  C   UNL     1      44.248 -20.897   3.277  1.00  0.00     0.107 A 
HETATM   19  O   UNL     1      44.866 -21.354   5.409  1.00  0.00    -0.322 OA
HETATM   20  O   UNL     1      44.376 -22.250   3.231  1.00  0.00    -0.323 OA
HETATM   21  C   UNL     1      43.877 -20.099   2.213  1.00  0.00     0.048 A 
HETATM   22  C   UNL     1      44.809 -22.531   4.579  1.00  0.00     0.352 A 
ENDBRANCH  12  13
ENDBRANCH   1  12
TORSDOF 4
ENDMDL
MODEL 3
REMARK VINA RESULT:      -7.1      1.799      2.467
REMARK  4 active torsions:
REMARK  status: ('A' for Active; 'I' for Inactive)
REMARK    1  A    between atoms: O_2  and  C_3 
REMARK    2  A    between atoms: C_5  and  N_6 
REMARK    3  A    between atoms: N_6  and  C_7 
REMARK    4  A    between atoms: C_7  and  C_8 
ROOT
HETATM    1  N   UNL     1      41.749 -17.779   1.192  1.00  0.00    -0.372 N 
HETATM    2  H   UNL     1      41.351 -18.672   0.930  1.00  0.00     0.161 HD
ENDROOT
BRANCH   1   3
HETATM    3  C   UNL     1      41.026 -16.626   1.004  1.00  0.00     0.103 A 
HETATM    4  C   UNL     1      41.312 -15.638   0.051  1.00  0.00     0.085 A 
HETATM    5  C   UNL     1      40.514 -14.499  -0.041  1.00  0.00     0.073 A 
HETATM    6  C   UNL     1      39.455 -14.338   0.842  1.00  0.00     0.053 A 
HETATM    7  C   UNL     1      39.212 -15.320   1.783  1.00  0.00     0.092 A 
HETATM    8  N   UNL     1      39.990 -16.408   1.833  1.00  0.00    -0.352 N 
HETATM    9  H   UNL     1      39.800 -17.111   2.540  1.00  0.00     0.166 HD
BRANCH   5  10
HETATM   10  O   UNL     1      40.673 -13.474  -0.927  1.00  0.00    -0.356 OA
HETATM   11  C   UNL     1      41.964 -13.286  -1.499  1.00  0.00     0.210 C 
ENDBRANCH   5  10
ENDBRANCH   1   3
BRANCH   1  12
HETATM   12  C   UNL     1      43.210 -17.808   1.254  1.00  0.00     0.160 C 
BRANCH  12  13
HETATM   13  C   UNL     1      43.685 -18.717   2.362  1.00  0.00    -0.036 A 
HETATM   14  C   UNL     1      44.021 -18.188   3.632  1.00  0.00     0.031 A 
HETATM   15  C   UNL     1      44.453 -19.024   4.667  1.00  0.00     0.047 A 
HETATM   16 BR   UNL     1      44.877 -18.289   6.352  1.00  0.00    -0.048 Br
HETATM   17  C   UNL     1      44.556 -20.377   4.421  1.00  0.00     0.122 A 
HETATM   18  C   UNL     1      44.240 -20.893   3.186  1.00  0.00     0.107 A 
HETATM   19  O   UNL     1      44.953 -21.346   5.290  1.00  0.00    -0.322 OA
HETATM   20  O   UNL     1      44.402 -22.242   3.127  1.00  0.00    -0.323 OA
HETATM   21  C   UNL     1      43.808 -20.099   2.143  1.00  0.00     0.048 A 
HETATM   22  C   UNL     1      44.894 -22.520   4.455  1.00  0.00     0.352 A 
ENDBRANCH  12  13
ENDBRANCH   1  12
TORSDOF 4
ENDMDL
MODEL 4
REMARK VINA RESULT:      -6.9      3.389      4.500
REMARK  4 active torsions:
REMARK  status: ('A' for Active; 'I' for Inactive)
REMARK    1  A    between atoms: O_2  and  C_3 
REMARK    2  A    between atoms: C_5  and  N_6 
REMARK    3  A    between atoms: N_6  and  C_7 
REMARK    4  A    between atoms: C_7  and  C_8 
ROOT
HETATM    1  N   UNL     1      42.077 -16.451   0.117  1.00  0.00    -0.372 N 
HETATM    2  H   UNL     1      43.078 -16.419   0.268  1.00  0.00     0.161 HD
ENDROOT
BRANCH   1   3
HETATM    3  C   UNL     1      41.486 -15.560  -0.745  1.00  0.00     0.103 A 
HETATM    4  C   UNL     1      40.994 -15.873  -2.020  1.00  0.00     0.085 A 
HETATM    5  C   UNL     1      40.424 -14.882  -2.818  1.00  0.00     0.073 A 
HETATM    6  C   UNL     1      40.379 -13.576  -2.348  1.00  0.00     0.053 A 
HETATM    7  C   UNL     1      40.891 -13.296  -1.096  1.00  0.00     0.092 A 
HETATM    8  N   UNL     1      41.418 -14.276  -0.352  1.00  0.00    -0.352 N 
HETATM    9  H   UNL     1      41.798 -14.045   0.560  1.00  0.00     0.166 HD
BRANCH   5  10
HETATM   10  O   UNL     1      39.898 -15.053  -4.064  1.00  0.00    -0.356 OA
HETATM   11  C   UNL     1      38.992 -16.135  -4.258  1.00  0.00     0.210 C 
ENDBRANCH   5  10
ENDBRANCH   1   3
BRANCH   1  12
HETATM   12  C   UNL     1      41.362 -17.099   1.215  1.00  0.00     0.160 C 
BRANCH  12  13
HETATM   13  C   UNL     1      42.313 -17.866   2.102  1.00  0.00    -0.036 A 
HETATM   14  C   UNL     1      42.756 -19.160   1.733  1.00  0.00     0.031 A 
HETATM   15  C   UNL     1      43.645 -19.873   2.544  1.00  0.00     0.047 A 
HETATM   16 BR   UNL     1      44.227 -21.588   2.015  1.00  0.00    -0.048 Br
HETATM   17  C   UNL     1      44.075 -19.293   3.718  1.00  0.00     0.122 A 
HETATM   18  C   UNL     1      43.640 -18.041   4.085  1.00  0.00     0.107 A 
HETATM   19  O   UNL     1      44.932 -19.821   4.634  1.00  0.00    -0.322 OA
HETATM   20  O   UNL     1      44.166 -17.631   5.270  1.00  0.00    -0.323 OA
HETATM   21  C   UNL     1      42.766 -17.307   3.309  1.00  0.00     0.048 A 
HETATM   22  C   UNL     1      44.955 -18.784   5.635  1.00  0.00     0.352 A 
ENDBRANCH  12  13
ENDBRANCH   1  12
TORSDOF 4
ENDMDL
MODEL 5
REMARK VINA RESULT:      -6.8      2.950      3.852
REMARK  4 active torsions:
REMARK  status: ('A' for Active; 'I' for Inactive)
REMARK    1  A    between atoms: O_2  and  C_3 
REMARK    2  A    between atoms: C_5  and  N_6 
REMARK    3  A    between atoms: N_6  and  C_7 
REMARK    4  A    between atoms: C_7  and  C_8 
ROOT
HETATM    1  N   UNL     1      42.223 -16.153   0.359  1.00  0.00    -0.372 N 
HETATM    2  H   UNL     1      43.208 -16.240   0.148  1.00  0.00     0.161 HD
ENDROOT
BRANCH   1   3
HETATM    3  C   UNL     1      41.395 -15.476  -0.504  1.00  0.00     0.103 A 
HETATM    4  C   UNL     1      41.168 -15.821  -1.844  1.00  0.00     0.085 A 
HETATM    5  C   UNL     1      40.315 -15.051  -2.634  1.00  0.00     0.073 A 
HETATM    6  C   UNL     1      39.719 -13.922  -2.088  1.00  0.00     0.053 A 
HETATM    7  C   UNL     1      39.980 -13.597  -0.771  1.00  0.00     0.092 A 
HETATM    8  N   UNL     1      40.793 -14.368  -0.038  1.00  0.00    -0.352 N 
HETATM    9  H   UNL     1      40.978 -14.104   0.924  1.00  0.00     0.166 HD
BRANCH   5  10
HETATM   10  O   UNL     1      39.999 -15.282  -3.940  1.00  0.00    -0.356 OA
HETATM   11  C   UNL     1      38.964 -16.221  -4.216  1.00  0.00     0.210 C 
ENDBRANCH   5  10
ENDBRANCH   1   3
BRANCH   1  12
HETATM   12  C   UNL     1      41.934 -16.317   1.783  1.00  0.00     0.160 C 
BRANCH  12  13
HETATM   13  C   UNL     1      42.685 -17.496   2.354  1.00  0.00    -0.036 A 
HETATM   14  C   UNL     1      43.307 -17.406   3.623  1.00  0.00     0.031 A 
HETATM   15  C   UNL     1      43.997 -18.496   4.164  1.00  0.00     0.047 A 
HETATM   16 BR   UNL     1      44.800 -18.348   5.864  1.00  0.00    -0.048 Br
HETATM   17  C   UNL     1      44.068 -19.660   3.428  1.00  0.00     0.122 A 
HETATM   18  C   UNL     1      43.474 -19.749   2.192  1.00  0.00     0.107 A 
HETATM   19  O   UNL     1      44.687 -20.821   3.779  1.00  0.00    -0.322 OA
HETATM   20  O   UNL     1      43.647 -20.967   1.614  1.00  0.00    -0.323 OA
HETATM   21  C   UNL     1      42.783 -18.695   1.628  1.00  0.00     0.048 A 
HETATM   22  C   UNL     1      44.454 -21.632   2.609  1.00  0.00     0.352 A 
ENDBRANCH  12  13
ENDBRANCH   1  12
TORSDOF 4
ENDMDL
MODEL 6
REMARK VINA RESULT:      -6.7      3.444      4.449
REMARK  4 active torsions:
REMARK  status: ('A' for Active; 'I' for Inactive)
REMARK    1  A    between atoms: O_2  and  C_3 
REMARK    2  A    between atoms: C_5  and  N_6 
REMARK    3  A    between atoms: N_6  and  C_7 
REMARK    4  A    between atoms: C_7  and  C_8 
ROOT
HETATM    1  N   UNL     1      43.219 -17.712   6.895  1.00  0.00    -0.372 N 
HETATM    2  H   UNL     1      42.309 -18.149   6.829  1.00  0.00     0.161 HD
ENDROOT
BRANCH   1   3
HETATM    3  C   UNL     1      43.343 -16.356   6.703  1.00  0.00     0.103 A 
HETATM    4  C   UNL     1      44.389 -15.562   7.193  1.00  0.00     0.085 A 
HETATM    5  C   UNL     1      44.403 -14.189   6.949  1.00  0.00     0.073 A 
HETATM    6  C   UNL     1      43.356 -13.614   6.243  1.00  0.00     0.053 A 
HETATM    7  C   UNL     1      42.329 -14.422   5.791  1.00  0.00     0.092 A 
HETATM    8  N   UNL     1      42.355 -15.738   6.033  1.00  0.00    -0.352 N 
HETATM    9  H   UNL     1      41.585 -16.309   5.701  1.00  0.00     0.166 HD
BRANCH   5  10
HETATM   10  O   UNL     1      45.363 -13.310   7.354  1.00  0.00    -0.356 OA
HETATM   11  C   UNL     1      45.150 -12.615   8.580  1.00  0.00     0.210 C 
ENDBRANCH   5  10
ENDBRANCH   1   3
BRANCH   1  12
HETATM   12  C   UNL     1      44.316 -18.654   6.681  1.00  0.00     0.160 C 
BRANCH  12  13
HETATM   13  C   UNL     1      44.282 -19.214   5.279  1.00  0.00    -0.036 A 
HETATM   14  C   UNL     1      44.046 -18.364   4.171  1.00  0.00     0.031 A 
HETATM   15  C   UNL     1      44.022 -18.873   2.868  1.00  0.00     0.047 A 
HETATM   16 BR   UNL     1      43.721 -17.711   1.413  1.00  0.00    -0.048 Br
HETATM   17  C   UNL     1      44.223 -20.225   2.686  1.00  0.00     0.122 A 
HETATM   18  C   UNL     1      44.443 -21.055   3.760  1.00  0.00     0.107 A 
HETATM   19  O   UNL     1      44.238 -20.905   1.507  1.00  0.00    -0.322 OA
HETATM   20  O   UNL     1      44.619 -22.352   3.391  1.00  0.00    -0.323 OA
HETATM   21  C   UNL     1      44.476 -20.587   5.059  1.00  0.00     0.048 A 
HETATM   22  C   UNL     1      44.447 -22.258   1.961  1.00  0.00     0.352 A 
ENDBRANCH  12  13
ENDBRANCH   1  12
TORSDOF 4
ENDMDL
MODEL 7
REMARK VINA RESULT:      -6.7      2.685      3.792
REMARK  4 active torsions:
REMARK  status: ('A' for Active; 'I' for Inactive)
REMARK    1  A    between atoms: O_2  and  C_3 
REMARK    2  A    between atoms: C_5  and  N_6 
REMARK    3  A    between atoms: N_6  and  C_7 
REMARK    4  A    between atoms: C_7  and  C_8 
ROOT
HETATM    1  N   UNL     1      43.275 -17.206   6.985  1.00  0.00    -0.372 N 
HETATM    2  H   UNL     1      42.673 -17.935   7.345  1.00  0.00     0.161 HD
ENDROOT
BRANCH   1   3
HETATM    3  C   UNL     1      42.729 -16.031   6.527  1.00  0.00     0.103 A 
HETATM    4  C   UNL     1      41.478 -15.909   5.906  1.00  0.00     0.085 A 
HETATM    5  C   UNL     1      41.029 -14.664   5.468  1.00  0.00     0.073 A 
HETATM    6  C   UNL     1      41.847 -13.553   5.624  1.00  0.00     0.053 A 
HETATM    7  C   UNL     1      43.083 -13.711   6.221  1.00  0.00     0.092 A 
HETATM    8  N   UNL     1      43.476 -14.920   6.642  1.00  0.00    -0.352 N 
HETATM    9  H   UNL     1      44.392 -15.013   7.068  1.00  0.00     0.166 HD
BRANCH   5  10
HETATM   10  O   UNL     1      39.834 -14.406   4.864  1.00  0.00    -0.356 OA
HETATM   11  C   UNL     1      39.786 -14.451   3.441  1.00  0.00     0.210 C 
ENDBRANCH   5  10
ENDBRANCH   1   3
BRANCH   1  12
HETATM   12  C   UNL     1      44.572 -17.713   6.541  1.00  0.00     0.160 C 
BRANCH  12  13
HETATM   13  C   UNL     1      44.431 -18.522   5.274  1.00  0.00    -0.036 A 
HETATM   14  C   UNL     1      44.068 -17.895   4.057  1.00  0.00     0.031 A 
HETATM   15  C   UNL     1      43.944 -18.635   2.877  1.00  0.00     0.047 A 
HETATM   16 BR   UNL     1      43.474 -17.766   1.270  1.00  0.00    -0.048 Br
HETATM   17  C   UNL     1      44.174 -19.994   2.925  1.00  0.00     0.122 A 
HETATM   18  C   UNL     1      44.518 -20.608   4.106  1.00  0.00     0.107 A 
HETATM   19  O   UNL     1      44.106 -20.879   1.893  1.00  0.00    -0.322 OA
HETATM   20  O   UNL     1      44.705 -21.947   3.964  1.00  0.00    -0.323 OA
HETATM   21  C   UNL     1      44.652 -19.909   5.289  1.00  0.00     0.048 A 
HETATM   22  C   UNL     1      44.402 -22.121   2.563  1.00  0.00     0.352 A 
ENDBRANCH  12  13
ENDBRANCH   1  12
TORSDOF 4
ENDMDL
MODEL 8
REMARK VINA RESULT:      -6.7      2.758      3.564
REMARK  4 active torsions:
REMARK  status: ('A' for Active; 'I' for Inactive)
REMARK    1  A    between atoms: O_2  and  C_3 
REMARK    2  A    between atoms: C_5  and  N_6 
REMARK    3  A    between atoms: N_6  and  C_7 
REMARK    4  A    between atoms: C_7  and  C_8 
ROOT
HETATM    1  N   UNL     1      40.983 -16.558   0.863  1.00  0.00    -0.372 N 
HETATM    2  H   UNL     1      40.807 -17.538   0.681  1.00  0.00     0.161 HD
ENDROOT
BRANCH   1   3
HETATM    3  C   UNL     1      41.182 -15.692  -0.186  1.00  0.00     0.103 A 
HETATM    4  C   UNL     1      41.750 -14.415  -0.083  1.00  0.00     0.085 A 
HETATM    5  C   UNL     1      41.891 -13.614  -1.216  1.00  0.00     0.073 A 
HETATM    6  C   UNL     1      41.432 -14.083  -2.440  1.00  0.00     0.053 A 
HETATM    7  C   UNL     1      40.858 -15.339  -2.504  1.00  0.00     0.092 A 
HETATM    8  N   UNL     1      40.752 -16.085  -1.397  1.00  0.00    -0.352 N 
HETATM    9  H   UNL     1      40.317 -16.999  -1.466  1.00  0.00     0.166 HD
BRANCH   5  10
HETATM   10  O   UNL     1      42.436 -12.365  -1.257  1.00  0.00    -0.356 OA
HETATM   11  C   UNL     1      42.485 -11.704  -2.518  1.00  0.00     0.210 C 
ENDBRANCH   5  10
ENDBRANCH   1   3
BRANCH   1  12
HETATM   12  C   UNL     1      41.498 -16.317   2.210  1.00  0.00     0.160 C 
BRANCH  12  13
HETATM   13  C   UNL     1      42.390 -17.451   2.657  1.00  0.00    -0.036 A 
HETATM   14  C   UNL     1      43.085 -17.375   3.889  1.00  0.00     0.031 A 
HETATM   15  C   UNL     1      43.906 -18.425   4.316  1.00  0.00     0.047 A 
HETATM   16 BR   UNL     1      44.806 -18.299   5.969  1.00  0.00    -0.048 Br
HETATM   17  C   UNL     1      44.031 -19.534   3.506  1.00  0.00     0.122 A 
HETATM   18  C   UNL     1      43.364 -19.607   2.306  1.00  0.00     0.107 A 
HETATM   19  O   UNL     1      44.773 -20.649   3.743  1.00  0.00    -0.322 OA
HETATM   20  O   UNL     1      43.606 -20.770   1.643  1.00  0.00    -0.323 OA
HETATM   21  C   UNL     1      42.545 -18.592   1.854  1.00  0.00     0.048 A 
HETATM   22  C   UNL     1      44.535 -21.412   2.543  1.00  0.00     0.352 A 
ENDBRANCH  12  13
ENDBRANCH   1  12
TORSDOF 4
ENDMDL
MODEL 9
REMARK VINA RESULT:      -6.7      2.103      2.910
REMARK  4 active torsions:
REMARK  status: ('A' for Active; 'I' for Inactive)
REMARK    1  A    between atoms: O_2  and  C_3 
REMARK    2  A    between atoms: C_5  and  N_6 
REMARK    3  A    between atoms: N_6  and  C_7 
REMARK    4  A    between atoms: C_7  and  C_8 
ROOT
HETATM    1  N   UNL     1      40.039 -16.799   1.989  1.00  0.00    -0.372 N 
HETATM    2  H   UNL     1      39.363 -17.543   2.110  1.00  0.00     0.161 HD
ENDROOT
BRANCH   1   3
HETATM    3  C   UNL     1      39.638 -15.488   2.082  1.00  0.00     0.103 A 
HETATM    4  C   UNL     1      40.011 -14.599   3.100  1.00  0.00     0.085 A 
HETATM    5  C   UNL     1      39.530 -13.290   3.101  1.00  0.00     0.073 A 
HETATM    6  C   UNL     1      38.654 -12.888   2.102  1.00  0.00     0.053 A 
HETATM    7  C   UNL     1      38.290 -13.794   1.125  1.00  0.00     0.092 A 
HETATM    8  N   UNL     1      38.782 -15.039   1.148  1.00  0.00    -0.352 N 
HETATM    9  H   UNL     1      38.492 -15.691   0.426  1.00  0.00     0.166 HD
BRANCH   5  10
HETATM   10  O   UNL     1      39.823 -12.326   4.019  1.00  0.00    -0.356 OA
HETATM   11  C   UNL     1      39.486 -10.979   3.698  1.00  0.00     0.210 C 
ENDBRANCH   5  10
ENDBRANCH   1   3
BRANCH   1  12
HETATM   12  C   UNL     1      41.218 -17.225   1.238  1.00  0.00     0.160 C 
BRANCH  12  13
HETATM   13  C   UNL     1      42.208 -17.925   2.138  1.00  0.00    -0.036 A 
HETATM   14  C   UNL     1      42.723 -19.197   1.789  1.00  0.00     0.031 A 
HETATM   15  C   UNL     1      43.647 -19.849   2.613  1.00  0.00     0.047 A 
HETATM   16 BR   UNL     1      44.325 -21.536   2.111  1.00  0.00    -0.048 Br
HETATM   17  C   UNL     1      44.041 -19.228   3.780  1.00  0.00     0.122 A 
HETATM   18  C   UNL     1      43.536 -17.997   4.127  1.00  0.00     0.107 A 
HETATM   19  O   UNL     1      44.923 -19.695   4.705  1.00  0.00    -0.322 OA
HETATM   20  O   UNL     1      44.034 -17.542   5.307  1.00  0.00    -0.323 OA
HETATM   21  C   UNL     1      42.625 -17.324   3.338  1.00  0.00     0.048 A 
HETATM   22  C   UNL     1      44.885 -18.643   5.691  1.00  0.00     0.352 A 
ENDBRANCH  12  13
ENDBRANCH   1  12
TORSDOF 4
ENDMDL
MODEL 10
REMARK VINA RESULT:      -6.6      2.816      3.891
REMARK  4 active torsions:
REMARK  status: ('A' for Active; 'I' for Inactive)
REMARK    1  A    between atoms: O_2  and  C_3 
REMARK    2  A    between atoms: C_5  and  N_6 
REMARK    3  A    between atoms: N_6  and  C_7 
REMARK    4  A    between atoms: C_7  and  C_8 
ROOT
HETATM    1  N   UNL     1      40.419 -16.101   5.651  1.00  0.00    -0.372 N 
HETATM    2  H   UNL     1      40.084 -16.824   5.026  1.00  0.00     0.161 HD
ENDROOT
BRANCH   1   3
HETATM    3  C   UNL     1      40.070 -14.790   5.431  1.00  0.00     0.103 A 
HETATM    4  C   UNL     1      39.930 -14.191   4.171  1.00  0.00     0.085 A 
HETATM    5  C   UNL     1      39.585 -12.845   4.067  1.00  0.00     0.073 A 
HETATM    6  C   UNL     1      39.415 -12.096   5.224  1.00  0.00     0.053 A 
HETATM    7  C   UNL     1      39.581 -12.711   6.450  1.00  0.00     0.092 A 
HETATM    8  N   UNL     1      39.898 -14.010   6.512  1.00  0.00    -0.352 N 
HETATM    9  H   UNL     1      40.026 -14.438   7.424  1.00  0.00     0.166 HD
BRANCH   5  10
HETATM   10  O   UNL     1      39.404 -12.147   2.910  1.00  0.00    -0.356 OA
HETATM   11  C   UNL     1      38.343 -11.198   2.867  1.00  0.00     0.210 C 
ENDBRANCH   5  10
ENDBRANCH   1   3
BRANCH   1  12
HETATM   12  C   UNL     1      41.621 -16.499   6.381  1.00  0.00     0.160 C 
BRANCH  12  13
HETATM   13  C   UNL     1      42.483 -17.414   5.545  1.00  0.00    -0.036 A 
HETATM   14  C   UNL     1      42.734 -17.119   4.183  1.00  0.00     0.031 A 
HETATM   15  C   UNL     1      43.539 -17.956   3.403  1.00  0.00     0.047 A 
HETATM   16 BR   UNL     1      43.866 -17.525   1.595  1.00  0.00    -0.048 Br
HETATM   17  C   UNL     1      44.076 -19.084   3.987  1.00  0.00     0.122 A 
HETATM   18  C   UNL     1      43.827 -19.379   5.306  1.00  0.00     0.107 A 
HETATM   19  O   UNL     1      44.878 -20.014   3.401  1.00  0.00    -0.322 OA
HETATM   20  O   UNL     1      44.436 -20.526   5.710  1.00  0.00    -0.323 OA
HETATM   21  C   UNL     1      43.040 -18.575   6.107  1.00  0.00     0.048 A 
HETATM   22  C   UNL     1      45.070 -20.947   4.483  1.00  0.00     0.352 A 
ENDBRANCH  12  13
ENDBRANCH   1  12
TORSDOF 4
ENDMDL
