MODEL 1
REMARK VINA RESULT:      -9.7      0.000      0.000
REMARK  4 active torsions:
REMARK  status: ('A' for Active; 'I' for Inactive)
REMARK    1  A    between atoms: C_4  and  N_5 
REMARK       I    between atoms: N_5  and  C_6 
REMARK       I    between atoms: C_6  and  N_7 
REMARK    2  A    between atoms: N_7  and  C_8 
REMARK    3  A    between atoms: C_8  and  C_9 
REMARK       I    between atoms: C_9  and  N_10 
REMARK    4  A    between atoms: N_10  and  C_11 
ROOT
HETATM    1  N   UNL     1      43.347 -15.070   6.904  1.00  0.00    -0.307 N 
HETATM    2  C   UNL     1      44.287 -14.074   6.940  1.00  0.00     0.321 C 
HETATM    3  N   UNL     1      44.389 -13.538   8.205  1.00  0.00    -0.334 N 
HETATM    4  O   UNL     1      44.983 -13.689   6.010  1.00  0.00    -0.247 OA
HETATM    5  H   UNL     1      43.211 -15.592   7.764  1.00  0.00     0.170 HD
HETATM    6  H   UNL     1      43.512 -13.473   8.705  1.00  0.00     0.164 HD
ENDROOT
BRANCH   3   7
HETATM    7  C   UNL     1      45.344 -12.475   8.441  1.00  0.00     0.227 C 
BRANCH   7   8
HETATM    8  C   UNL     1      44.817 -11.481   9.480  1.00  0.00     0.239 C 
HETATM    9  N   UNL     1      43.739 -11.970  10.184  1.00  0.00    -0.324 N 
HETATM   10  H   UNL     1      43.528 -12.968  10.094  1.00  0.00     0.169 HD
HETATM   11  O   UNL     1      45.379 -10.402   9.659  1.00  0.00    -0.271 OA
BRANCH   9  12
HETATM   12  C   UNL     1      42.929 -11.318  11.143  1.00  0.00     0.064 A 
HETATM   13  C   UNL     1      41.725 -10.772  10.664  1.00  0.00     0.093 A 
HETATM   14  C   UNL     1      40.882 -10.099  11.573  1.00  0.00    -0.005 A 
HETATM   15  N   UNL     1      41.401 -10.891   9.353  1.00  0.00    -0.258 NA
HETATM   16  C   UNL     1      39.684  -9.553  11.091  1.00  0.00     0.015 A 
HETATM   17  C   UNL     1      41.249  -9.978  12.923  1.00  0.00     0.014 A 
HETATM   18  C   UNL     1      39.354  -9.683   9.747  1.00  0.00     0.020 A 
HETATM   19  C   UNL     1      40.237 -10.356   8.927  1.00  0.00     0.117 A 
HETATM   20  C   UNL     1      42.448 -10.520  13.376  1.00  0.00     0.003 A 
HETATM   21  C   UNL     1      43.290 -11.187  12.487  1.00  0.00     0.032 A 
ENDBRANCH   9  12
ENDBRANCH   7   8
ENDBRANCH   3   7
BRANCH   1  22
HETATM   22  C   UNL     1      42.876 -15.745   5.752  1.00  0.00     0.066 A 
HETATM   23  C   UNL     1      41.859 -15.220   4.944  1.00  0.00     0.038 A 
HETATM   24  C   UNL     1      41.392 -15.935   3.838  1.00  0.00    -0.059 A 
HETATM   25  C   UNL     1      40.309 -15.369   2.968  1.00  0.00     0.048 C 
HETATM   26  C   UNL     1      41.984 -17.162   3.528  1.00  0.00     0.020 A 
HETATM   27  C   UNL     1      43.006 -17.693   4.335  1.00  0.00    -0.005 A 
HETATM   28  C   UNL     1      43.454 -16.992   5.475  1.00  0.00     0.093 A 
HETATM   29  C   UNL     1      43.609 -18.921   4.034  1.00  0.00     0.015 A 
HETATM   30  N   UNL     1      44.431 -17.484   6.278  1.00  0.00    -0.258 NA
HETATM   31  C   UNL     1      44.988 -18.671   5.950  1.00  0.00     0.117 A 
HETATM   32  C   UNL     1      44.618 -19.418   4.849  1.00  0.00     0.020 A 
ENDBRANCH   1  22
TORSDOF 4
ENDMDL
MODEL 2
REMARK VINA RESULT:      -9.7      0.754      2.460
REMARK  4 active torsions:
REMARK  status: ('A' for Active; 'I' for Inactive)
REMARK    1  A    between atoms: C_4  and  N_5 
REMARK       I    between atoms: N_5  and  C_6 
REMARK       I    between atoms: C_6  and  N_7 
REMARK    2  A    between atoms: N_7  and  C_8 
REMARK    3  A    between atoms: C_8  and  C_9 
REMARK       I    between atoms: C_9  and  N_10 
REMARK    4  A    between atoms: N_10  and  C_11 
ROOT
HETATM    1  N   UNL     1      43.644 -15.280   7.315  1.00  0.00    -0.307 N 
HETATM    2  C   UNL     1      44.526 -14.233   7.297  1.00  0.00     0.321 C 
HETATM    3  N   UNL     1      44.330 -13.404   8.379  1.00  0.00    -0.334 N 
HETATM    4  O   UNL     1      45.404 -14.028   6.468  1.00  0.00    -0.247 OA
HETATM    5  H   UNL     1      43.331 -15.590   8.230  1.00  0.00     0.170 HD
HETATM    6  H   UNL     1      43.362 -13.290   8.651  1.00  0.00     0.164 HD
ENDROOT
BRANCH   3   7
HETATM    7  C   UNL     1      45.181 -12.243   8.536  1.00  0.00     0.227 C 
BRANCH   7   8
HETATM    8  C   UNL     1      44.649 -11.312   9.631  1.00  0.00     0.239 C 
HETATM    9  N   UNL     1      43.570 -11.844  10.301  1.00  0.00    -0.324 N 
HETATM   10  H   UNL     1      43.361 -12.835  10.152  1.00  0.00     0.169 HD
HETATM   11  O   UNL     1      45.208 -10.245   9.875  1.00  0.00    -0.271 OA
BRANCH   9  12
HETATM   12  C   UNL     1      42.755 -11.251  11.294  1.00  0.00     0.064 A 
HETATM   13  C   UNL     1      41.503 -10.779  10.863  1.00  0.00     0.093 A 
HETATM   14  C   UNL     1      40.653 -10.167  11.808  1.00  0.00    -0.005 A 
HETATM   15  N   UNL     1      41.140 -10.909   9.564  1.00  0.00    -0.258 NA
HETATM   16  C   UNL     1      39.406  -9.695  11.373  1.00  0.00     0.015 A 
HETATM   17  C   UNL     1      41.059 -10.033  13.145  1.00  0.00     0.014 A 
HETATM   18  C   UNL     1      39.037  -9.836  10.041  1.00  0.00     0.020 A 
HETATM   19  C   UNL     1      39.930 -10.446   9.184  1.00  0.00     0.117 A 
HETATM   20  C   UNL     1      42.306 -10.501  13.550  1.00  0.00     0.003 A 
HETATM   21  C   UNL     1      43.155 -11.107  12.626  1.00  0.00     0.032 A 
ENDBRANCH   9  12
ENDBRANCH   7   8
ENDBRANCH   3   7
BRANCH   1  22
HETATM   22  C   UNL     1      43.458 -16.247   6.297  1.00  0.00     0.066 A 
HETATM   23  C   UNL     1      44.235 -17.410   6.225  1.00  0.00     0.038 A 
HETATM   24  C   UNL     1      44.050 -18.322   5.182  1.00  0.00    -0.059 A 
HETATM   25  C   UNL     1      44.875 -19.573   5.109  1.00  0.00     0.048 C 
HETATM   26  C   UNL     1      43.050 -18.074   4.238  1.00  0.00     0.020 A 
HETATM   27  C   UNL     1      42.268 -16.909   4.307  1.00  0.00    -0.005 A 
HETATM   28  C   UNL     1      42.477 -15.966   5.336  1.00  0.00     0.093 A 
HETATM   29  C   UNL     1      41.260 -16.650   3.367  1.00  0.00     0.015 A 
HETATM   30  N   UNL     1      41.743 -14.828   5.422  1.00  0.00    -0.258 NA
HETATM   31  C   UNL     1      40.780 -14.618   4.498  1.00  0.00     0.117 A 
HETATM   32  C   UNL     1      40.502 -15.490   3.463  1.00  0.00     0.020 A 
ENDBRANCH   1  22
TORSDOF 4
ENDMDL
MODEL 3
REMARK VINA RESULT:      -9.6      2.202      3.637
REMARK  4 active torsions:
REMARK  status: ('A' for Active; 'I' for Inactive)
REMARK    1  A    between atoms: C_4  and  N_5 
REMARK       I    between atoms: N_5  and  C_6 
REMARK       I    between atoms: C_6  and  N_7 
REMARK    2  A    between atoms: N_7  and  C_8 
REMARK    3  A    between atoms: C_8  and  C_9 
REMARK       I    between atoms: C_9  and  N_10 
REMARK    4  A    between atoms: N_10  and  C_11 
ROOT
HETATM    1  N   UNL     1      40.697 -15.586   5.952  1.00  0.00    -0.307 N 
HETATM    2  C   UNL     1      40.771 -14.222   5.854  1.00  0.00     0.321 C 
HETATM    3  N   UNL     1      39.723 -13.622   6.516  1.00  0.00    -0.334 N 
HETATM    4  O   UNL     1      41.641 -13.575   5.284  1.00  0.00    -0.247 OA
HETATM    5  H   UNL     1      40.259 -15.954   6.791  1.00  0.00     0.170 HD
HETATM    6  H   UNL     1      38.846 -14.122   6.454  1.00  0.00     0.164 HD
ENDROOT
BRANCH   3   7
HETATM    7  C   UNL     1      39.639 -12.176   6.531  1.00  0.00     0.227 C 
BRANCH   7   8
HETATM    8  C   UNL     1      39.913 -11.622   7.932  1.00  0.00     0.239 C 
HETATM    9  N   UNL     1      41.152 -11.030   8.036  1.00  0.00    -0.324 N 
HETATM   10  H   UNL     1      41.663 -10.847   7.168  1.00  0.00     0.169 HD
HETATM   11  O   UNL     1      39.053 -11.678   8.809  1.00  0.00    -0.271 OA
BRANCH   9  12
HETATM   12  C   UNL     1      41.795 -10.501   9.179  1.00  0.00     0.064 A 
HETATM   13  C   UNL     1      43.109 -10.945   9.408  1.00  0.00     0.093 A 
HETATM   14  C   UNL     1      43.796 -10.460  10.542  1.00  0.00    -0.005 A 
HETATM   15  N   UNL     1      43.685 -11.827   8.556  1.00  0.00    -0.258 NA
HETATM   16  C   UNL     1      45.105 -10.908  10.768  1.00  0.00     0.015 A 
HETATM   17  C   UNL     1      43.171  -9.558  11.416  1.00  0.00     0.014 A 
HETATM   18  C   UNL     1      45.692 -11.808   9.887  1.00  0.00     0.020 A 
HETATM   19  C   UNL     1      44.948 -12.233   8.805  1.00  0.00     0.117 A 
HETATM   20  C   UNL     1      41.867  -9.135  11.175  1.00  0.00     0.003 A 
HETATM   21  C   UNL     1      41.177  -9.607  10.059  1.00  0.00     0.032 A 
ENDBRANCH   9  12
ENDBRANCH   7   8
ENDBRANCH   3   7
BRANCH   1  22
HETATM   22  C   UNL     1      41.517 -16.528   5.284  1.00  0.00     0.066 A 
HETATM   23  C   UNL     1      41.382 -16.795   3.916  1.00  0.00     0.038 A 
HETATM   24  C   UNL     1      42.182 -17.760   3.300  1.00  0.00    -0.059 A 
HETATM   25  C   UNL     1      42.044 -18.040   1.832  1.00  0.00     0.048 C 
HETATM   26  C   UNL     1      43.147 -18.424   4.062  1.00  0.00     0.020 A 
HETATM   27  C   UNL     1      43.287 -18.159   5.435  1.00  0.00    -0.005 A 
HETATM   28  C   UNL     1      42.455 -17.212   6.070  1.00  0.00     0.093 A 
HETATM   29  C   UNL     1      44.253 -18.816   6.210  1.00  0.00     0.015 A 
HETATM   30  N   UNL     1      42.561 -16.943   7.395  1.00  0.00    -0.258 NA
HETATM   31  C   UNL     1      43.507 -17.596   8.105  1.00  0.00     0.117 A 
HETATM   32  C   UNL     1      44.369 -18.530   7.565  1.00  0.00     0.020 A 
ENDBRANCH   1  22
TORSDOF 4
ENDMDL
MODEL 4
REMARK VINA RESULT:      -9.4      2.333      4.116
REMARK  4 active torsions:
REMARK  status: ('A' for Active; 'I' for Inactive)
REMARK    1  A    between atoms: C_4  and  N_5 
REMARK       I    between atoms: N_5  and  C_6 
REMARK       I    between atoms: C_6  and  N_7 
REMARK    2  A    between atoms: N_7  and  C_8 
REMARK    3  A    between atoms: C_8  and  C_9 
REMARK       I    between atoms: C_9  and  N_10 
REMARK    4  A    between atoms: N_10  and  C_11 
ROOT
HETATM    1  N   UNL     1      40.607 -15.445   6.275  1.00  0.00    -0.307 N 
HETATM    2  C   UNL     1      40.805 -14.096   6.152  1.00  0.00     0.321 C 
HETATM    3  N   UNL     1      39.639 -13.402   6.390  1.00  0.00    -0.334 N 
HETATM    4  O   UNL     1      41.860 -13.531   5.891  1.00  0.00    -0.247 OA
HETATM    5  H   UNL     1      39.885 -15.737   6.926  1.00  0.00     0.170 HD
HETATM    6  H   UNL     1      38.802 -13.859   6.050  1.00  0.00     0.164 HD
ENDROOT
BRANCH   3   7
HETATM    7  C   UNL     1      39.656 -11.956   6.316  1.00  0.00     0.227 C 
BRANCH   7   8
HETATM    8  C   UNL     1      39.889 -11.336   7.698  1.00  0.00     0.239 C 
HETATM    9  N   UNL     1      41.199 -10.962   7.898  1.00  0.00    -0.324 N 
HETATM   10  H   UNL     1      41.817 -10.948   7.082  1.00  0.00     0.169 HD
HETATM   11  O   UNL     1      38.952 -11.164   8.475  1.00  0.00    -0.271 OA
BRANCH   9  12
HETATM   12  C   UNL     1      41.813 -10.454   9.066  1.00  0.00     0.064 A 
HETATM   13  C   UNL     1      43.093 -10.957   9.358  1.00  0.00     0.093 A 
HETATM   14  C   UNL     1      43.749 -10.495  10.519  1.00  0.00    -0.005 A 
HETATM   15  N   UNL     1      43.665 -11.871   8.538  1.00  0.00    -0.258 NA
HETATM   16  C   UNL     1      45.024 -11.002  10.808  1.00  0.00     0.015 A 
HETATM   17  C   UNL     1      43.128  -9.558  11.359  1.00  0.00     0.014 A 
HETATM   18  C   UNL     1      45.608 -11.935   9.960  1.00  0.00     0.020 A 
HETATM   19  C   UNL     1      44.896 -12.333   8.848  1.00  0.00     0.117 A 
HETATM   20  C   UNL     1      41.858  -9.077  11.055  1.00  0.00     0.003 A 
HETATM   21  C   UNL     1      41.198  -9.526   9.912  1.00  0.00     0.032 A 
ENDBRANCH   9  12
ENDBRANCH   7   8
ENDBRANCH   3   7
BRANCH   1  22
HETATM   22  C   UNL     1      41.537 -16.468   5.967  1.00  0.00     0.066 A 
HETATM   23  C   UNL     1      42.349 -17.055   6.946  1.00  0.00     0.038 A 
HETATM   24  C   UNL     1      43.284 -18.033   6.598  1.00  0.00    -0.059 A 
HETATM   25  C   UNL     1      44.148 -18.668   7.647  1.00  0.00     0.048 C 
HETATM   26  C   UNL     1      43.365 -18.445   5.265  1.00  0.00     0.020 A 
HETATM   27  C   UNL     1      42.551 -17.860   4.280  1.00  0.00    -0.005 A 
HETATM   28  C   UNL     1      41.633 -16.845   4.620  1.00  0.00     0.093 A 
HETATM   29  C   UNL     1      42.622 -18.267   2.940  1.00  0.00     0.015 A 
HETATM   30  N   UNL     1      40.842 -16.255   3.689  1.00  0.00    -0.258 NA
HETATM   31  C   UNL     1      40.939 -16.679   2.409  1.00  0.00     0.117 A 
HETATM   32  C   UNL     1      41.802 -17.671   1.989  1.00  0.00     0.020 A 
ENDBRANCH   1  22
TORSDOF 4
ENDMDL
MODEL 5
REMARK VINA RESULT:      -9.4      1.780      2.763
REMARK  4 active torsions:
REMARK  status: ('A' for Active; 'I' for Inactive)
REMARK    1  A    between atoms: C_4  and  N_5 
REMARK       I    between atoms: N_5  and  C_6 
REMARK       I    between atoms: C_6  and  N_7 
REMARK    2  A    between atoms: N_7  and  C_8 
REMARK    3  A    between atoms: C_8  and  C_9 
REMARK       I    between atoms: C_9  and  N_10 
REMARK    4  A    between atoms: N_10  and  C_11 
ROOT
HETATM    1  N   UNL     1      41.318 -14.619   5.847  1.00  0.00    -0.307 N 
HETATM    2  C   UNL     1      41.400 -13.280   5.570  1.00  0.00     0.321 C 
HETATM    3  N   UNL     1      40.786 -12.535   6.552  1.00  0.00    -0.334 N 
HETATM    4  O   UNL     1      41.952 -12.764   4.606  1.00  0.00    -0.247 OA
HETATM    5  H   UNL     1      41.285 -14.874   6.830  1.00  0.00     0.170 HD
HETATM    6  H   UNL     1      39.952 -12.956   6.940  1.00  0.00     0.164 HD
ENDROOT
BRANCH   3   7
HETATM    7  C   UNL     1      40.782 -11.091   6.436  1.00  0.00     0.227 C 
BRANCH   7   8
HETATM    8  C   UNL     1      41.728 -10.453   7.458  1.00  0.00     0.239 C 
HETATM    9  N   UNL     1      42.180 -11.353   8.397  1.00  0.00    -0.324 N 
HETATM   10  H   UNL     1      42.013 -12.347   8.219  1.00  0.00     0.169 HD
HETATM   11  O   UNL     1      42.056  -9.272   7.358  1.00  0.00    -0.271 OA
BRANCH   9  12
HETATM   12  C   UNL     1      42.978 -11.123   9.542  1.00  0.00     0.064 A 
HETATM   13  C   UNL     1      42.289 -11.026  10.764  1.00  0.00     0.093 A 
HETATM   14  C   UNL     1      43.032 -10.785  11.939  1.00  0.00    -0.005 A 
HETATM   15  N   UNL     1      40.940 -11.155  10.793  1.00  0.00    -0.258 NA
HETATM   16  C   UNL     1      42.340 -10.686  13.154  1.00  0.00     0.015 A 
HETATM   17  C   UNL     1      44.427 -10.642  11.878  1.00  0.00     0.014 A 
HETATM   18  C   UNL     1      40.957 -10.824  13.179  1.00  0.00     0.020 A 
HETATM   19  C   UNL     1      40.310 -11.057  11.983  1.00  0.00     0.117 A 
HETATM   20  C   UNL     1      45.089 -10.734  10.658  1.00  0.00     0.003 A 
HETATM   21  C   UNL     1      44.367 -10.972   9.490  1.00  0.00     0.032 A 
ENDBRANCH   9  12
ENDBRANCH   7   8
ENDBRANCH   3   7
BRANCH   1  22
HETATM   22  C   UNL     1      41.710 -15.684   5.000  1.00  0.00     0.066 A 
HETATM   23  C   UNL     1      41.059 -15.950   3.789  1.00  0.00     0.038 A 
HETATM   24  C   UNL     1      41.449 -17.035   2.998  1.00  0.00    -0.059 A 
HETATM   25  C   UNL     1      40.758 -17.315   1.697  1.00  0.00     0.048 C 
HETATM   26  C   UNL     1      42.524 -17.823   3.416  1.00  0.00     0.020 A 
HETATM   27  C   UNL     1      43.181 -17.559   4.631  1.00  0.00    -0.005 A 
HETATM   28  C   UNL     1      42.766 -16.488   5.451  1.00  0.00     0.093 A 
HETATM   29  C   UNL     1      44.262 -18.341   5.060  1.00  0.00     0.015 A 
HETATM   30  N   UNL     1      43.375 -16.216   6.632  1.00  0.00    -0.258 NA
HETATM   31  C   UNL     1      44.415 -16.992   7.008  1.00  0.00     0.117 A 
HETATM   32  C   UNL     1      44.893 -18.053   6.264  1.00  0.00     0.020 A 
ENDBRANCH   1  22
TORSDOF 4
ENDMDL
MODEL 6
REMARK VINA RESULT:      -9.4      5.585      9.367
REMARK  4 active torsions:
REMARK  status: ('A' for Active; 'I' for Inactive)
REMARK    1  A    between atoms: C_4  and  N_5 
REMARK       I    between atoms: N_5  and  C_6 
REMARK       I    between atoms: C_6  and  N_7 
REMARK    2  A    between atoms: N_7  and  C_8 
REMARK    3  A    between atoms: C_8  and  C_9 
REMARK       I    between atoms: C_9  and  N_10 
REMARK    4  A    between atoms: N_10  and  C_11 
ROOT
HETATM    1  N   UNL     1      41.150 -17.265   4.034  1.00  0.00    -0.307 N 
HETATM    2  C   UNL     1      41.109 -15.986   3.546  1.00  0.00     0.321 C 
HETATM    3  N   UNL     1      39.813 -15.595   3.294  1.00  0.00    -0.334 N 
HETATM    4  O   UNL     1      42.064 -15.242   3.360  1.00  0.00    -0.247 OA
HETATM    5  H   UNL     1      40.341 -17.568   4.569  1.00  0.00     0.170 HD
HETATM    6  H   UNL     1      39.214 -16.329   2.938  1.00  0.00     0.164 HD
ENDROOT
BRANCH   3   7
HETATM    7  C   UNL     1      39.570 -14.262   2.781  1.00  0.00     0.227 C 
BRANCH   7   8
HETATM    8  C   UNL     1      39.484 -14.267   1.252  1.00  0.00     0.239 C 
HETATM    9  N   UNL     1      40.718 -14.386   0.651  1.00  0.00    -0.324 N 
HETATM   10  H   UNL     1      41.510 -14.646   1.245  1.00  0.00     0.169 HD
HETATM   11  O   UNL     1      38.394 -14.228   0.684  1.00  0.00    -0.271 OA
BRANCH   9  12
HETATM   12  C   UNL     1      41.050 -14.329  -0.722  1.00  0.00     0.064 A 
HETATM   13  C   UNL     1      41.688 -13.152  -1.154  1.00  0.00     0.093 A 
HETATM   14  C   UNL     1      42.032 -13.034  -2.517  1.00  0.00    -0.005 A 
HETATM   15  N   UNL     1      41.949 -12.159  -0.270  1.00  0.00    -0.258 NA
HETATM   16  C   UNL     1      42.664 -11.858  -2.944  1.00  0.00     0.015 A 
HETATM   17  C   UNL     1      41.737 -14.072  -3.415  1.00  0.00     0.014 A 
HETATM   18  C   UNL     1      42.935 -10.846  -2.031  1.00  0.00     0.020 A 
HETATM   19  C   UNL     1      42.563 -11.043  -0.717  1.00  0.00     0.117 A 
HETATM   20  C   UNL     1      41.100 -15.226  -2.969  1.00  0.00     0.003 A 
HETATM   21  C   UNL     1      40.754 -15.355  -1.625  1.00  0.00     0.032 A 
ENDBRANCH   9  12
ENDBRANCH   7   8
ENDBRANCH   3   7
BRANCH   1  22
HETATM   22  C   UNL     1      42.309 -18.043   4.271  1.00  0.00     0.066 A 
HETATM   23  C   UNL     1      42.901 -18.822   3.269  1.00  0.00     0.038 A 
HETATM   24  C   UNL     1      44.021 -19.608   3.551  1.00  0.00    -0.059 A 
HETATM   25  C   UNL     1      44.661 -20.435   2.476  1.00  0.00     0.048 C 
HETATM   26  C   UNL     1      44.564 -19.572   4.839  1.00  0.00     0.020 A 
HETATM   27  C   UNL     1      43.974 -18.791   5.847  1.00  0.00    -0.005 A 
HETATM   28  C   UNL     1      42.820 -18.026   5.577  1.00  0.00     0.093 A 
HETATM   29  C   UNL     1      44.510 -18.745   7.142  1.00  0.00     0.015 A 
HETATM   30  N   UNL     1      42.223 -17.270   6.533  1.00  0.00    -0.258 NA
HETATM   31  C   UNL     1      42.774 -17.251   7.767  1.00  0.00     0.117 A 
HETATM   32  C   UNL     1      43.905 -17.962   8.117  1.00  0.00     0.020 A 
ENDBRANCH   1  22
TORSDOF 4
ENDMDL
MODEL 7
REMARK VINA RESULT:      -9.3      6.019      9.336
REMARK  4 active torsions:
REMARK  status: ('A' for Active; 'I' for Inactive)
REMARK    1  A    between atoms: C_4  and  N_5 
REMARK       I    between atoms: N_5  and  C_6 
REMARK       I    between atoms: C_6  and  N_7 
REMARK    2  A    between atoms: N_7  and  C_8 
REMARK    3  A    between atoms: C_8  and  C_9 
REMARK       I    between atoms: C_9  and  N_10 
REMARK    4  A    between atoms: N_10  and  C_11 
ROOT
HETATM    1  N   UNL     1      41.028 -17.068   4.441  1.00  0.00    -0.307 N 
HETATM    2  C   UNL     1      41.029 -15.772   3.996  1.00  0.00     0.321 C 
HETATM    3  N   UNL     1      39.840 -15.465   3.372  1.00  0.00    -0.334 N 
HETATM    4  O   UNL     1      41.929 -14.953   4.128  1.00  0.00    -0.247 OA
HETATM    5  H   UNL     1      40.125 -17.455   4.698  1.00  0.00     0.170 HD
HETATM    6  H   UNL     1      39.441 -16.222   2.833  1.00  0.00     0.164 HD
ENDROOT
BRANCH   3   7
HETATM    7  C   UNL     1      39.652 -14.130   2.842  1.00  0.00     0.227 C 
BRANCH   7   8
HETATM    8  C   UNL     1      39.544 -14.153   1.314  1.00  0.00     0.239 C 
HETATM    9  N   UNL     1      40.762 -14.343   0.700  1.00  0.00    -0.324 N 
HETATM   10  H   UNL     1      41.549 -14.635   1.287  1.00  0.00     0.169 HD
HETATM   11  O   UNL     1      38.451 -14.066   0.760  1.00  0.00    -0.271 OA
BRANCH   9  12
HETATM   12  C   UNL     1      41.079 -14.322  -0.679  1.00  0.00     0.064 A 
HETATM   13  C   UNL     1      41.702 -13.154  -1.151  1.00  0.00     0.093 A 
HETATM   14  C   UNL     1      42.030 -13.073  -2.521  1.00  0.00    -0.005 A 
HETATM   15  N   UNL     1      41.966 -12.135  -0.298  1.00  0.00    -0.258 NA
HETATM   16  C   UNL     1      42.648 -11.904  -2.988  1.00  0.00     0.015 A 
HETATM   17  C   UNL     1      41.732 -14.138  -3.385  1.00  0.00     0.014 A 
HETATM   18  C   UNL     1      42.922 -10.865  -2.108  1.00  0.00     0.020 A 
HETATM   19  C   UNL     1      42.566 -11.027  -0.785  1.00  0.00     0.117 A 
HETATM   20  C   UNL     1      41.109 -15.283  -2.899  1.00  0.00     0.003 A 
HETATM   21  C   UNL     1      40.780 -15.376  -1.548  1.00  0.00     0.032 A 
ENDBRANCH   9  12
ENDBRANCH   7   8
ENDBRANCH   3   7
BRANCH   1  22
HETATM   22  C   UNL     1      42.124 -17.770   5.000  1.00  0.00     0.066 A 
HETATM   23  C   UNL     1      42.482 -17.641   6.348  1.00  0.00     0.038 A 
HETATM   24  C   UNL     1      43.594 -18.319   6.854  1.00  0.00    -0.059 A 
HETATM   25  C   UNL     1      43.973 -18.187   8.300  1.00  0.00     0.048 C 
HETATM   26  C   UNL     1      44.316 -19.161   6.004  1.00  0.00     0.020 A 
HETATM   27  C   UNL     1      43.959 -19.295   4.651  1.00  0.00    -0.005 A 
HETATM   28  C   UNL     1      42.861 -18.582   4.126  1.00  0.00     0.093 A 
HETATM   29  C   UNL     1      44.674 -20.137   3.789  1.00  0.00     0.015 A 
HETATM   30  N   UNL     1      42.499 -18.684   2.822  1.00  0.00    -0.258 NA
HETATM   31  C   UNL     1      43.213 -19.509   2.026  1.00  0.00     0.117 A 
HETATM   32  C   UNL     1      44.295 -20.251   2.456  1.00  0.00     0.020 A 
ENDBRANCH   1  22
TORSDOF 4
ENDMDL
MODEL 8
REMARK VINA RESULT:      -9.2      5.319      7.437
REMARK  4 active torsions:
REMARK  status: ('A' for Active; 'I' for Inactive)
REMARK    1  A    between atoms: C_4  and  N_5 
REMARK       I    between atoms: N_5  and  C_6 
REMARK       I    between atoms: C_6  and  N_7 
REMARK    2  A    between atoms: N_7  and  C_8 
REMARK    3  A    between atoms: C_8  and  C_9 
REMARK       I    between atoms: C_9  and  N_10 
REMARK    4  A    between atoms: N_10  and  C_11 
ROOT
HETATM    1  N   UNL     1      43.625 -17.885   1.936  1.00  0.00    -0.307 N 
HETATM    2  C   UNL     1      42.416 -17.360   1.565  1.00  0.00     0.321 C 
HETATM    3  N   UNL     1      42.503 -16.737   0.340  1.00  0.00    -0.334 N 
HETATM    4  O   UNL     1      41.365 -17.427   2.191  1.00  0.00    -0.247 OA
HETATM    5  H   UNL     1      44.239 -18.179   1.182  1.00  0.00     0.170 HD
HETATM    6  H   UNL     1      43.376 -16.252   0.177  1.00  0.00     0.164 HD
ENDROOT
BRANCH   3   7
HETATM    7  C   UNL     1      41.316 -16.129  -0.223  1.00  0.00     0.227 C 
BRANCH   7   8
HETATM    8  C   UNL     1      41.098 -14.720   0.338  1.00  0.00     0.239 C 
HETATM    9  N   UNL     1      40.043 -14.658   1.221  1.00  0.00    -0.324 N 
HETATM   10  H   UNL     1      39.652 -15.543   1.555  1.00  0.00     0.169 HD
HETATM   11  O   UNL     1      41.857 -13.801   0.038  1.00  0.00    -0.271 OA
BRANCH   9  12
HETATM   12  C   UNL     1      39.480 -13.528   1.859  1.00  0.00     0.064 A 
HETATM   13  C   UNL     1      39.669 -13.448   3.250  1.00  0.00     0.093 A 
HETATM   14  C   UNL     1      39.118 -12.349   3.942  1.00  0.00    -0.005 A 
HETATM   15  N   UNL     1      40.360 -14.418   3.897  1.00  0.00    -0.258 NA
HETATM   16  C   UNL     1      39.307 -12.274   5.329  1.00  0.00     0.015 A 
HETATM   17  C   UNL     1      38.395 -11.365   3.249  1.00  0.00     0.014 A 
HETATM   18  C   UNL     1      40.021 -13.268   5.987  1.00  0.00     0.020 A 
HETATM   19  C   UNL     1      40.524 -14.309   5.233  1.00  0.00     0.117 A 
HETATM   20  C   UNL     1      38.214 -11.467   1.873  1.00  0.00     0.003 A 
HETATM   21  C   UNL     1      38.752 -12.548   1.178  1.00  0.00     0.032 A 
ENDBRANCH   9  12
ENDBRANCH   7   8
ENDBRANCH   3   7
BRANCH   1  22
HETATM   22  C   UNL     1      43.946 -18.470   3.185  1.00  0.00     0.066 A 
HETATM   23  C   UNL     1      44.050 -17.711   4.358  1.00  0.00     0.038 A 
HETATM   24  C   UNL     1      44.408 -18.317   5.565  1.00  0.00    -0.059 A 
HETATM   25  C   UNL     1      44.511 -17.505   6.823  1.00  0.00     0.048 C 
HETATM   26  C   UNL     1      44.620 -19.698   5.590  1.00  0.00     0.020 A 
HETATM   27  C   UNL     1      44.516 -20.464   4.417  1.00  0.00    -0.005 A 
HETATM   28  C   UNL     1      44.192 -19.850   3.188  1.00  0.00     0.093 A 
HETATM   29  C   UNL     1      44.724 -21.850   4.430  1.00  0.00     0.015 A 
HETATM   30  N   UNL     1      44.094 -20.563   2.037  1.00  0.00    -0.258 NA
HETATM   31  C   UNL     1      44.299 -21.897   2.094  1.00  0.00     0.117 A 
HETATM   32  C   UNL     1      44.611 -22.580   3.253  1.00  0.00     0.020 A 
ENDBRANCH   1  22
TORSDOF 4
ENDMDL
MODEL 9
REMARK VINA RESULT:      -9.2      1.302      2.305
REMARK  4 active torsions:
REMARK  status: ('A' for Active; 'I' for Inactive)
REMARK    1  A    between atoms: C_4  and  N_5 
REMARK       I    between atoms: N_5  and  C_6 
REMARK       I    between atoms: C_6  and  N_7 
REMARK    2  A    between atoms: N_7  and  C_8 
REMARK    3  A    between atoms: C_8  and  C_9 
REMARK       I    between atoms: C_9  and  N_10 
REMARK    4  A    between atoms: N_10  and  C_11 
ROOT
HETATM    1  N   UNL     1      43.526 -14.873   6.806  1.00  0.00    -0.307 N 
HETATM    2  C   UNL     1      44.585 -14.114   7.227  1.00  0.00     0.321 C 
HETATM    3  N   UNL     1      44.327 -13.546   8.455  1.00  0.00    -0.334 N 
HETATM    4  O   UNL     1      45.647 -13.949   6.640  1.00  0.00    -0.247 OA
HETATM    5  H   UNL     1      42.962 -15.302   7.533  1.00  0.00     0.170 HD
HETATM    6  H   UNL     1      43.368 -13.257   8.590  1.00  0.00     0.164 HD
ENDROOT
BRANCH   3   7
HETATM    7  C   UNL     1      45.342 -12.714   9.068  1.00  0.00     0.227 C 
BRANCH   7   8
HETATM    8  C   UNL     1      44.800 -11.312   9.366  1.00  0.00     0.239 C 
HETATM    9  N   UNL     1      43.458 -11.317   9.675  1.00  0.00    -0.324 N 
HETATM   10  H   UNL     1      43.018 -12.222   9.862  1.00  0.00     0.169 HD
HETATM   11  O   UNL     1      45.549 -10.337   9.372  1.00  0.00    -0.271 OA
BRANCH   9  12
HETATM   12  C   UNL     1      42.592 -10.223   9.907  1.00  0.00     0.064 A 
HETATM   13  C   UNL     1      42.622  -9.678  11.202  1.00  0.00     0.093 A 
HETATM   14  C   UNL     1      41.769  -8.592  11.496  1.00  0.00    -0.005 A 
HETATM   15  N   UNL     1      43.448 -10.201  12.139  1.00  0.00    -0.258 NA
HETATM   16  C   UNL     1      41.800  -8.054  12.790  1.00  0.00     0.015 A 
HETATM   17  C   UNL     1      40.912  -8.078  10.510  1.00  0.00     0.014 A 
HETATM   18  C   UNL     1      42.654  -8.591  13.745  1.00  0.00     0.020 A 
HETATM   19  C   UNL     1      43.452  -9.653  13.374  1.00  0.00     0.117 A 
HETATM   20  C   UNL     1      40.894  -8.636   9.235  1.00  0.00     0.003 A 
HETATM   21  C   UNL     1      41.730  -9.709   8.933  1.00  0.00     0.032 A 
ENDBRANCH   9  12
ENDBRANCH   7   8
ENDBRANCH   3   7
BRANCH   1  22
HETATM   22  C   UNL     1      43.376 -15.489   5.539  1.00  0.00     0.066 A 
HETATM   23  C   UNL     1      42.919 -14.784   4.418  1.00  0.00     0.038 A 
HETATM   24  C   UNL     1      42.746 -15.435   3.194  1.00  0.00    -0.059 A 
HETATM   25  C   UNL     1      42.264 -14.679   1.991  1.00  0.00     0.048 C 
HETATM   26  C   UNL     1      43.077 -16.789   3.097  1.00  0.00     0.020 A 
HETATM   27  C   UNL     1      43.538 -17.500   4.219  1.00  0.00    -0.005 A 
HETATM   28  C   UNL     1      43.677 -16.856   5.466  1.00  0.00     0.093 A 
HETATM   29  C   UNL     1      43.876 -18.858   4.133  1.00  0.00     0.015 A 
HETATM   30  N   UNL     1      44.111 -17.519   6.568  1.00  0.00    -0.258 NA
HETATM   31  C   UNL     1      44.429 -18.826   6.442  1.00  0.00     0.117 A 
HETATM   32  C   UNL     1      44.331 -19.532   5.260  1.00  0.00     0.020 A 
ENDBRANCH   1  22
TORSDOF 4
ENDMDL
MODEL 10
REMARK VINA RESULT:      -9.1      5.067      7.256
REMARK  4 active torsions:
REMARK  status: ('A' for Active; 'I' for Inactive)
REMARK    1  A    between atoms: C_4  and  N_5 
REMARK       I    between atoms: N_5  and  C_6 
REMARK       I    between atoms: C_6  and  N_7 
REMARK    2  A    between atoms: N_7  and  C_8 
REMARK    3  A    between atoms: C_8  and  C_9 
REMARK       I    between atoms: C_9  and  N_10 
REMARK    4  A    between atoms: N_10  and  C_11 
ROOT
HETATM    1  N   UNL     1      41.785 -17.908   1.899  1.00  0.00    -0.307 N 
HETATM    2  C   UNL     1      42.017 -16.844   1.068  1.00  0.00     0.321 C 
HETATM    3  N   UNL     1      40.840 -16.371   0.531  1.00  0.00    -0.334 N 
HETATM    4  O   UNL     1      43.101 -16.332   0.819  1.00  0.00    -0.247 OA
HETATM    5  H   UNL     1      40.888 -17.920   2.375  1.00  0.00     0.170 HD
HETATM    6  H   UNL     1      40.159 -17.087   0.315  1.00  0.00     0.164 HD
ENDROOT
BRANCH   3   7
HETATM    7  C   UNL     1      40.886 -15.236  -0.367  1.00  0.00     0.227 C 
BRANCH   7   8
HETATM    8  C   UNL     1      40.770 -13.917   0.404  1.00  0.00     0.239 C 
HETATM    9  N   UNL     1      39.750 -13.932   1.330  1.00  0.00    -0.324 N 
HETATM   10  H   UNL     1      39.319 -14.835   1.546  1.00  0.00     0.169 HD
HETATM   11  O   UNL     1      41.571 -13.005   0.213  1.00  0.00    -0.271 OA
BRANCH   9  12
HETATM   12  C   UNL     1      39.275 -12.882   2.150  1.00  0.00     0.064 A 
HETATM   13  C   UNL     1      39.521 -13.017   3.528  1.00  0.00     0.093 A 
HETATM   14  C   UNL     1      39.058 -12.006   4.397  1.00  0.00    -0.005 A 
HETATM   15  N   UNL     1      40.180 -14.105   3.995  1.00  0.00    -0.258 NA
HETATM   16  C   UNL     1      39.303 -12.147   5.770  1.00  0.00     0.015 A 
HETATM   17  C   UNL     1      38.366 -10.897   3.888  1.00  0.00     0.014 A 
HETATM   18  C   UNL     1      39.984 -13.262   6.243  1.00  0.00     0.020 A 
HETATM   19  C   UNL     1      40.400 -14.203   5.324  1.00  0.00     0.117 A 
HETATM   20  C   UNL     1      38.127 -10.785   2.521  1.00  0.00     0.003 A 
HETATM   21  C   UNL     1      38.578 -11.777   1.652  1.00  0.00     0.032 A 
ENDBRANCH   9  12
ENDBRANCH   7   8
ENDBRANCH   3   7
BRANCH   1  22
HETATM   22  C   UNL     1      42.760 -18.732   2.511  1.00  0.00     0.066 A 
HETATM   23  C   UNL     1      43.192 -19.931   1.932  1.00  0.00     0.038 A 
HETATM   24  C   UNL     1      44.127 -20.738   2.586  1.00  0.00    -0.059 A 
HETATM   25  C   UNL     1      44.596 -22.019   1.962  1.00  0.00     0.048 C 
HETATM   26  C   UNL     1      44.655 -20.306   3.806  1.00  0.00     0.020 A 
HETATM   27  C   UNL     1      44.225 -19.102   4.391  1.00  0.00    -0.005 A 
HETATM   28  C   UNL     1      43.253 -18.304   3.753  1.00  0.00     0.093 A 
HETATM   29  C   UNL     1      44.749 -18.658   5.613  1.00  0.00     0.015 A 
HETATM   30  N   UNL     1      42.812 -17.142   4.298  1.00  0.00    -0.258 NA
HETATM   31  C   UNL     1      43.345 -16.748   5.475  1.00  0.00     0.117 A 
HETATM   32  C   UNL     1      44.306 -17.462   6.164  1.00  0.00     0.020 A 
ENDBRANCH   1  22
TORSDOF 4
ENDMDL
