MODEL 1
REMARK VINA RESULT:      -9.4      0.000      0.000
REMARK  7 active torsions:
REMARK  status: ('A' for Active; 'I' for Inactive)
REMARK    1  A    between atoms: C_7  and  C_8 
REMARK    2  A    between atoms: C_8  and  N_9 
REMARK    3  A    between atoms: C_13  and  C_14 
REMARK    4  A    between atoms: C_14  and  C_15 
REMARK    5  A    between atoms: C_15  and  C_16 
REMARK    6  A    between atoms: N_26  and  C_27 
REMARK    7  A    between atoms: C_27  and  C_28 
ROOT
HETATM    1  C   UNL     1      42.233 -17.185   3.132  1.00  0.00     0.123 C 
HETATM    2  N   UNL     1      41.636 -17.630   4.381  1.00  0.00    -0.324 N 
HETATM    3  C   UNL     1      41.797 -16.733   5.412  1.00  0.00     0.326 C 
HETATM    4  O   UNL     1      41.517 -16.971   6.571  1.00  0.00    -0.247 OA
HETATM    5  N   UNL     1      42.273 -15.575   4.892  1.00  0.00    -0.268 N 
HETATM    6  C   UNL     1      42.460 -15.712   3.553  1.00  0.00     0.257 C 
HETATM    7  O   UNL     1      42.777 -14.811   2.788  1.00  0.00    -0.270 OA
HETATM    8  H   UNL     1      41.463 -18.603   4.620  1.00  0.00     0.165 HD
ENDROOT
BRANCH   1   9
HETATM    9  C   UNL     1      41.242 -17.393   1.940  1.00  0.00     0.027 C 
HETATM   10  C   UNL     1      41.732 -17.026   0.532  1.00  0.00     0.035 C 
HETATM   11  C   UNL     1      41.673 -15.553   0.148  1.00  0.00     0.235 C 
HETATM   12  N   UNL     1      40.403 -14.859   0.581  1.00  0.00    -0.067 N 
HETATM   13  H   UNL     1      39.705 -15.056  -0.146  1.00  0.00     0.280 HD
HETATM   14  C   UNL     1      39.807 -15.267   1.902  1.00  0.00     0.235 C 
HETATM   15  C   UNL     1      39.846 -16.768   2.114  1.00  0.00     0.035 C 
BRANCH  12  16
HETATM   16  C   UNL     1      40.581 -13.341   0.584  1.00  0.00     0.277 C 
BRANCH  16  17
HETATM   17  C   UNL     1      41.305 -12.792  -0.585  1.00  0.00     0.011 A 
HETATM   18  C   UNL     1      40.979 -12.855  -1.934  1.00  0.00     0.035 A 
HETATM   19  C   UNL     1      39.819 -13.472  -2.629  1.00  0.00     0.070 C 
HETATM   20  N   UNL     1      41.942 -12.117  -2.585  1.00  0.00    -0.278 N 
HETATM   21  C   UNL     1      42.018 -11.757  -3.983  1.00  0.00     0.179 C 
HETATM   22  N   UNL     1      42.878 -11.630  -1.752  1.00  0.00    -0.185 NA
HETATM   23  C   UNL     1      42.471 -11.996  -0.544  1.00  0.00     0.149 A 
ENDBRANCH  16  17
ENDBRANCH  12  16
ENDBRANCH   1   9
BRANCH   1  24
HETATM   24  C   UNL     1      43.668 -17.778   2.959  1.00  0.00     0.082 C 
BRANCH  24  25
HETATM   25  C   UNL     1      43.946 -19.258   3.161  1.00  0.00    -0.034 A 
HETATM   26  C   UNL     1      44.568 -19.825   4.287  1.00  0.00     0.040 A 
HETATM   27 CL   UNL     1      45.058 -18.902   5.655  1.00  0.00    -0.084 Cl
HETATM   28  C   UNL     1      44.864 -21.195   4.330  1.00  0.00     0.024 A 
HETATM   29  C   UNL     1      44.572 -22.020   3.247  1.00  0.00     0.002 A 
HETATM   30  C   UNL     1      43.980 -21.479   2.114  1.00  0.00     0.001 A 
HETATM   31  C   UNL     1      43.673 -20.116   2.072  1.00  0.00     0.009 A 
ENDBRANCH  24  25
ENDBRANCH   1  24
BRANCH   5  32
HETATM   32  C   UNL     1      42.522 -14.369   5.653  1.00  0.00     0.141 C 
BRANCH  32  33
HETATM   33  C   UNL     1      43.983 -14.253   5.970  1.00  0.00     0.004 A 
HETATM   34  C   UNL     1      44.460 -13.705   7.293  1.00  0.00     0.007 A 
HETATM   35  C   UNL     1      44.612 -15.169   6.989  1.00  0.00     0.007 A 
ENDBRANCH  32  33
ENDBRANCH   5  32
TORSDOF 7
ENDMDL
MODEL 2
REMARK VINA RESULT:      -9.3      1.721      2.370
REMARK  7 active torsions:
REMARK  status: ('A' for Active; 'I' for Inactive)
REMARK    1  A    between atoms: C_7  and  C_8 
REMARK    2  A    between atoms: C_8  and  N_9 
REMARK    3  A    between atoms: C_13  and  C_14 
REMARK    4  A    between atoms: C_14  and  C_15 
REMARK    5  A    between atoms: C_15  and  C_16 
REMARK    6  A    between atoms: N_26  and  C_27 
REMARK    7  A    between atoms: C_27  and  C_28 
ROOT
HETATM    1  C   UNL     1      42.246 -17.134   3.033  1.00  0.00     0.123 C 
HETATM    2  N   UNL     1      41.619 -17.609   4.256  1.00  0.00    -0.324 N 
HETATM    3  C   UNL     1      41.786 -16.755   5.322  1.00  0.00     0.326 C 
HETATM    4  O   UNL     1      41.483 -17.028   6.467  1.00  0.00    -0.247 OA
HETATM    5  N   UNL     1      42.297 -15.591   4.852  1.00  0.00    -0.268 N 
HETATM    6  C   UNL     1      42.501 -15.683   3.511  1.00  0.00     0.257 C 
HETATM    7  O   UNL     1      42.851 -14.763   2.784  1.00  0.00    -0.270 OA
HETATM    8  H   UNL     1      41.420 -18.587   4.457  1.00  0.00     0.165 HD
ENDROOT
BRANCH   1   9
HETATM    9  C   UNL     1      41.267 -17.275   1.820  1.00  0.00     0.027 C 
HETATM   10  C   UNL     1      41.749 -16.768   0.453  1.00  0.00     0.035 C 
HETATM   11  C   UNL     1      41.636 -15.271   0.198  1.00  0.00     0.235 C 
HETATM   12  N   UNL     1      40.339 -14.665   0.681  1.00  0.00    -0.067 N 
HETATM   13  H   UNL     1      39.652 -14.823  -0.066  1.00  0.00     0.280 HD
HETATM   14  C   UNL     1      39.753 -15.208   1.957  1.00  0.00     0.235 C 
HETATM   15  C   UNL     1      39.848 -16.719   2.038  1.00  0.00     0.035 C 
BRANCH  12  16
HETATM   16  C   UNL     1      40.460 -13.148   0.816  1.00  0.00     0.277 C 
BRANCH  16  17
HETATM   17  C   UNL     1      39.179 -12.429   1.002  1.00  0.00     0.011 A 
HETATM   18  C   UNL     1      38.081 -12.350   0.154  1.00  0.00     0.035 A 
HETATM   19  C   UNL     1      37.835 -12.954  -1.181  1.00  0.00     0.070 C 
HETATM   20  N   UNL     1      37.132 -11.626   0.841  1.00  0.00    -0.278 N 
HETATM   21  C   UNL     1      35.762 -11.347   0.472  1.00  0.00     0.179 C 
HETATM   22  N   UNL     1      37.565 -11.203   2.042  1.00  0.00    -0.185 NA
HETATM   23  C   UNL     1      38.779 -11.725   2.159  1.00  0.00     0.149 A 
ENDBRANCH  16  17
ENDBRANCH  12  16
ENDBRANCH   1   9
BRANCH   1  24
HETATM   24  C   UNL     1      43.668 -17.755   2.858  1.00  0.00     0.082 C 
BRANCH  24  25
HETATM   25  C   UNL     1      43.909 -19.247   3.018  1.00  0.00    -0.034 A 
HETATM   26  C   UNL     1      44.506 -19.862   4.132  1.00  0.00     0.040 A 
HETATM   27 CL   UNL     1      45.003 -18.994   5.532  1.00  0.00    -0.084 Cl
HETATM   28  C   UNL     1      44.769 -21.239   4.136  1.00  0.00     0.024 A 
HETATM   29  C   UNL     1      44.470 -22.024   3.025  1.00  0.00     0.002 A 
HETATM   30  C   UNL     1      43.903 -21.435   1.904  1.00  0.00     0.001 A 
HETATM   31  C   UNL     1      43.627 -20.065   1.900  1.00  0.00     0.009 A 
ENDBRANCH  24  25
ENDBRANCH   1  24
BRANCH   5  32
HETATM   32  C   UNL     1      42.563 -14.420   5.660  1.00  0.00     0.141 C 
BRANCH  32  33
HETATM   33  C   UNL     1      44.028 -14.328   5.966  1.00  0.00     0.004 A 
HETATM   34  C   UNL     1      44.523 -13.862   7.314  1.00  0.00     0.007 A 
HETATM   35  C   UNL     1      44.665 -15.306   6.921  1.00  0.00     0.007 A 
ENDBRANCH  32  33
ENDBRANCH   5  32
TORSDOF 7
ENDMDL
MODEL 3
REMARK VINA RESULT:      -8.8      0.947      1.701
REMARK  7 active torsions:
REMARK  status: ('A' for Active; 'I' for Inactive)
REMARK    1  A    between atoms: C_7  and  C_8 
REMARK    2  A    between atoms: C_8  and  N_9 
REMARK    3  A    between atoms: C_13  and  C_14 
REMARK    4  A    between atoms: C_14  and  C_15 
REMARK    5  A    between atoms: C_15  and  C_16 
REMARK    6  A    between atoms: N_26  and  C_27 
REMARK    7  A    between atoms: C_27  and  C_28 
ROOT
HETATM    1  C   UNL     1      42.131 -16.982   3.062  1.00  0.00     0.123 C 
HETATM    2  N   UNL     1      41.608 -17.320   4.376  1.00  0.00    -0.324 N 
HETATM    3  C   UNL     1      41.818 -16.337   5.316  1.00  0.00     0.326 C 
HETATM    4  O   UNL     1      41.606 -16.475   6.505  1.00  0.00    -0.247 OA
HETATM    5  N   UNL     1      42.254 -15.226   4.672  1.00  0.00    -0.268 N 
HETATM    6  C   UNL     1      42.367 -15.477   3.341  1.00  0.00     0.257 C 
HETATM    7  O   UNL     1      42.633 -14.644   2.485  1.00  0.00    -0.270 OA
HETATM    8  H   UNL     1      41.458 -18.270   4.708  1.00  0.00     0.165 HD
ENDROOT
BRANCH   1   9
HETATM    9  C   UNL     1      41.076 -17.297   1.950  1.00  0.00     0.027 C 
HETATM   10  C   UNL     1      41.507 -17.120   0.487  1.00  0.00     0.035 C 
HETATM   11  C   UNL     1      41.474 -15.703  -0.070  1.00  0.00     0.235 C 
HETATM   12  N   UNL     1      40.249 -14.916   0.331  1.00  0.00    -0.067 N 
HETATM   13  H   UNL     1      39.510 -15.174  -0.335  1.00  0.00     0.280 HD
HETATM   14  C   UNL     1      39.706 -15.141   1.718  1.00  0.00     0.235 C 
HETATM   15  C   UNL     1      39.710 -16.605   2.109  1.00  0.00     0.035 C 
BRANCH  12  16
HETATM   16  C   UNL     1      40.472 -13.417   0.140  1.00  0.00     0.277 C 
BRANCH  16  17
HETATM   17  C   UNL     1      40.637 -12.980  -1.265  1.00  0.00     0.011 A 
HETATM   18  C   UNL     1      41.637 -12.204  -1.836  1.00  0.00     0.035 A 
HETATM   19  C   UNL     1      42.848 -11.581  -1.240  1.00  0.00     0.070 C 
HETATM   20  N   UNL     1      41.356 -12.166  -3.183  1.00  0.00    -0.278 N 
HETATM   21  C   UNL     1      42.137 -11.595  -4.258  1.00  0.00     0.179 C 
HETATM   22  N   UNL     1      40.225 -12.822  -3.500  1.00  0.00    -0.185 NA
HETATM   23  C   UNL     1      39.817 -13.351  -2.354  1.00  0.00     0.149 A 
ENDBRANCH  16  17
ENDBRANCH  12  16
ENDBRANCH   1   9
BRANCH   1  24
HETATM   24  C   UNL     1      43.558 -17.581   2.860  1.00  0.00     0.082 C 
BRANCH  24  25
HETATM   25  C   UNL     1      43.825 -19.070   3.012  1.00  0.00    -0.034 A 
HETATM   26  C   UNL     1      44.459 -19.677   4.110  1.00  0.00     0.040 A 
HETATM   27 CL   UNL     1      44.980 -18.801   5.497  1.00  0.00    -0.084 Cl
HETATM   28  C   UNL     1      44.742 -21.050   4.108  1.00  0.00     0.024 A 
HETATM   29  C   UNL     1      44.425 -21.839   3.005  1.00  0.00     0.002 A 
HETATM   30  C   UNL     1      43.821 -21.258   1.898  1.00  0.00     0.001 A 
HETATM   31  C   UNL     1      43.526 -19.892   1.902  1.00  0.00     0.009 A 
ENDBRANCH  24  25
ENDBRANCH   1  24
BRANCH   5  32
HETATM   32  C   UNL     1      42.534 -13.958   5.311  1.00  0.00     0.141 C 
BRANCH  32  33
HETATM   33  C   UNL     1      41.394 -13.009   5.094  1.00  0.00     0.004 A 
HETATM   34  C   UNL     1      40.394 -12.715   6.186  1.00  0.00     0.007 A 
HETATM   35  C   UNL     1      41.388 -11.664   5.776  1.00  0.00     0.007 A 
ENDBRANCH  32  33
ENDBRANCH   5  32
TORSDOF 7
ENDMDL
MODEL 4
REMARK VINA RESULT:      -8.6      2.610      7.337
REMARK  7 active torsions:
REMARK  status: ('A' for Active; 'I' for Inactive)
REMARK    1  A    between atoms: C_7  and  C_8 
REMARK    2  A    between atoms: C_8  and  N_9 
REMARK    3  A    between atoms: C_13  and  C_14 
REMARK    4  A    between atoms: C_14  and  C_15 
REMARK    5  A    between atoms: C_15  and  C_16 
REMARK    6  A    between atoms: N_26  and  C_27 
REMARK    7  A    between atoms: C_27  and  C_28 
ROOT
HETATM    1  C   UNL     1      41.056 -14.546   2.443  1.00  0.00     0.123 C 
HETATM    2  N   UNL     1      42.491 -14.437   2.236  1.00  0.00    -0.324 N 
HETATM    3  C   UNL     1      43.167 -13.961   3.336  1.00  0.00     0.326 C 
HETATM    4  O   UNL     1      44.341 -13.645   3.329  1.00  0.00    -0.247 OA
HETATM    5  N   UNL     1      42.309 -13.951   4.385  1.00  0.00    -0.268 N 
HETATM    6  C   UNL     1      41.081 -14.374   3.982  1.00  0.00     0.257 C 
HETATM    7  O   UNL     1      40.126 -14.577   4.721  1.00  0.00    -0.270 OA
HETATM    8  H   UNL     1      42.934 -14.335   1.325  1.00  0.00     0.165 HD
ENDROOT
BRANCH   1   9
HETATM    9  C   UNL     1      40.527 -15.927   1.934  1.00  0.00     0.027 C 
HETATM   10  C   UNL     1      40.514 -17.097   2.929  1.00  0.00     0.035 C 
HETATM   11  C   UNL     1      41.831 -17.831   3.141  1.00  0.00     0.235 C 
HETATM   12  N   UNL     1      42.599 -18.088   1.866  1.00  0.00    -0.067 N 
HETATM   13  H   UNL     1      42.208 -18.949   1.464  1.00  0.00     0.280 HD
HETATM   14  C   UNL     1      42.549 -17.026   0.801  1.00  0.00     0.235 C 
HETATM   15  C   UNL     1      41.158 -16.446   0.630  1.00  0.00     0.035 C 
BRANCH  12  16
HETATM   16  C   UNL     1      44.065 -18.401   2.163  1.00  0.00     0.277 C 
BRANCH  16  17
HETATM   17  C   UNL     1      44.318 -19.742   2.738  1.00  0.00     0.011 A 
HETATM   18  C   UNL     1      44.682 -20.093   4.031  1.00  0.00     0.035 A 
HETATM   19  C   UNL     1      44.921 -19.258   5.238  1.00  0.00     0.070 C 
HETATM   20  N   UNL     1      44.708 -21.469   4.051  1.00  0.00    -0.278 N 
HETATM   21  C   UNL     1      44.912 -22.357   5.173  1.00  0.00     0.179 C 
HETATM   22  N   UNL     1      44.433 -22.014   2.852  1.00  0.00    -0.185 NA
HETATM   23  C   UNL     1      44.153 -20.977   2.073  1.00  0.00     0.149 A 
ENDBRANCH  16  17
ENDBRANCH  12  16
ENDBRANCH   1   9
BRANCH   1  24
HETATM   24  C   UNL     1      40.319 -13.276   1.911  1.00  0.00     0.082 C 
BRANCH  24  25
HETATM   25  C   UNL     1      39.873 -13.165   0.462  1.00  0.00    -0.034 A 
HETATM   26  C   UNL     1      38.637 -13.599  -0.047  1.00  0.00     0.040 A 
HETATM   27 CL   UNL     1      37.401 -14.279   0.939  1.00  0.00    -0.084 Cl
HETATM   28  C   UNL     1      38.363 -13.536  -1.420  1.00  0.00     0.024 A 
HETATM   29  C   UNL     1      39.321 -13.066  -2.315  1.00  0.00     0.002 A 
HETATM   30  C   UNL     1      40.558 -12.655  -1.840  1.00  0.00     0.001 A 
HETATM   31  C   UNL     1      40.831 -12.705  -0.470  1.00  0.00     0.009 A 
ENDBRANCH  24  25
ENDBRANCH   1  24
BRANCH   5  32
HETATM   32  C   UNL     1      42.660 -13.566   5.735  1.00  0.00     0.141 C 
BRANCH  32  33
HETATM   33  C   UNL     1      43.983 -14.161   6.112  1.00  0.00     0.004 A 
HETATM   34  C   UNL     1      44.550 -14.002   7.502  1.00  0.00     0.007 A 
HETATM   35  C   UNL     1      44.043 -15.343   7.047  1.00  0.00     0.007 A 
ENDBRANCH  32  33
ENDBRANCH   5  32
TORSDOF 7
ENDMDL
MODEL 5
REMARK VINA RESULT:      -8.5      3.182      7.543
REMARK  7 active torsions:
REMARK  status: ('A' for Active; 'I' for Inactive)
REMARK    1  A    between atoms: C_7  and  C_8 
REMARK    2  A    between atoms: C_8  and  N_9 
REMARK    3  A    between atoms: C_13  and  C_14 
REMARK    4  A    between atoms: C_14  and  C_15 
REMARK    5  A    between atoms: C_15  and  C_16 
REMARK    6  A    between atoms: N_26  and  C_27 
REMARK    7  A    between atoms: C_27  and  C_28 
ROOT
HETATM    1  C   UNL     1      41.194 -14.602   1.081  1.00  0.00     0.123 C 
HETATM    2  N   UNL     1      42.445 -14.339   1.774  1.00  0.00    -0.324 N 
HETATM    3  C   UNL     1      42.335 -13.378   2.753  1.00  0.00     0.326 C 
HETATM    4  O   UNL     1      43.282 -12.895   3.342  1.00  0.00    -0.247 OA
HETATM    5  N   UNL     1      41.017 -13.121   2.943  1.00  0.00    -0.268 N 
HETATM    6  C   UNL     1      40.272 -13.865   2.083  1.00  0.00     0.257 C 
HETATM    7  O   UNL     1      39.050 -13.934   2.085  1.00  0.00    -0.270 OA
HETATM    8  H   UNL     1      43.367 -14.513   1.381  1.00  0.00     0.165 HD
ENDROOT
BRANCH   1   9
HETATM    9  C   UNL     1      40.946 -16.142   0.954  1.00  0.00     0.027 C 
HETATM   10  C   UNL     1      40.333 -16.867   2.161  1.00  0.00     0.035 C 
HETATM   11  C   UNL     1      41.286 -17.249   3.286  1.00  0.00     0.235 C 
HETATM   12  N   UNL     1      42.604 -17.811   2.808  1.00  0.00    -0.067 N 
HETATM   13  H   UNL     1      42.443 -18.810   2.632  1.00  0.00     0.280 HD
HETATM   14  C   UNL     1      43.194 -17.220   1.556  1.00  0.00     0.235 C 
HETATM   15  C   UNL     1      42.150 -16.977   0.484  1.00  0.00     0.035 C 
BRANCH  12  16
HETATM   16  C   UNL     1      43.659 -17.750   3.912  1.00  0.00     0.277 C 
BRANCH  16  17
HETATM   17  C   UNL     1      43.933 -19.038   4.590  1.00  0.00     0.011 A 
HETATM   18  C   UNL     1      44.426 -20.224   4.064  1.00  0.00     0.035 A 
HETATM   19  C   UNL     1      44.839 -20.581   2.681  1.00  0.00     0.070 C 
HETATM   20  N   UNL     1      44.567 -21.077   5.135  1.00  0.00    -0.278 N 
HETATM   21  C   UNL     1      45.148 -22.401   5.171  1.00  0.00     0.179 C 
HETATM   22  N   UNL     1      44.156 -20.533   6.294  1.00  0.00    -0.185 NA
HETATM   23  C   UNL     1      43.818 -19.290   5.975  1.00  0.00     0.149 A 
ENDBRANCH  16  17
ENDBRANCH  12  16
ENDBRANCH   1   9
BRANCH   1  24
HETATM   24  C   UNL     1      41.102 -13.769  -0.237  1.00  0.00     0.082 C 
BRANCH  24  25
HETATM   25  C   UNL     1      40.320 -14.270  -1.441  1.00  0.00    -0.034 A 
HETATM   26  C   UNL     1      38.978 -13.966  -1.725  1.00  0.00     0.040 A 
HETATM   27 CL   UNL     1      38.026 -12.909  -0.755  1.00  0.00    -0.084 Cl
HETATM   28  C   UNL     1      38.322 -14.558  -2.814  1.00  0.00     0.024 A 
HETATM   29  C   UNL     1      38.980 -15.482  -3.622  1.00  0.00     0.002 A 
HETATM   30  C   UNL     1      40.298 -15.816  -3.347  1.00  0.00     0.001 A 
HETATM   31  C   UNL     1      40.959 -15.219  -2.270  1.00  0.00     0.009 A 
ENDBRANCH  24  25
ENDBRANCH   1  24
BRANCH   5  32
HETATM   32  C   UNL     1      40.490 -12.204   3.930  1.00  0.00     0.141 C 
BRANCH  32  33
HETATM   33  C   UNL     1      40.563 -12.820   5.295  1.00  0.00     0.004 A 
HETATM   34  C   UNL     1      39.341 -12.934   6.174  1.00  0.00     0.007 A 
HETATM   35  C   UNL     1      39.937 -14.167   5.553  1.00  0.00     0.007 A 
ENDBRANCH  32  33
ENDBRANCH   5  32
TORSDOF 7
ENDMDL
MODEL 6
REMARK VINA RESULT:      -8.3      3.095      5.661
REMARK  7 active torsions:
REMARK  status: ('A' for Active; 'I' for Inactive)
REMARK    1  A    between atoms: C_7  and  C_8 
REMARK    2  A    between atoms: C_8  and  N_9 
REMARK    3  A    between atoms: C_13  and  C_14 
REMARK    4  A    between atoms: C_14  and  C_15 
REMARK    5  A    between atoms: C_15  and  C_16 
REMARK    6  A    between atoms: N_26  and  C_27 
REMARK    7  A    between atoms: C_27  and  C_28 
ROOT
HETATM    1  C   UNL     1      42.358 -16.299   3.349  1.00  0.00     0.123 C 
HETATM    2  N   UNL     1      42.538 -16.333   1.906  1.00  0.00    -0.324 N 
HETATM    3  C   UNL     1      41.379 -16.088   1.206  1.00  0.00     0.326 C 
HETATM    4  O   UNL     1      41.270 -16.224   0.002  1.00  0.00    -0.247 OA
HETATM    5  N   UNL     1      40.442 -15.651   2.082  1.00  0.00    -0.268 N 
HETATM    6  C   UNL     1      40.955 -15.643   3.341  1.00  0.00     0.257 C 
HETATM    7  O   UNL     1      40.389 -15.198   4.332  1.00  0.00    -0.270 OA
HETATM    8  H   UNL     1      43.282 -16.841   1.432  1.00  0.00     0.165 HD
ENDROOT
BRANCH   1   9
HETATM    9  C   UNL     1      43.486 -15.454   4.027  1.00  0.00     0.027 C 
HETATM   10  C   UNL     1      43.515 -15.404   5.562  1.00  0.00     0.035 C 
HETATM   11  C   UNL     1      42.562 -14.424   6.233  1.00  0.00     0.235 C 
HETATM   12  N   UNL     1      42.491 -13.077   5.554  1.00  0.00    -0.067 N 
HETATM   13  H   UNL     1      43.280 -12.529   5.919  1.00  0.00     0.280 HD
HETATM   14  C   UNL     1      42.582 -13.053   4.051  1.00  0.00     0.235 C 
HETATM   15  C   UNL     1      43.634 -14.008   3.521  1.00  0.00     0.035 C 
BRANCH  12  16
HETATM   16  C   UNL     1      41.233 -12.317   5.971  1.00  0.00     0.277 C 
BRANCH  16  17
HETATM   17  C   UNL     1      41.438 -10.884   6.282  1.00  0.00     0.011 A 
HETATM   18  C   UNL     1      41.311  -9.775   5.455  1.00  0.00     0.035 A 
HETATM   19  C   UNL     1      40.929  -9.666   4.023  1.00  0.00     0.070 C 
HETATM   20  N   UNL     1      41.534  -8.682   6.262  1.00  0.00    -0.278 N 
HETATM   21  C   UNL     1      41.410  -7.277   5.941  1.00  0.00     0.179 C 
HETATM   22  N   UNL     1      41.837  -9.020   7.527  1.00  0.00    -0.185 NA
HETATM   23  C   UNL     1      41.734 -10.342   7.552  1.00  0.00     0.149 A 
ENDBRANCH  16  17
ENDBRANCH  12  16
ENDBRANCH   1   9
BRANCH   1  24
HETATM   24  C   UNL     1      42.125 -17.736   3.914  1.00  0.00     0.082 C 
BRANCH  24  25
HETATM   25  C   UNL     1      43.042 -18.892   3.550  1.00  0.00    -0.034 A 
HETATM   26  C   UNL     1      44.120 -19.353   4.325  1.00  0.00     0.040 A 
HETATM   27 CL   UNL     1      44.524 -18.693   5.863  1.00  0.00    -0.084 Cl
HETATM   28  C   UNL     1      44.964 -20.367   3.851  1.00  0.00     0.024 A 
HETATM   29  C   UNL     1      44.768 -20.922   2.588  1.00  0.00     0.002 A 
HETATM   30  C   UNL     1      43.725 -20.467   1.795  1.00  0.00     0.001 A 
HETATM   31  C   UNL     1      42.874 -19.464   2.269  1.00  0.00     0.009 A 
ENDBRANCH  24  25
ENDBRANCH   1  24
BRANCH   5  32
HETATM   32  C   UNL     1      39.104 -15.237   1.721  1.00  0.00     0.141 C 
BRANCH  32  33
HETATM   33  C   UNL     1      39.117 -13.816   1.240  1.00  0.00     0.004 A 
HETATM   34  C   UNL     1      37.840 -13.025   1.090  1.00  0.00     0.007 A 
HETATM   35  C   UNL     1      38.804 -12.691   2.195  1.00  0.00     0.007 A 
ENDBRANCH  32  33
ENDBRANCH   5  32
TORSDOF 7
ENDMDL
MODEL 7
REMARK VINA RESULT:      -8.2      3.186      6.551
REMARK  7 active torsions:
REMARK  status: ('A' for Active; 'I' for Inactive)
REMARK    1  A    between atoms: C_7  and  C_8 
REMARK    2  A    between atoms: C_8  and  N_9 
REMARK    3  A    between atoms: C_13  and  C_14 
REMARK    4  A    between atoms: C_14  and  C_15 
REMARK    5  A    between atoms: C_15  and  C_16 
REMARK    6  A    between atoms: N_26  and  C_27 
REMARK    7  A    between atoms: C_27  and  C_28 
ROOT
HETATM    1  C   UNL     1      42.620 -15.671   3.336  1.00  0.00     0.123 C 
HETATM    2  N   UNL     1      42.830 -14.263   3.040  1.00  0.00    -0.324 N 
HETATM    3  C   UNL     1      42.220 -13.853   1.876  1.00  0.00     0.326 C 
HETATM    4  O   UNL     1      42.395 -12.766   1.362  1.00  0.00    -0.247 OA
HETATM    5  N   UNL     1      41.395 -14.846   1.461  1.00  0.00    -0.268 N 
HETATM    6  C   UNL     1      41.486 -15.906   2.308  1.00  0.00     0.257 C 
HETATM    7  O   UNL     1      40.786 -16.909   2.262  1.00  0.00    -0.270 OA
HETATM    8  H   UNL     1      43.615 -13.714   3.382  1.00  0.00     0.165 HD
ENDROOT
BRANCH   1   9
HETATM    9  C   UNL     1      42.215 -15.866   4.834  1.00  0.00     0.027 C 
HETATM   10  C   UNL     1      40.756 -15.580   5.221  1.00  0.00     0.035 C 
HETATM   11  C   UNL     1      40.381 -14.122   5.449  1.00  0.00     0.235 C 
HETATM   12  N   UNL     1      41.411 -13.339   6.229  1.00  0.00    -0.067 N 
HETATM   13  H   UNL     1      41.220 -13.523   7.221  1.00  0.00     0.280 HD
HETATM   14  C   UNL     1      42.860 -13.663   5.980  1.00  0.00     0.235 C 
HETATM   15  C   UNL     1      43.108 -15.154   5.867  1.00  0.00     0.035 C 
BRANCH  12  16
HETATM   16  C   UNL     1      41.215 -11.836   6.041  1.00  0.00     0.277 C 
BRANCH  16  17
HETATM   17  C   UNL     1      40.434 -11.165   7.106  1.00  0.00     0.011 A 
HETATM   18  C   UNL     1      40.477  -9.844   7.531  1.00  0.00     0.035 A 
HETATM   19  C   UNL     1      41.293  -8.694   7.061  1.00  0.00     0.070 C 
HETATM   20  N   UNL     1      39.495  -9.729   8.489  1.00  0.00    -0.278 N 
HETATM   21  C   UNL     1      39.030  -8.544   9.175  1.00  0.00     0.179 C 
HETATM   22  N   UNL     1      38.866 -10.892   8.734  1.00  0.00    -0.185 NA
HETATM   23  C   UNL     1      39.398 -11.746   7.870  1.00  0.00     0.149 A 
ENDBRANCH  16  17
ENDBRANCH  12  16
ENDBRANCH   1   9
BRANCH   1  24
HETATM   24  C   UNL     1      43.815 -16.532   2.818  1.00  0.00     0.082 C 
BRANCH  24  25
HETATM   25  C   UNL     1      43.822 -18.046   2.956  1.00  0.00    -0.034 A 
HETATM   26  C   UNL     1      44.268 -18.760   4.081  1.00  0.00     0.040 A 
HETATM   27 CL   UNL     1      44.826 -17.997   5.519  1.00  0.00    -0.084 Cl
HETATM   28  C   UNL     1      44.321 -20.161   4.068  1.00  0.00     0.024 A 
HETATM   29  C   UNL     1      43.958 -20.876   2.929  1.00  0.00     0.002 A 
HETATM   30  C   UNL     1      43.537 -20.192   1.797  1.00  0.00     0.001 A 
HETATM   31  C   UNL     1      43.471 -18.796   1.810  1.00  0.00     0.009 A 
ENDBRANCH  24  25
ENDBRANCH   1  24
BRANCH   5  32
HETATM   32  C   UNL     1      40.535 -14.774   0.300  1.00  0.00     0.141 C 
BRANCH  32  33
HETATM   33  C   UNL     1      41.314 -15.101  -0.939  1.00  0.00     0.004 A 
HETATM   34  C   UNL     1      40.625 -15.337  -2.261  1.00  0.00     0.007 A 
HETATM   35  C   UNL     1      41.432 -14.086  -2.049  1.00  0.00     0.007 A 
ENDBRANCH  32  33
ENDBRANCH   5  32
TORSDOF 7
ENDMDL
MODEL 8
REMARK VINA RESULT:      -8.2      2.765      7.414
REMARK  7 active torsions:
REMARK  status: ('A' for Active; 'I' for Inactive)
REMARK    1  A    between atoms: C_7  and  C_8 
REMARK    2  A    between atoms: C_8  and  N_9 
REMARK    3  A    between atoms: C_13  and  C_14 
REMARK    4  A    between atoms: C_14  and  C_15 
REMARK    5  A    between atoms: C_15  and  C_16 
REMARK    6  A    between atoms: N_26  and  C_27 
REMARK    7  A    between atoms: C_27  and  C_28 
ROOT
HETATM    1  C   UNL     1      41.068 -14.458   2.171  1.00  0.00     0.123 C 
HETATM    2  N   UNL     1      42.519 -14.362   2.201  1.00  0.00    -0.324 N 
HETATM    3  C   UNL     1      43.006 -13.824   3.370  1.00  0.00     0.326 C 
HETATM    4  O   UNL     1      44.168 -13.510   3.542  1.00  0.00    -0.247 OA
HETATM    5  N   UNL     1      41.985 -13.756   4.259  1.00  0.00    -0.268 N 
HETATM    6  C   UNL     1      40.838 -14.201   3.681  1.00  0.00     0.257 C 
HETATM    7  O   UNL     1      39.772 -14.362   4.260  1.00  0.00    -0.270 OA
HETATM    8  H   UNL     1      43.108 -14.311   1.373  1.00  0.00     0.165 HD
ENDROOT
BRANCH   1   9
HETATM    9  C   UNL     1      40.618 -15.866   1.658  1.00  0.00     0.027 C 
HETATM   10  C   UNL     1      40.530 -17.004   2.685  1.00  0.00     0.035 C 
HETATM   11  C   UNL     1      41.834 -17.702   3.048  1.00  0.00     0.235 C 
HETATM   12  N   UNL     1      42.729 -17.982   1.864  1.00  0.00    -0.067 N 
HETATM   13  H   UNL     1      42.396 -18.862   1.453  1.00  0.00     0.280 HD
HETATM   14  C   UNL     1      42.763 -16.954   0.765  1.00  0.00     0.235 C 
HETATM   15  C   UNL     1      41.386 -16.410   0.439  1.00  0.00     0.035 C 
BRANCH  12  16
HETATM   16  C   UNL     1      44.164 -18.252   2.313  1.00  0.00     0.277 C 
BRANCH  16  17
HETATM   17  C   UNL     1      44.325 -19.382   3.257  1.00  0.00     0.011 A 
HETATM   18  C   UNL     1      44.261 -20.748   3.016  1.00  0.00     0.035 A 
HETATM   19  C   UNL     1      44.025 -21.507   1.759  1.00  0.00     0.070 C 
HETATM   20  N   UNL     1      44.561 -21.353   4.216  1.00  0.00    -0.278 N 
HETATM   21  C   UNL     1      44.749 -22.757   4.502  1.00  0.00     0.179 C 
HETATM   22  N   UNL     1      44.765 -20.469   5.209  1.00  0.00    -0.185 NA
HETATM   23  C   UNL     1      44.669 -19.283   4.623  1.00  0.00     0.149 A 
ENDBRANCH  16  17
ENDBRANCH  12  16
ENDBRANCH   1   9
BRANCH   1  24
HETATM   24  C   UNL     1      40.443 -13.221   1.454  1.00  0.00     0.082 C 
BRANCH  24  25
HETATM   25  C   UNL     1      41.039 -12.658   0.174  1.00  0.00    -0.034 A 
HETATM   26  C   UNL     1      40.683 -13.042  -1.130  1.00  0.00     0.040 A 
HETATM   27 CL   UNL     1      39.446 -14.191  -1.467  1.00  0.00    -0.084 Cl
HETATM   28  C   UNL     1      41.364 -12.528  -2.242  1.00  0.00     0.024 A 
HETATM   29  C   UNL     1      42.427 -11.645  -2.078  1.00  0.00     0.002 A 
HETATM   30  C   UNL     1      42.814 -11.268  -0.799  1.00  0.00     0.001 A 
HETATM   31  C   UNL     1      42.129 -11.769   0.312  1.00  0.00     0.009 A 
ENDBRANCH  24  25
ENDBRANCH   1  24
BRANCH   5  32
HETATM   32  C   UNL     1      42.110 -13.295   5.625  1.00  0.00     0.141 C 
BRANCH  32  33
HETATM   33  C   UNL     1      41.557 -11.908   5.754  1.00  0.00     0.004 A 
HETATM   34  C   UNL     1      40.339 -11.621   6.599  1.00  0.00     0.007 A 
HETATM   35  C   UNL     1      41.695 -11.155   7.053  1.00  0.00     0.007 A 
ENDBRANCH  32  33
ENDBRANCH   5  32
TORSDOF 7
ENDMDL
MODEL 9
REMARK VINA RESULT:      -8.1      2.074      3.105
REMARK  7 active torsions:
REMARK  status: ('A' for Active; 'I' for Inactive)
REMARK    1  A    between atoms: C_7  and  C_8 
REMARK    2  A    between atoms: C_8  and  N_9 
REMARK    3  A    between atoms: C_13  and  C_14 
REMARK    4  A    between atoms: C_14  and  C_15 
REMARK    5  A    between atoms: C_15  and  C_16 
REMARK    6  A    between atoms: N_26  and  C_27 
REMARK    7  A    between atoms: C_27  and  C_28 
ROOT
HETATM    1  C   UNL     1      41.922 -15.320   4.051  1.00  0.00     0.123 C 
HETATM    2  N   UNL     1      40.910 -16.350   4.222  1.00  0.00    -0.324 N 
HETATM    3  C   UNL     1      41.109 -17.130   5.338  1.00  0.00     0.326 C 
HETATM    4  O   UNL     1      40.478 -18.140   5.584  1.00  0.00    -0.247 OA
HETATM    5  N   UNL     1      42.076 -16.550   6.090  1.00  0.00    -0.268 N 
HETATM    6  C   UNL     1      42.537 -15.432   5.468  1.00  0.00     0.257 C 
HETATM    7  O   UNL     1      43.334 -14.635   5.945  1.00  0.00    -0.270 OA
HETATM    8  H   UNL     1      40.352 -16.738   3.465  1.00  0.00     0.165 HD
ENDROOT
BRANCH   1   9
HETATM    9  C   UNL     1      41.258 -13.943   3.718  1.00  0.00     0.027 C 
HETATM   10  C   UNL     1      39.803 -13.953   3.229  1.00  0.00     0.035 C 
HETATM   11  C   UNL     1      39.577 -14.265   1.756  1.00  0.00     0.235 C 
HETATM   12  N   UNL     1      40.555 -13.583   0.829  1.00  0.00    -0.067 N 
HETATM   13  H   UNL     1      40.185 -12.639   0.665  1.00  0.00     0.280 HD
HETATM   14  C   UNL     1      41.975 -13.435   1.308  1.00  0.00     0.235 C 
HETATM   15  C   UNL     1      42.053 -13.030   2.767  1.00  0.00     0.035 C 
BRANCH  12  16
HETATM   16  C   UNL     1      40.579 -14.261  -0.540  1.00  0.00     0.277 C 
BRANCH  16  17
HETATM   17  C   UNL     1      40.327 -13.364  -1.691  1.00  0.00     0.011 A 
HETATM   18  C   UNL     1      41.224 -12.597  -2.424  1.00  0.00     0.035 A 
HETATM   19  C   UNL     1      42.696 -12.437  -2.302  1.00  0.00     0.070 C 
HETATM   20  N   UNL     1      40.483 -12.017  -3.429  1.00  0.00    -0.278 N 
HETATM   21  C   UNL     1      40.936 -11.216  -4.544  1.00  0.00     0.179 C 
HETATM   22  N   UNL     1      39.176 -12.324  -3.358  1.00  0.00    -0.185 NA
HETATM   23  C   UNL     1      39.088 -13.171  -2.341  1.00  0.00     0.149 A 
ENDBRANCH  16  17
ENDBRANCH  12  16
ENDBRANCH   1   9
BRANCH   1  24
HETATM   24  C   UNL     1      43.050 -15.803   3.085  1.00  0.00     0.082 C 
BRANCH  24  25
HETATM   25  C   UNL     1      43.246 -17.276   2.764  1.00  0.00    -0.034 A 
HETATM   26  C   UNL     1      42.511 -18.009   1.817  1.00  0.00     0.040 A 
HETATM   27 CL   UNL     1      41.296 -17.307   0.820  1.00  0.00    -0.084 Cl
HETATM   28  C   UNL     1      42.707 -19.389   1.667  1.00  0.00     0.024 A 
HETATM   29  C   UNL     1      43.617 -20.069   2.472  1.00  0.00     0.002 A 
HETATM   30  C   UNL     1      44.338 -19.371   3.432  1.00  0.00     0.001 A 
HETATM   31  C   UNL     1      44.153 -17.993   3.576  1.00  0.00     0.009 A 
ENDBRANCH  24  25
ENDBRANCH   1  24
BRANCH   5  32
HETATM   32  C   UNL     1      42.531 -17.041   7.373  1.00  0.00     0.141 C 
BRANCH  32  33
HETATM   33  C   UNL     1      43.774 -17.862   7.198  1.00  0.00     0.004 A 
HETATM   34  C   UNL     1      44.308 -18.727   8.314  1.00  0.00     0.007 A 
HETATM   35  C   UNL     1      43.682 -19.364   7.105  1.00  0.00     0.007 A 
ENDBRANCH  32  33
ENDBRANCH   5  32
TORSDOF 7
ENDMDL
MODEL 10
REMARK VINA RESULT:      -8.0      4.011      7.814
REMARK  7 active torsions:
REMARK  status: ('A' for Active; 'I' for Inactive)
REMARK    1  A    between atoms: C_7  and  C_8 
REMARK    2  A    between atoms: C_8  and  N_9 
REMARK    3  A    between atoms: C_13  and  C_14 
REMARK    4  A    between atoms: C_14  and  C_15 
REMARK    5  A    between atoms: C_15  and  C_16 
REMARK    6  A    between atoms: N_26  and  C_27 
REMARK    7  A    between atoms: C_27  and  C_28 
ROOT
HETATM    1  C   UNL     1      40.966 -13.727   4.781  1.00  0.00     0.123 C 
HETATM    2  N   UNL     1      42.301 -13.188   4.582  1.00  0.00    -0.324 N 
HETATM    3  C   UNL     1      42.997 -13.814   3.573  1.00  0.00     0.326 C 
HETATM    4  O   UNL     1      44.177 -13.631   3.345  1.00  0.00    -0.247 OA
HETATM    5  N   UNL     1      42.132 -14.609   2.896  1.00  0.00    -0.268 N 
HETATM    6  C   UNL     1      40.900 -14.542   3.466  1.00  0.00     0.257 C 
HETATM    7  O   UNL     1      39.886 -15.062   3.019  1.00  0.00    -0.270 OA
HETATM    8  H   UNL     1      42.837 -12.701   5.297  1.00  0.00     0.165 HD
ENDROOT
BRANCH   1   9
HETATM    9  C   UNL     1      39.917 -12.573   4.904  1.00  0.00     0.027 C 
HETATM   10  C   UNL     1      40.381 -11.148   4.565  1.00  0.00     0.035 C 
HETATM   11  C   UNL     1      41.136 -10.397   5.653  1.00  0.00     0.235 C 
HETATM   12  N   UNL     1      40.545 -10.562   7.033  1.00  0.00    -0.067 N 
HETATM   13  H   UNL     1      39.790  -9.870   7.107  1.00  0.00     0.280 HD
HETATM   14  C   UNL     1      39.962 -11.906   7.381  1.00  0.00     0.235 C 
HETATM   15  C   UNL     1      39.157 -12.498   6.241  1.00  0.00     0.035 C 
BRANCH  12  16
HETATM   16  C   UNL     1      41.558 -10.185   8.113  1.00  0.00     0.277 C 
BRANCH  16  17
HETATM   17  C   UNL     1      41.083 -10.348   9.506  1.00  0.00     0.011 A 
HETATM   18  C   UNL     1      41.746 -10.873  10.608  1.00  0.00     0.035 A 
HETATM   19  C   UNL     1      43.121 -11.421  10.749  1.00  0.00     0.070 C 
HETATM   20  N   UNL     1      40.884 -10.717  11.670  1.00  0.00    -0.278 N 
HETATM   21  C   UNL     1      41.115 -10.985  13.072  1.00  0.00     0.179 C 
HETATM   22  N   UNL     1      39.707 -10.174  11.312  1.00  0.00    -0.185 NA
HETATM   23  C   UNL     1      39.843  -9.909  10.020  1.00  0.00     0.149 A 
ENDBRANCH  16  17
ENDBRANCH  12  16
ENDBRANCH   1   9
BRANCH   1  24
HETATM   24  C   UNL     1      40.961 -14.798   5.917  1.00  0.00     0.082 C 
BRANCH  24  25
HETATM   25  C   UNL     1      41.864 -16.019   5.862  1.00  0.00    -0.034 A 
HETATM   26  C   UNL     1      43.217 -16.051   6.242  1.00  0.00     0.040 A 
HETATM   27 CL   UNL     1      44.043 -14.689   6.895  1.00  0.00    -0.084 Cl
HETATM   28  C   UNL     1      43.988 -17.208   6.061  1.00  0.00     0.024 A 
HETATM   29  C   UNL     1      43.436 -18.345   5.476  1.00  0.00     0.002 A 
HETATM   30  C   UNL     1      42.108 -18.330   5.071  1.00  0.00     0.001 A 
HETATM   31  C   UNL     1      41.334 -17.182   5.260  1.00  0.00     0.009 A 
ENDBRANCH  24  25
ENDBRANCH   1  24
BRANCH   5  32
HETATM   32  C   UNL     1      42.473 -15.393   1.728  1.00  0.00     0.141 C 
BRANCH  32  33
HETATM   33  C   UNL     1      43.025 -16.723   2.144  1.00  0.00     0.004 A 
HETATM   34  C   UNL     1      42.961 -17.923   1.230  1.00  0.00     0.007 A 
HETATM   35  C   UNL     1      44.281 -17.257   1.502  1.00  0.00     0.007 A 
ENDBRANCH  32  33
ENDBRANCH   5  32
TORSDOF 7
ENDMDL
