MODEL 1
REMARK VINA RESULT:      -9.7      0.000      0.000
REMARK  5 active torsions:
REMARK  status: ('A' for Active; 'I' for Inactive)
REMARK    1  A    between atoms: C_7  and  C_8 
REMARK    2  A    between atoms: C_16  and  C_17 
REMARK    3  A    between atoms: C_19  and  O_20 
REMARK    4  A    between atoms: C_24  and  C_25 
REMARK       I    between atoms: C_25  and  N_26 
REMARK    5  A    between atoms: N_26  and  C_27 
ROOT
HETATM    1  C   UNL     1      39.882 -14.276  -0.961  1.00  0.00     0.070 C 
HETATM    2  C   UNL     1      40.688 -14.791   0.205  1.00  0.00     0.037 C 
HETATM    3  N   UNL     1      40.579 -16.160   0.455  1.00  0.00    -0.192 N 
HETATM    4  C   UNL     1      41.451 -16.815   1.249  1.00  0.00     0.726 A 
HETATM    5  N   UNL     1      42.278 -16.096   2.058  1.00  0.00    -0.083 N 
HETATM    6  N   UNL     1      43.167 -16.881   2.695  1.00  0.00    -0.135 NA
HETATM    7  C   UNL     1      42.810 -18.098   2.236  1.00  0.00     0.200 A 
HETATM    8  N   UNL     1      41.729 -18.086   1.373  1.00  0.00    -0.041 NA
HETATM    9  C   UNL     1      42.251 -14.637   2.157  1.00  0.00     0.202 C 
HETATM   10  C   UNL     1      41.498 -14.021   0.980  1.00  0.00     0.062 C 
HETATM   11  H   UNL     1      40.082 -16.711  -0.243  1.00  0.00     0.184 HD
ENDROOT
BRANCH  10  12
HETATM   12  C   UNL     1      41.865 -12.629   0.569  1.00  0.00     0.256 C 
HETATM   13  N   UNL     1      42.454 -12.529  -0.672  1.00  0.00    -0.323 N 
HETATM   14  H   UNL     1      42.698 -13.378  -1.163  1.00  0.00     0.169 HD
HETATM   15  O   UNL     1      41.573 -11.695   1.308  1.00  0.00    -0.267 OA
BRANCH  13  16
HETATM   16  C   UNL     1      42.759 -11.343  -1.378  1.00  0.00     0.035 A 
HETATM   17  C   UNL     1      43.572 -10.321  -0.882  1.00  0.00     0.029 A 
HETATM   18  C   UNL     1      43.806  -9.169  -1.640  1.00  0.00     0.002 A 
HETATM   19  C   UNL     1      43.222  -9.023  -2.894  1.00  0.00     0.000 A 
HETATM   20  C   UNL     1      42.410 -10.034  -3.399  1.00  0.00     0.002 A 
HETATM   21  C   UNL     1      42.186 -11.192  -2.648  1.00  0.00     0.029 A 
ENDBRANCH  13  16
ENDBRANCH  10  12
BRANCH   9  22
HETATM   22  C   UNL     1      41.680 -14.249   3.524  1.00  0.00    -0.025 A 
HETATM   23  C   UNL     1      42.539 -13.747   4.518  1.00  0.00     0.046 A 
HETATM   24  C   UNL     1      42.030 -13.384   5.762  1.00  0.00     0.066 A 
HETATM   25  C   UNL     1      40.675 -13.506   6.043  1.00  0.00     0.036 A 
HETATM   26  C   UNL     1      39.816 -14.023   5.078  1.00  0.00     0.003 A 
HETATM   27  C   UNL     1      40.314 -14.401   3.830  1.00  0.00     0.010 A 
BRANCH  24  28
HETATM   28  O   UNL     1      42.839 -12.901   6.747  1.00  0.00    -0.361 OA
HETATM   29  H   UNL     1      43.283 -12.099   6.423  1.00  0.00     0.217 HD
ENDBRANCH  24  28
ENDBRANCH   9  22
BRANCH   7  30
HETATM   30  C   UNL     1      43.491 -19.322   2.641  1.00  0.00     0.036 A 
HETATM   31  C   UNL     1      44.101 -19.479   3.895  1.00  0.00     0.048 A 
HETATM   32 CL   UNL     1      44.072 -18.263   5.126  1.00  0.00    -0.083 Cl
HETATM   33  C   UNL     1      44.732 -20.688   4.224  1.00  0.00     0.025 A 
HETATM   34  C   UNL     1      44.759 -21.745   3.315  1.00  0.00     0.002 A 
HETATM   35  C   UNL     1      44.150 -21.604   2.072  1.00  0.00     0.001 A 
HETATM   36  C   UNL     1      43.520 -20.403   1.739  1.00  0.00     0.017 A 
ENDBRANCH   7  30
TORSDOF 5
ENDMDL
MODEL 2
REMARK VINA RESULT:      -9.5      3.206      7.378
REMARK  5 active torsions:
REMARK  status: ('A' for Active; 'I' for Inactive)
REMARK    1  A    between atoms: C_7  and  C_8 
REMARK    2  A    between atoms: C_16  and  C_17 
REMARK    3  A    between atoms: C_19  and  O_20 
REMARK    4  A    between atoms: C_24  and  C_25 
REMARK       I    between atoms: C_25  and  N_26 
REMARK    5  A    between atoms: N_26  and  C_27 
ROOT
HETATM    1  C   UNL     1      40.274 -15.240   6.214  1.00  0.00     0.070 C 
HETATM    2  C   UNL     1      41.032 -15.514   4.939  1.00  0.00     0.037 C 
HETATM    3  N   UNL     1      40.258 -15.572   3.778  1.00  0.00    -0.192 N 
HETATM    4  C   UNL     1      40.807 -15.505   2.547  1.00  0.00     0.726 A 
HETATM    5  N   UNL     1      42.151 -15.680   2.411  1.00  0.00    -0.083 N 
HETATM    6  N   UNL     1      42.562 -15.466   1.148  1.00  0.00    -0.135 NA
HETATM    7  C   UNL     1      41.391 -15.175   0.543  1.00  0.00     0.200 A 
HETATM    8  N   UNL     1      40.291 -15.231   1.379  1.00  0.00    -0.041 NA
HETATM    9  C   UNL     1      43.047 -15.987   3.526  1.00  0.00     0.202 C 
HETATM   10  C   UNL     1      42.380 -15.684   4.866  1.00  0.00     0.062 C 
HETATM   11  H   UNL     1      39.284 -15.289   3.869  1.00  0.00     0.184 HD
ENDROOT
BRANCH  10  12
HETATM   12  C   UNL     1      43.265 -15.344   6.025  1.00  0.00     0.256 C 
HETATM   13  N   UNL     1      43.829 -14.088   5.972  1.00  0.00    -0.323 N 
HETATM   14  H   UNL     1      43.711 -13.537   5.133  1.00  0.00     0.169 HD
HETATM   15  O   UNL     1      43.377 -16.148   6.943  1.00  0.00    -0.267 OA
BRANCH  13  16
HETATM   16  C   UNL     1      44.573 -13.443   6.987  1.00  0.00     0.035 A 
HETATM   17  C   UNL     1      44.017 -12.928   8.160  1.00  0.00     0.029 A 
HETATM   18  C   UNL     1      44.824 -12.284   9.104  1.00  0.00     0.002 A 
HETATM   19  C   UNL     1      46.190 -12.142   8.880  1.00  0.00     0.000 A 
HETATM   20  C   UNL     1      46.755 -12.653   7.715  1.00  0.00     0.002 A 
HETATM   21  C   UNL     1      45.951 -13.307   6.777  1.00  0.00     0.029 A 
ENDBRANCH  13  16
ENDBRANCH  10  12
BRANCH   9  22
HETATM   22  C   UNL     1      43.523 -17.435   3.389  1.00  0.00    -0.025 A 
HETATM   23  C   UNL     1      43.910 -18.151   4.536  1.00  0.00     0.046 A 
HETATM   24  C   UNL     1      44.336 -19.471   4.424  1.00  0.00     0.066 A 
HETATM   25  C   UNL     1      44.385 -20.105   3.189  1.00  0.00     0.036 A 
HETATM   26  C   UNL     1      44.028 -19.403   2.041  1.00  0.00     0.003 A 
HETATM   27  C   UNL     1      43.608 -18.075   2.137  1.00  0.00     0.010 A 
BRANCH  24  28
HETATM   28  O   UNL     1      44.723 -20.188   5.517  1.00  0.00    -0.361 OA
HETATM   29  H   UNL     1      45.651 -19.977   5.719  1.00  0.00     0.217 HD
ENDBRANCH  24  28
ENDBRANCH   9  22
BRANCH   7  30
HETATM   30  C   UNL     1      41.297 -14.857  -0.876  1.00  0.00     0.036 A 
HETATM   31  C   UNL     1      41.639 -13.602  -1.404  1.00  0.00     0.048 A 
HETATM   32 CL   UNL     1      42.259 -12.303  -0.443  1.00  0.00    -0.083 Cl
HETATM   33  C   UNL     1      41.534 -13.366  -2.782  1.00  0.00     0.025 A 
HETATM   34  C   UNL     1      41.094 -14.372  -3.643  1.00  0.00     0.002 A 
HETATM   35  C   UNL     1      40.762 -15.622  -3.133  1.00  0.00     0.001 A 
HETATM   36  C   UNL     1      40.864 -15.863  -1.761  1.00  0.00     0.017 A 
ENDBRANCH   7  30
TORSDOF 5
ENDMDL
MODEL 3
REMARK VINA RESULT:      -9.3      3.147      5.204
REMARK  5 active torsions:
REMARK  status: ('A' for Active; 'I' for Inactive)
REMARK    1  A    between atoms: C_7  and  C_8 
REMARK    2  A    between atoms: C_16  and  C_17 
REMARK    3  A    between atoms: C_19  and  O_20 
REMARK    4  A    between atoms: C_24  and  C_25 
REMARK       I    between atoms: C_25  and  N_26 
REMARK    5  A    between atoms: N_26  and  C_27 
ROOT
HETATM    1  C   UNL     1      38.923 -12.406   3.686  1.00  0.00     0.070 C 
HETATM    2  C   UNL     1      39.657 -13.442   2.872  1.00  0.00     0.037 C 
HETATM    3  N   UNL     1      40.779 -14.005   3.483  1.00  0.00    -0.192 N 
HETATM    4  C   UNL     1      41.352 -15.137   3.025  1.00  0.00     0.726 A 
HETATM    5  N   UNL     1      41.026 -15.588   1.782  1.00  0.00    -0.083 N 
HETATM    6  N   UNL     1      41.582 -16.784   1.517  1.00  0.00    -0.135 NA
HETATM    7  C   UNL     1      42.268 -17.006   2.659  1.00  0.00     0.200 A 
HETATM    8  N   UNL     1      42.171 -15.985   3.587  1.00  0.00    -0.041 NA
HETATM    9  C   UNL     1      40.113 -14.888   0.877  1.00  0.00     0.202 C 
HETATM   10  C   UNL     1      39.283 -13.851   1.630  1.00  0.00     0.062 C 
HETATM   11  H   UNL     1      40.924 -13.774   4.465  1.00  0.00     0.184 HD
ENDROOT
BRANCH  10  12
HETATM   12  C   UNL     1      37.941 -13.493   1.070  1.00  0.00     0.256 C 
HETATM   13  N   UNL     1      37.817 -12.183   0.661  1.00  0.00    -0.323 N 
HETATM   14  H   UNL     1      38.569 -11.538   0.861  1.00  0.00     0.169 HD
HETATM   15  O   UNL     1      37.091 -14.369   0.957  1.00  0.00    -0.267 OA
BRANCH  13  16
HETATM   16  C   UNL     1      36.733 -11.608  -0.041  1.00  0.00     0.035 A 
HETATM   17  C   UNL     1      35.548 -11.177   0.561  1.00  0.00     0.029 A 
HETATM   18  C   UNL     1      34.515 -10.638  -0.212  1.00  0.00     0.002 A 
HETATM   19  C   UNL     1      34.652 -10.534  -1.594  1.00  0.00     0.000 A 
HETATM   20  C   UNL     1      35.828 -10.960  -2.204  1.00  0.00     0.002 A 
HETATM   21  C   UNL     1      36.866 -11.487  -1.430  1.00  0.00     0.029 A 
ENDBRANCH  13  16
ENDBRANCH  10  12
BRANCH   9  22
HETATM   22  C   UNL     1      40.925 -14.303  -0.281  1.00  0.00    -0.025 A 
HETATM   23  C   UNL     1      41.040 -15.025  -1.483  1.00  0.00     0.046 A 
HETATM   24  C   UNL     1      41.769 -14.499  -2.546  1.00  0.00     0.066 A 
HETATM   25  C   UNL     1      42.390 -13.261  -2.444  1.00  0.00     0.036 A 
HETATM   26  C   UNL     1      42.306 -12.545  -1.254  1.00  0.00     0.003 A 
HETATM   27  C   UNL     1      41.587 -13.064  -0.176  1.00  0.00     0.010 A 
BRANCH  24  28
HETATM   28  O   UNL     1      41.903 -15.178  -3.720  1.00  0.00    -0.361 OA
HETATM   29  H   UNL     1      42.119 -14.546  -4.426  1.00  0.00     0.217 HD
ENDBRANCH  24  28
ENDBRANCH   9  22
BRANCH   7  30
HETATM   30  C   UNL     1      43.063 -18.208   2.877  1.00  0.00     0.036 A 
HETATM   31  C   UNL     1      43.814 -18.428   4.041  1.00  0.00     0.048 A 
HETATM   32 CL   UNL     1      43.845 -17.325   5.376  1.00  0.00    -0.083 Cl
HETATM   33  C   UNL     1      44.551 -19.612   4.191  1.00  0.00     0.025 A 
HETATM   34  C   UNL     1      44.544 -20.583   3.191  1.00  0.00     0.002 A 
HETATM   35  C   UNL     1      43.796 -20.381   2.036  1.00  0.00     0.001 A 
HETATM   36  C   UNL     1      43.060 -19.203   1.881  1.00  0.00     0.017 A 
ENDBRANCH   7  30
TORSDOF 5
ENDMDL
MODEL 4
REMARK VINA RESULT:      -9.2      1.751      2.145
REMARK  5 active torsions:
REMARK  status: ('A' for Active; 'I' for Inactive)
REMARK    1  A    between atoms: C_7  and  C_8 
REMARK    2  A    between atoms: C_16  and  C_17 
REMARK    3  A    between atoms: C_19  and  O_20 
REMARK    4  A    between atoms: C_24  and  C_25 
REMARK       I    between atoms: C_25  and  N_26 
REMARK    5  A    between atoms: N_26  and  C_27 
ROOT
HETATM    1  C   UNL     1      40.531 -15.310  -2.602  1.00  0.00     0.070 C 
HETATM    2  C   UNL     1      41.047 -15.273  -1.186  1.00  0.00     0.037 C 
HETATM    3  N   UNL     1      40.872 -16.447  -0.449  1.00  0.00    -0.192 N 
HETATM    4  C   UNL     1      41.536 -16.675   0.703  1.00  0.00     0.726 A 
HETATM    5  N   UNL     1      42.164 -15.637   1.322  1.00  0.00    -0.083 N 
HETATM    6  N   UNL     1      42.878 -16.043   2.388  1.00  0.00    -0.135 NA
HETATM    7  C   UNL     1      42.624 -17.369   2.376  1.00  0.00     0.200 A 
HETATM    8  N   UNL     1      41.767 -17.774   1.369  1.00  0.00    -0.041 NA
HETATM    9  C   UNL     1      42.127 -14.258   0.835  1.00  0.00     0.202 C 
HETATM   10  C   UNL     1      41.666 -14.202  -0.620  1.00  0.00     0.062 C 
HETATM   11  H   UNL     1      40.543 -17.261  -0.966  1.00  0.00     0.184 HD
ENDROOT
BRANCH  10  12
HETATM   12  C   UNL     1      42.129 -13.048  -1.454  1.00  0.00     0.256 C 
HETATM   13  N   UNL     1      41.758 -11.808  -0.982  1.00  0.00    -0.323 N 
HETATM   14  H   UNL     1      41.123 -11.758  -0.196  1.00  0.00     0.169 HD
HETATM   15  O   UNL     1      42.835 -13.267  -2.433  1.00  0.00    -0.267 OA
BRANCH  13  16
HETATM   16  C   UNL     1      42.177 -10.549  -1.468  1.00  0.00     0.035 A 
HETATM   17  C   UNL     1      41.616  -9.909  -2.576  1.00  0.00     0.029 A 
HETATM   18  C   UNL     1      42.108  -8.671  -3.004  1.00  0.00     0.002 A 
HETATM   19  C   UNL     1      43.170  -8.068  -2.336  1.00  0.00     0.000 A 
HETATM   20  C   UNL     1      43.736  -8.696  -1.231  1.00  0.00     0.002 A 
HETATM   21  C   UNL     1      43.237  -9.928  -0.795  1.00  0.00     0.029 A 
ENDBRANCH  13  16
ENDBRANCH  10  12
BRANCH   9  22
HETATM   22  C   UNL     1      41.264 -13.425   1.786  1.00  0.00    -0.025 A 
HETATM   23  C   UNL     1      41.878 -12.505   2.655  1.00  0.00     0.046 A 
HETATM   24  C   UNL     1      41.103 -11.737   3.519  1.00  0.00     0.066 A 
HETATM   25  C   UNL     1      39.719 -11.858   3.538  1.00  0.00     0.036 A 
HETATM   26  C   UNL     1      39.098 -12.781   2.700  1.00  0.00     0.003 A 
HETATM   27  C   UNL     1      39.863 -13.565   1.837  1.00  0.00     0.010 A 
BRANCH  24  28
HETATM   28  O   UNL     1      41.670 -10.843   4.377  1.00  0.00    -0.361 OA
HETATM   29  H   UNL     1      41.833 -10.011   3.901  1.00  0.00     0.217 HD
ENDBRANCH  24  28
ENDBRANCH   9  22
BRANCH   7  30
HETATM   30  C   UNL     1      43.185 -18.285   3.362  1.00  0.00     0.036 A 
HETATM   31  C   UNL     1      42.806 -18.281   4.713  1.00  0.00     0.048 A 
HETATM   32 CL   UNL     1      41.595 -17.227   5.358  1.00  0.00    -0.083 Cl
HETATM   33  C   UNL     1      43.379 -19.197   5.607  1.00  0.00     0.025 A 
HETATM   34  C   UNL     1      44.326 -20.122   5.167  1.00  0.00     0.002 A 
HETATM   35  C   UNL     1      44.703 -20.141   3.828  1.00  0.00     0.001 A 
HETATM   36  C   UNL     1      44.135 -19.231   2.933  1.00  0.00     0.017 A 
ENDBRANCH   7  30
TORSDOF 5
ENDMDL
MODEL 5
REMARK VINA RESULT:      -9.2      1.762      2.204
REMARK  5 active torsions:
REMARK  status: ('A' for Active; 'I' for Inactive)
REMARK    1  A    between atoms: C_7  and  C_8 
REMARK    2  A    between atoms: C_16  and  C_17 
REMARK    3  A    between atoms: C_19  and  O_20 
REMARK    4  A    between atoms: C_24  and  C_25 
REMARK       I    between atoms: C_25  and  N_26 
REMARK    5  A    between atoms: N_26  and  C_27 
ROOT
HETATM    1  C   UNL     1      38.399 -14.220   0.235  1.00  0.00     0.070 C 
HETATM    2  C   UNL     1      39.456 -14.401   1.295  1.00  0.00     0.037 C 
HETATM    3  N   UNL     1      39.448 -15.634   1.950  1.00  0.00    -0.192 N 
HETATM    4  C   UNL     1      40.494 -16.059   2.690  1.00  0.00     0.726 A 
HETATM    5  N   UNL     1      41.452 -15.163   3.056  1.00  0.00    -0.083 N 
HETATM    6  N   UNL     1      42.484 -15.757   3.684  1.00  0.00    -0.135 NA
HETATM    7  C   UNL     1      42.075 -17.044   3.686  1.00  0.00     0.200 A 
HETATM    8  N   UNL     1      40.833 -17.247   3.114  1.00  0.00    -0.041 NA
HETATM    9  C   UNL     1      41.399 -13.737   2.731  1.00  0.00     0.202 C 
HETATM   10  C   UNL     1      40.389 -13.466   1.619  1.00  0.00     0.062 C 
HETATM   11  H   UNL     1      38.830 -16.347   1.566  1.00  0.00     0.184 HD
ENDROOT
BRANCH  10  12
HETATM   12  C   UNL     1      40.612 -12.265   0.753  1.00  0.00     0.256 C 
HETATM   13  N   UNL     1      41.686 -12.362  -0.105  1.00  0.00    -0.323 N 
HETATM   14  H   UNL     1      42.304 -13.158  -0.021  1.00  0.00     0.169 HD
HETATM   15  O   UNL     1      39.818 -11.332   0.813  1.00  0.00    -0.267 OA
BRANCH  13  16
HETATM   16  C   UNL     1      42.039 -11.461  -1.135  1.00  0.00     0.035 A 
HETATM   17  C   UNL     1      42.962 -10.422  -0.987  1.00  0.00     0.029 A 
HETATM   18  C   UNL     1      43.238  -9.561  -2.054  1.00  0.00     0.002 A 
HETATM   19  C   UNL     1      42.588  -9.723  -3.274  1.00  0.00     0.000 A 
HETATM   20  C   UNL     1      41.667 -10.754  -3.433  1.00  0.00     0.002 A 
HETATM   21  C   UNL     1      41.400 -11.624  -2.371  1.00  0.00     0.029 A 
ENDBRANCH  13  16
ENDBRANCH  10  12
BRANCH   9  22
HETATM   22  C   UNL     1      41.126 -12.952   4.016  1.00  0.00    -0.025 A 
HETATM   23  C   UNL     1      40.319 -13.519   5.018  1.00  0.00     0.046 A 
HETATM   24  C   UNL     1      40.071 -12.817   6.195  1.00  0.00     0.066 A 
HETATM   25  C   UNL     1      40.613 -11.555   6.403  1.00  0.00     0.036 A 
HETATM   26  C   UNL     1      41.395 -10.970   5.411  1.00  0.00     0.003 A 
HETATM   27  C   UNL     1      41.644 -11.658   4.222  1.00  0.00     0.010 A 
BRANCH  24  28
HETATM   28  O   UNL     1      39.287 -13.338   7.180  1.00  0.00    -0.361 OA
HETATM   29  H   UNL     1      38.686 -13.995   6.790  1.00  0.00     0.217 HD
ENDBRANCH  24  28
ENDBRANCH   9  22
BRANCH   7  30
HETATM   30  C   UNL     1      42.868 -18.118   4.271  1.00  0.00     0.036 A 
HETATM   31  C   UNL     1      43.698 -18.957   3.511  1.00  0.00     0.048 A 
HETATM   32 CL   UNL     1      43.919 -18.783   1.803  1.00  0.00    -0.083 Cl
HETATM   33  C   UNL     1      44.442 -19.967   4.138  1.00  0.00     0.025 A 
HETATM   34  C   UNL     1      44.369 -20.149   5.519  1.00  0.00     0.002 A 
HETATM   35  C   UNL     1      43.557 -19.318   6.284  1.00  0.00     0.001 A 
HETATM   36  C   UNL     1      42.814 -18.310   5.664  1.00  0.00     0.017 A 
ENDBRANCH   7  30
TORSDOF 5
ENDMDL
MODEL 6
REMARK VINA RESULT:      -9.1      3.663      8.813
REMARK  5 active torsions:
REMARK  status: ('A' for Active; 'I' for Inactive)
REMARK    1  A    between atoms: C_7  and  C_8 
REMARK    2  A    between atoms: C_16  and  C_17 
REMARK    3  A    between atoms: C_19  and  O_20 
REMARK    4  A    between atoms: C_24  and  C_25 
REMARK       I    between atoms: C_25  and  N_26 
REMARK    5  A    between atoms: N_26  and  C_27 
ROOT
HETATM    1  C   UNL     1      40.608 -17.171   6.615  1.00  0.00     0.070 C 
HETATM    2  C   UNL     1      40.763 -15.884   5.844  1.00  0.00     0.037 C 
HETATM    3  N   UNL     1      39.959 -14.825   6.272  1.00  0.00    -0.192 N 
HETATM    4  C   UNL     1      40.193 -13.550   5.896  1.00  0.00     0.726 A 
HETATM    5  N   UNL     1      41.038 -13.312   4.854  1.00  0.00    -0.083 N 
HETATM    6  N   UNL     1      41.263 -11.997   4.678  1.00  0.00    -0.135 NA
HETATM    7  C   UNL     1      40.493 -11.473   5.655  1.00  0.00     0.200 A 
HETATM    8  N   UNL     1      39.794 -12.410   6.393  1.00  0.00    -0.041 NA
HETATM    9  C   UNL     1      41.684 -14.368   4.074  1.00  0.00     0.202 C 
HETATM   10  C   UNL     1      41.626 -15.706   4.808  1.00  0.00     0.062 C 
HETATM   11  H   UNL     1      39.447 -14.967   7.141  1.00  0.00     0.184 HD
ENDROOT
BRANCH  10  12
HETATM   12  C   UNL     1      42.697 -16.709   4.514  1.00  0.00     0.256 C 
HETATM   13  N   UNL     1      42.251 -17.882   3.945  1.00  0.00    -0.323 N 
HETATM   14  H   UNL     1      41.255 -18.036   3.868  1.00  0.00     0.169 HD
HETATM   15  O   UNL     1      43.867 -16.412   4.732  1.00  0.00    -0.267 OA
BRANCH  13  16
HETATM   16  C   UNL     1      43.041 -18.932   3.423  1.00  0.00     0.035 A 
HETATM   17  C   UNL     1      42.909 -19.446   2.131  1.00  0.00     0.029 A 
HETATM   18  C   UNL     1      43.719 -20.503   1.702  1.00  0.00     0.002 A 
HETATM   19  C   UNL     1      44.659 -21.062   2.563  1.00  0.00     0.000 A 
HETATM   20  C   UNL     1      44.800 -20.557   3.853  1.00  0.00     0.002 A 
HETATM   21  C   UNL     1      43.999 -19.492   4.278  1.00  0.00     0.029 A 
ENDBRANCH  13  16
ENDBRANCH  10  12
BRANCH   9  22
HETATM   22  C   UNL     1      41.054 -14.402   2.679  1.00  0.00    -0.025 A 
HETATM   23  C   UNL     1      41.882 -14.373   1.543  1.00  0.00     0.046 A 
HETATM   24  C   UNL     1      41.320 -14.412   0.270  1.00  0.00     0.066 A 
HETATM   25  C   UNL     1      39.944 -14.483   0.097  1.00  0.00     0.036 A 
HETATM   26  C   UNL     1      39.110 -14.489   1.211  1.00  0.00     0.003 A 
HETATM   27  C   UNL     1      39.659 -14.440   2.494  1.00  0.00     0.010 A 
BRANCH  24  28
HETATM   28  O   UNL     1      42.097 -14.378  -0.850  1.00  0.00    -0.361 OA
HETATM   29  H   UNL     1      42.678 -13.600  -0.806  1.00  0.00     0.217 HD
ENDBRANCH  24  28
ENDBRANCH   9  22
BRANCH   7  30
HETATM   30  C   UNL     1      40.390 -10.038   5.889  1.00  0.00     0.036 A 
HETATM   31  C   UNL     1      39.387  -9.239   5.317  1.00  0.00     0.048 A 
HETATM   32 CL   UNL     1      38.127  -9.870   4.312  1.00  0.00    -0.083 Cl
HETATM   33  C   UNL     1      39.340  -7.865   5.591  1.00  0.00     0.025 A 
HETATM   34  C   UNL     1      40.282  -7.276   6.434  1.00  0.00     0.002 A 
HETATM   35  C   UNL     1      41.276  -8.058   7.013  1.00  0.00     0.001 A 
HETATM   36  C   UNL     1      41.328  -9.428   6.744  1.00  0.00     0.017 A 
ENDBRANCH   7  30
TORSDOF 5
ENDMDL
MODEL 7
REMARK VINA RESULT:      -8.8      3.300      5.336
REMARK  5 active torsions:
REMARK  status: ('A' for Active; 'I' for Inactive)
REMARK    1  A    between atoms: C_7  and  C_8 
REMARK    2  A    between atoms: C_16  and  C_17 
REMARK    3  A    between atoms: C_19  and  O_20 
REMARK    4  A    between atoms: C_24  and  C_25 
REMARK       I    between atoms: C_25  and  N_26 
REMARK    5  A    between atoms: N_26  and  C_27 
ROOT
HETATM    1  C   UNL     1      41.497 -10.949   4.923  1.00  0.00     0.070 C 
HETATM    2  C   UNL     1      41.513 -12.237   4.138  1.00  0.00     0.037 C 
HETATM    3  N   UNL     1      42.658 -13.022   4.292  1.00  0.00    -0.192 N 
HETATM    4  C   UNL     1      42.696 -14.316   3.909  1.00  0.00     0.726 A 
HETATM    5  N   UNL     1      41.717 -14.793   3.092  1.00  0.00    -0.083 N 
HETATM    6  N   UNL     1      41.825 -16.120   2.898  1.00  0.00    -0.135 NA
HETATM    7  C   UNL     1      42.928 -16.396   3.625  1.00  0.00     0.200 A 
HETATM    8  N   UNL     1      43.504 -15.292   4.225  1.00  0.00    -0.041 NA
HETATM    9  C   UNL     1      40.631 -13.970   2.558  1.00  0.00     0.202 C 
HETATM   10  C   UNL     1      40.502 -12.662   3.334  1.00  0.00     0.062 C 
HETATM   11  H   UNL     1      43.312 -12.732   5.017  1.00  0.00     0.184 HD
ENDROOT
BRANCH  10  12
HETATM   12  C   UNL     1      39.158 -12.003   3.371  1.00  0.00     0.256 C 
HETATM   13  N   UNL     1      38.743 -11.469   2.170  1.00  0.00    -0.323 N 
HETATM   14  H   UNL     1      39.393 -11.452   1.396  1.00  0.00     0.169 HD
HETATM   15  O   UNL     1      38.509 -12.034   4.410  1.00  0.00    -0.267 OA
BRANCH  13  16
HETATM   16  C   UNL     1      37.470 -10.932   1.870  1.00  0.00     0.035 A 
HETATM   17  C   UNL     1      36.940  -9.787   2.470  1.00  0.00     0.029 A 
HETATM   18  C   UNL     1      35.660  -9.336   2.130  1.00  0.00     0.002 A 
HETATM   19  C   UNL     1      34.896 -10.029   1.194  1.00  0.00     0.000 A 
HETATM   20  C   UNL     1      35.415 -11.170   0.589  1.00  0.00     0.002 A 
HETATM   21  C   UNL     1      36.699 -11.615   0.920  1.00  0.00     0.029 A 
ENDBRANCH  13  16
ENDBRANCH  10  12
BRANCH   9  22
HETATM   22  C   UNL     1      40.857 -13.776   1.056  1.00  0.00    -0.025 A 
HETATM   23  C   UNL     1      40.100 -14.525   0.138  1.00  0.00     0.046 A 
HETATM   24  C   UNL     1      40.291 -14.351  -1.230  1.00  0.00     0.066 A 
HETATM   25  C   UNL     1      41.223 -13.440  -1.712  1.00  0.00     0.036 A 
HETATM   26  C   UNL     1      41.997 -12.708  -0.815  1.00  0.00     0.003 A 
HETATM   27  C   UNL     1      41.823 -12.880   0.559  1.00  0.00     0.010 A 
BRANCH  24  28
HETATM   28  O   UNL     1      39.578 -15.068  -2.144  1.00  0.00    -0.361 OA
HETATM   29  H   UNL     1      38.753 -15.372  -1.729  1.00  0.00     0.217 HD
ENDBRANCH  24  28
ENDBRANCH   9  22
BRANCH   7  30
HETATM   30  C   UNL     1      43.477 -17.742   3.740  1.00  0.00     0.036 A 
HETATM   31  C   UNL     1      43.874 -18.504   2.630  1.00  0.00     0.048 A 
HETATM   32 CL   UNL     1      43.808 -17.920   1.002  1.00  0.00    -0.083 Cl
HETATM   33  C   UNL     1      44.403 -19.790   2.812  1.00  0.00     0.025 A 
HETATM   34  C   UNL     1      44.545 -20.324   4.093  1.00  0.00     0.002 A 
HETATM   35  C   UNL     1      44.163 -19.575   5.201  1.00  0.00     0.001 A 
HETATM   36  C   UNL     1      43.635 -18.293   5.025  1.00  0.00     0.017 A 
ENDBRANCH   7  30
TORSDOF 5
ENDMDL
MODEL 8
REMARK VINA RESULT:      -8.7      3.778      6.022
REMARK  5 active torsions:
REMARK  status: ('A' for Active; 'I' for Inactive)
REMARK    1  A    between atoms: C_7  and  C_8 
REMARK    2  A    between atoms: C_16  and  C_17 
REMARK    3  A    between atoms: C_19  and  O_20 
REMARK    4  A    between atoms: C_24  and  C_25 
REMARK       I    between atoms: C_25  and  N_26 
REMARK    5  A    between atoms: N_26  and  C_27 
ROOT
HETATM    1  C   UNL     1      41.159  -9.830   0.963  1.00  0.00     0.070 C 
HETATM    2  C   UNL     1      40.963 -11.324   0.894  1.00  0.00     0.037 C 
HETATM    3  N   UNL     1      42.040 -12.094   1.338  1.00  0.00    -0.192 N 
HETATM    4  C   UNL     1      41.913 -13.408   1.622  1.00  0.00     0.726 A 
HETATM    5  N   UNL     1      40.802 -14.072   1.197  1.00  0.00    -0.083 N 
HETATM    6  N   UNL     1      40.764 -15.336   1.658  1.00  0.00    -0.135 NA
HETATM    7  C   UNL     1      41.915 -15.387   2.360  1.00  0.00     0.200 A 
HETATM    8  N   UNL     1      42.658 -14.222   2.319  1.00  0.00    -0.041 NA
HETATM    9  C   UNL     1      39.742 -13.455   0.399  1.00  0.00     0.202 C 
HETATM   10  C   UNL     1      39.828 -11.932   0.457  1.00  0.00     0.062 C 
HETATM   11  H   UNL     1      42.800 -11.592   1.794  1.00  0.00     0.184 HD
ENDROOT
BRANCH  10  12
HETATM   12  C   UNL     1      38.565 -11.154   0.253  1.00  0.00     0.256 C 
HETATM   13  N   UNL     1      37.605 -11.346   1.223  1.00  0.00    -0.323 N 
HETATM   14  H   UNL     1      37.759 -12.058   1.924  1.00  0.00     0.169 HD
HETATM   15  O   UNL     1      38.490 -10.378  -0.693  1.00  0.00    -0.267 OA
BRANCH  13  16
HETATM   16  C   UNL     1      36.392 -10.636   1.375  1.00  0.00     0.035 A 
HETATM   17  C   UNL     1      36.231  -9.526   2.207  1.00  0.00     0.029 A 
HETATM   18  C   UNL     1      34.987  -8.895   2.315  1.00  0.00     0.002 A 
HETATM   19  C   UNL     1      33.892  -9.374   1.601  1.00  0.00     0.000 A 
HETATM   20  C   UNL     1      34.041 -10.479   0.768  1.00  0.00     0.002 A 
HETATM   21  C   UNL     1      35.287 -11.103   0.650  1.00  0.00     0.029 A 
ENDBRANCH  13  16
ENDBRANCH  10  12
BRANCH   9  22
HETATM   22  C   UNL     1      39.804 -14.022  -1.021  1.00  0.00    -0.025 A 
HETATM   23  C   UNL     1      41.052 -14.337  -1.589  1.00  0.00     0.046 A 
HETATM   24  C   UNL     1      41.120 -14.861  -2.877  1.00  0.00     0.066 A 
HETATM   25  C   UNL     1      39.968 -15.085  -3.620  1.00  0.00     0.036 A 
HETATM   26  C   UNL     1      38.727 -14.757  -3.081  1.00  0.00     0.003 A 
HETATM   27  C   UNL     1      38.644 -14.221  -1.795  1.00  0.00     0.010 A 
BRANCH  24  28
HETATM   28  O   UNL     1      42.315 -15.169  -3.456  1.00  0.00    -0.361 OA
HETATM   29  H   UNL     1      42.522 -14.496  -4.126  1.00  0.00     0.217 HD
ENDBRANCH  24  28
ENDBRANCH   9  22
BRANCH   7  30
HETATM   30  C   UNL     1      42.347 -16.583   3.074  1.00  0.00     0.036 A 
HETATM   31  C   UNL     1      43.248 -17.513   2.535  1.00  0.00     0.048 A 
HETATM   32 CL   UNL     1      43.992 -17.327   0.983  1.00  0.00    -0.083 Cl
HETATM   33  C   UNL     1      43.629 -18.638   3.280  1.00  0.00     0.025 A 
HETATM   34  C   UNL     1      43.122 -18.845   4.563  1.00  0.00     0.002 A 
HETATM   35  C   UNL     1      42.235 -17.925   5.112  1.00  0.00     0.001 A 
HETATM   36  C   UNL     1      41.852 -16.802   4.374  1.00  0.00     0.017 A 
ENDBRANCH   7  30
TORSDOF 5
ENDMDL
MODEL 9
REMARK VINA RESULT:      -8.7      2.807      4.999
REMARK  5 active torsions:
REMARK  status: ('A' for Active; 'I' for Inactive)
REMARK    1  A    between atoms: C_7  and  C_8 
REMARK    2  A    between atoms: C_16  and  C_17 
REMARK    3  A    between atoms: C_19  and  O_20 
REMARK    4  A    between atoms: C_24  and  C_25 
REMARK       I    between atoms: C_25  and  N_26 
REMARK    5  A    between atoms: N_26  and  C_27 
ROOT
HETATM    1  C   UNL     1      42.374 -12.556   5.056  1.00  0.00     0.070 C 
HETATM    2  C   UNL     1      42.226 -13.731   4.123  1.00  0.00     0.037 C 
HETATM    3  N   UNL     1      43.294 -14.631   4.113  1.00  0.00    -0.192 N 
HETATM    4  C   UNL     1      43.187 -15.864   3.576  1.00  0.00     0.726 A 
HETATM    5  N   UNL     1      42.126 -16.145   2.769  1.00  0.00    -0.083 N 
HETATM    6  N   UNL     1      42.094 -17.442   2.411  1.00  0.00    -0.135 NA
HETATM    7  C   UNL     1      43.199 -17.906   3.031  1.00  0.00     0.200 A 
HETATM    8  N   UNL     1      43.910 -16.942   3.723  1.00  0.00    -0.041 NA
HETATM    9  C   UNL     1      41.101 -15.166   2.404  1.00  0.00     0.202 C 
HETATM   10  C   UNL     1      41.139 -13.958   3.338  1.00  0.00     0.062 C 
HETATM   11  H   UNL     1      44.009 -14.495   4.826  1.00  0.00     0.184 HD
ENDROOT
BRANCH  10  12
HETATM   12  C   UNL     1      39.870 -13.189   3.535  1.00  0.00     0.256 C 
HETATM   13  N   UNL     1      39.677 -12.154   2.646  1.00  0.00    -0.323 N 
HETATM   14  H   UNL     1      40.427 -11.911   2.014  1.00  0.00     0.169 HD
HETATM   15  O   UNL     1      39.082 -13.554   4.401  1.00  0.00    -0.267 OA
BRANCH  13  16
HETATM   16  C   UNL     1      38.514 -11.365   2.495  1.00  0.00     0.035 A 
HETATM   17  C   UNL     1      37.572 -11.543   1.479  1.00  0.00     0.029 A 
HETATM   18  C   UNL     1      36.458 -10.702   1.389  1.00  0.00     0.002 A 
HETATM   19  C   UNL     1      36.281  -9.670   2.307  1.00  0.00     0.000 A 
HETATM   20  C   UNL     1      37.213  -9.484   3.324  1.00  0.00     0.002 A 
HETATM   21  C   UNL     1      38.320 -10.333   3.422  1.00  0.00     0.029 A 
ENDBRANCH  13  16
ENDBRANCH  10  12
BRANCH   9  22
HETATM   22  C   UNL     1      41.271 -14.807   0.926  1.00  0.00    -0.025 A 
HETATM   23  C   UNL     1      40.788 -15.685  -0.061  1.00  0.00     0.046 A 
HETATM   24  C   UNL     1      40.929 -15.365  -1.409  1.00  0.00     0.066 A 
HETATM   25  C   UNL     1      41.542 -14.182  -1.803  1.00  0.00     0.036 A 
HETATM   26  C   UNL     1      42.046 -13.314  -0.839  1.00  0.00     0.003 A 
HETATM   27  C   UNL     1      41.921 -13.627   0.516  1.00  0.00     0.010 A 
BRANCH  24  28
HETATM   28  O   UNL     1      40.477 -16.199  -2.388  1.00  0.00    -0.361 OA
HETATM   29  H   UNL     1      39.505 -16.192  -2.382  1.00  0.00     0.217 HD
ENDBRANCH  24  28
ENDBRANCH   9  22
BRANCH   7  30
HETATM   30  C   UNL     1      43.618 -19.300   2.951  1.00  0.00     0.036 A 
HETATM   31  C   UNL     1      44.367 -19.933   3.955  1.00  0.00     0.048 A 
HETATM   32 CL   UNL     1      44.837 -19.152   5.426  1.00  0.00    -0.083 Cl
HETATM   33  C   UNL     1      44.730 -21.281   3.818  1.00  0.00     0.025 A 
HETATM   34  C   UNL     1      44.350 -22.007   2.690  1.00  0.00     0.002 A 
HETATM   35  C   UNL     1      43.600 -21.393   1.692  1.00  0.00     0.001 A 
HETATM   36  C   UNL     1      43.236 -20.050   1.823  1.00  0.00     0.017 A 
ENDBRANCH   7  30
TORSDOF 5
ENDMDL
MODEL 10
REMARK VINA RESULT:      -8.6      3.796      8.026
REMARK  5 active torsions:
REMARK  status: ('A' for Active; 'I' for Inactive)
REMARK    1  A    between atoms: C_7  and  C_8 
REMARK    2  A    between atoms: C_16  and  C_17 
REMARK    3  A    between atoms: C_19  and  O_20 
REMARK    4  A    between atoms: C_24  and  C_25 
REMARK       I    between atoms: C_25  and  N_26 
REMARK    5  A    between atoms: N_26  and  C_27 
ROOT
HETATM    1  C   UNL     1      43.927 -16.918   1.434  1.00  0.00     0.070 C 
HETATM    2  C   UNL     1      42.660 -16.104   1.355  1.00  0.00     0.037 C 
HETATM    3  N   UNL     1      42.437 -15.453   0.140  1.00  0.00    -0.192 N 
HETATM    4  C   UNL     1      41.230 -14.947  -0.190  1.00  0.00     0.726 A 
HETATM    5  N   UNL     1      40.286 -14.799   0.780  1.00  0.00    -0.083 N 
HETATM    6  N   UNL     1      39.104 -14.399   0.277  1.00  0.00    -0.135 NA
HETATM    7  C   UNL     1      39.405 -14.300  -1.035  1.00  0.00     0.200 A 
HETATM    8  N   UNL     1      40.721 -14.595  -1.340  1.00  0.00    -0.041 NA
HETATM    9  C   UNL     1      40.514 -15.117   2.190  1.00  0.00     0.202 C 
HETATM   10  C   UNL     1      41.753 -15.992   2.362  1.00  0.00     0.062 C 
HETATM   11  H   UNL     1      43.066 -15.691  -0.625  1.00  0.00     0.184 HD
ENDROOT
BRANCH  10  12
HETATM   12  C   UNL     1      41.809 -16.895   3.555  1.00  0.00     0.256 C 
HETATM   13  N   UNL     1      42.930 -16.746   4.342  1.00  0.00    -0.323 N 
HETATM   14  H   UNL     1      43.673 -16.142   4.018  1.00  0.00     0.169 HD
HETATM   15  O   UNL     1      40.860 -17.638   3.783  1.00  0.00    -0.267 OA
BRANCH  13  16
HETATM   16  C   UNL     1      43.176 -17.344   5.598  1.00  0.00     0.035 A 
HETATM   17  C   UNL     1      43.019 -16.692   6.823  1.00  0.00     0.029 A 
HETATM   18  C   UNL     1      43.307 -17.353   8.022  1.00  0.00     0.002 A 
HETATM   19  C   UNL     1      43.762 -18.668   8.007  1.00  0.00     0.000 A 
HETATM   20  C   UNL     1      43.922 -19.329   6.792  1.00  0.00     0.002 A 
HETATM   21  C   UNL     1      43.622 -18.673   5.594  1.00  0.00     0.029 A 
ENDBRANCH  13  16
ENDBRANCH  10  12
BRANCH   9  22
HETATM   22  C   UNL     1      40.569 -13.809   2.984  1.00  0.00    -0.025 A 
HETATM   23  C   UNL     1      39.375 -13.232   3.455  1.00  0.00     0.046 A 
HETATM   24  C   UNL     1      39.414 -12.047   4.185  1.00  0.00     0.066 A 
HETATM   25  C   UNL     1      40.620 -11.418   4.464  1.00  0.00     0.036 A 
HETATM   26  C   UNL     1      41.808 -11.964   3.986  1.00  0.00     0.003 A 
HETATM   27  C   UNL     1      41.784 -13.146   3.243  1.00  0.00     0.010 A 
BRANCH  24  28
HETATM   28  O   UNL     1      38.274 -11.461   4.647  1.00  0.00    -0.361 OA
HETATM   29  H   UNL     1      38.453 -10.523   4.828  1.00  0.00     0.217 HD
ENDBRANCH  24  28
ENDBRANCH   9  22
BRANCH   7  30
HETATM   30  C   UNL     1      38.428 -13.888  -2.036  1.00  0.00     0.036 A 
HETATM   31  C   UNL     1      37.897 -12.591  -2.099  1.00  0.00     0.048 A 
HETATM   32 CL   UNL     1      38.375 -11.315  -1.031  1.00  0.00    -0.083 Cl
HETATM   33  C   UNL     1      36.967 -12.258  -3.094  1.00  0.00     0.025 A 
HETATM   34  C   UNL     1      36.562 -13.207  -4.033  1.00  0.00     0.002 A 
HETATM   35  C   UNL     1      37.088 -14.494  -3.987  1.00  0.00     0.001 A 
HETATM   36  C   UNL     1      38.015 -14.830  -2.997  1.00  0.00     0.017 A 
ENDBRANCH   7  30
TORSDOF 5
ENDMDL
