MODEL 1
REMARK VINA RESULT:      -9.5      0.000      0.000
REMARK  4 active torsions:
REMARK  status: ('A' for Active; 'I' for Inactive)
REMARK    1  A    between atoms: C_3  and  C_4 
REMARK    2  A    between atoms: C_9  and  N_10 
REMARK       I    between atoms: N_10  and  C_11 
REMARK    3  A    between atoms: C_11  and  C_12 
REMARK    4  A    between atoms: C_12  and  C_13 
ROOT
HETATM    1  N   UNL     1      43.173 -16.687   2.004  1.00  0.00    -0.327 N 
HETATM    2  C   UNL     1      42.113 -15.855   2.273  1.00  0.00     0.227 C 
HETATM    3  O   UNL     1      41.295 -16.020   3.179  1.00  0.00    -0.273 OA
HETATM    4  H   UNL     1      43.739 -16.429   1.195  1.00  0.00     0.169 HD
ENDROOT
BRANCH   2   5
HETATM    5  C   UNL     1      41.942 -14.648   1.369  1.00  0.00     0.165 C 
BRANCH   5   6
HETATM    6  C   UNL     1      41.590 -14.791  -0.101  1.00  0.00     0.074 A 
HETATM    7  N   UNL     1      41.062 -15.901  -0.529  1.00  0.00    -0.175 NA
HETATM    8  N   UNL     1      40.760 -16.013  -1.849  1.00  0.00    -0.243 N 
HETATM    9  C   UNL     1      40.960 -15.055  -2.812  1.00  0.00     0.272 A 
HETATM   10  H   UNL     1      40.352 -16.891  -2.161  1.00  0.00     0.192 HD
HETATM   11  O   UNL     1      40.671 -15.239  -3.989  1.00  0.00    -0.266 OA
HETATM   12  C   UNL     1      41.537 -13.784  -2.349  1.00  0.00     0.046 A 
HETATM   13  C   UNL     1      41.847 -13.632  -1.000  1.00  0.00     0.006 A 
HETATM   14  C   UNL     1      41.759 -12.741  -3.257  1.00  0.00     0.018 A 
HETATM   15  C   UNL     1      42.372 -12.412  -0.551  1.00  0.00     0.014 A 
HETATM   16  C   UNL     1      42.594 -11.370  -1.456  1.00  0.00     0.001 A 
HETATM   17  C   UNL     1      42.291 -11.534  -2.807  1.00  0.00     0.001 A 
ENDBRANCH   5   6
ENDBRANCH   2   5
BRANCH   1  18
HETATM   18  C   UNL     1      43.573 -17.848   2.692  1.00  0.00     0.035 A 
HETATM   19  C   UNL     1      43.597 -19.125   2.130  1.00  0.00     0.046 A 
HETATM   20  C   UNL     1      44.004 -20.250   2.880  1.00  0.00     0.056 A 
HETATM   21  C   UNL     1      44.415 -20.075   4.219  1.00  0.00    -0.047 A 
HETATM   22  C   UNL     1      44.857 -21.234   5.070  1.00  0.00     0.049 C 
HETATM   23  C   UNL     1      44.375 -18.792   4.781  1.00  0.00     0.010 A 
HETATM   24  C   UNL     1      43.960 -17.693   4.025  1.00  0.00     0.030 A 
BRANCH  20  25
HETATM   25  C   UNL     1      44.011 -21.613   2.220  1.00  0.00     0.418 C 
HETATM   26  F   UNL     1      45.076 -21.793   1.387  1.00  0.00    -0.166 F 
HETATM   27  F   UNL     1      44.061 -22.653   3.099  1.00  0.00    -0.166 F 
HETATM   28  F   UNL     1      42.903 -21.827   1.457  1.00  0.00    -0.166 F 
ENDBRANCH  20  25
ENDBRANCH   1  18
TORSDOF 4
ENDMDL
MODEL 2
REMARK VINA RESULT:      -9.4      4.165      8.897
REMARK  4 active torsions:
REMARK  status: ('A' for Active; 'I' for Inactive)
REMARK    1  A    between atoms: C_3  and  C_4 
REMARK    2  A    between atoms: C_9  and  N_10 
REMARK       I    between atoms: N_10  and  C_11 
REMARK    3  A    between atoms: C_11  and  C_12 
REMARK    4  A    between atoms: C_12  and  C_13 
ROOT
HETATM    1  N   UNL     1      42.202 -16.103   0.174  1.00  0.00    -0.327 N 
HETATM    2  C   UNL     1      42.180 -17.259   0.917  1.00  0.00     0.227 C 
HETATM    3  O   UNL     1      41.161 -17.828   1.311  1.00  0.00    -0.273 OA
HETATM    4  H   UNL     1      43.130 -15.738  -0.042  1.00  0.00     0.169 HD
ENDROOT
BRANCH   2   5
HETATM    5  C   UNL     1      43.522 -17.865   1.283  1.00  0.00     0.165 C 
BRANCH   5   6
HETATM    6  C   UNL     1      43.833 -18.334   2.692  1.00  0.00     0.074 A 
HETATM    7  N   UNL     1      43.833 -17.473   3.669  1.00  0.00    -0.175 NA
HETATM    8  N   UNL     1      44.120 -17.909   4.923  1.00  0.00    -0.243 N 
HETATM    9  C   UNL     1      44.422 -19.199   5.285  1.00  0.00     0.272 A 
HETATM   10  H   UNL     1      44.119 -17.218   5.669  1.00  0.00     0.192 HD
HETATM   11  O   UNL     1      44.684 -19.510   6.441  1.00  0.00    -0.266 OA
HETATM   12  C   UNL     1      44.408 -20.195   4.202  1.00  0.00     0.046 A 
HETATM   13  C   UNL     1      44.105 -19.782   2.907  1.00  0.00     0.006 A 
HETATM   14  C   UNL     1      44.685 -21.538   4.479  1.00  0.00     0.018 A 
HETATM   15  C   UNL     1      44.065 -20.733   1.878  1.00  0.00     0.014 A 
HETATM   16  C   UNL     1      44.341 -22.076   2.153  1.00  0.00     0.001 A 
HETATM   17  C   UNL     1      44.653 -22.478   3.450  1.00  0.00     0.001 A 
ENDBRANCH   5   6
ENDBRANCH   2   5
BRANCH   1  18
HETATM   18  C   UNL     1      41.115 -15.355  -0.316  1.00  0.00     0.035 A 
HETATM   19  C   UNL     1      40.177 -14.711   0.491  1.00  0.00     0.046 A 
HETATM   20  C   UNL     1      39.106 -13.980  -0.068  1.00  0.00     0.056 A 
HETATM   21  C   UNL     1      38.996 -13.882  -1.472  1.00  0.00    -0.047 A 
HETATM   22  C   UNL     1      37.875 -13.120  -2.128  1.00  0.00     0.049 C 
HETATM   23  C   UNL     1      39.933 -14.543  -2.277  1.00  0.00     0.010 A 
HETATM   24  C   UNL     1      40.980 -15.268  -1.704  1.00  0.00     0.030 A 
BRANCH  20  25
HETATM   25  C   UNL     1      38.116 -13.300   0.854  1.00  0.00     0.418 C 
HETATM   26  F   UNL     1      37.935 -11.981   0.558  1.00  0.00    -0.166 F 
HETATM   27  F   UNL     1      36.870 -13.850   0.831  1.00  0.00    -0.166 F 
HETATM   28  F   UNL     1      38.510 -13.337   2.158  1.00  0.00    -0.166 F 
ENDBRANCH  20  25
ENDBRANCH   1  18
TORSDOF 4
ENDMDL
MODEL 3
REMARK VINA RESULT:      -9.4      4.147      8.817
REMARK  4 active torsions:
REMARK  status: ('A' for Active; 'I' for Inactive)
REMARK    1  A    between atoms: C_3  and  C_4 
REMARK    2  A    between atoms: C_9  and  N_10 
REMARK       I    between atoms: N_10  and  C_11 
REMARK    3  A    between atoms: C_11  and  C_12 
REMARK    4  A    between atoms: C_12  and  C_13 
ROOT
HETATM    1  N   UNL     1      42.113 -15.892   0.234  1.00  0.00    -0.327 N 
HETATM    2  C   UNL     1      42.073 -17.140   0.809  1.00  0.00     0.227 C 
HETATM    3  O   UNL     1      41.045 -17.759   1.088  1.00  0.00    -0.273 OA
HETATM    4  H   UNL     1      43.045 -15.500   0.100  1.00  0.00     0.169 HD
ENDROOT
BRANCH   2   5
HETATM    5  C   UNL     1      43.406 -17.789   1.130  1.00  0.00     0.165 C 
BRANCH   5   6
HETATM    6  C   UNL     1      43.762 -18.237   2.536  1.00  0.00     0.074 A 
HETATM    7  N   UNL     1      43.796 -17.362   3.499  1.00  0.00    -0.175 NA
HETATM    8  N   UNL     1      44.122 -17.780   4.750  1.00  0.00    -0.243 N 
HETATM    9  C   UNL     1      44.433 -19.066   5.120  1.00  0.00     0.272 A 
HETATM   10  H   UNL     1      44.147 -17.078   5.484  1.00  0.00     0.192 HD
HETATM   11  O   UNL     1      44.731 -19.360   6.272  1.00  0.00    -0.266 OA
HETATM   12  C   UNL     1      44.382 -20.077   4.054  1.00  0.00     0.046 A 
HETATM   13  C   UNL     1      44.038 -19.683   2.763  1.00  0.00     0.006 A 
HETATM   14  C   UNL     1      44.664 -21.417   4.343  1.00  0.00     0.018 A 
HETATM   15  C   UNL     1      43.962 -20.649   1.751  1.00  0.00     0.014 A 
HETATM   16  C   UNL     1      44.243 -21.988   2.037  1.00  0.00     0.001 A 
HETATM   17  C   UNL     1      44.597 -22.372   3.329  1.00  0.00     0.001 A 
ENDBRANCH   5   6
ENDBRANCH   2   5
BRANCH   1  18
HETATM   18  C   UNL     1      41.038 -15.084  -0.183  1.00  0.00     0.035 A 
HETATM   19  C   UNL     1      40.600 -14.978  -1.503  1.00  0.00     0.046 A 
HETATM   20  C   UNL     1      39.517 -14.142  -1.853  1.00  0.00     0.056 A 
HETATM   21  C   UNL     1      38.851 -13.416  -0.842  1.00  0.00    -0.047 A 
HETATM   22  C   UNL     1      37.693 -12.507  -1.151  1.00  0.00     0.049 C 
HETATM   23  C   UNL     1      39.305 -13.516   0.480  1.00  0.00     0.010 A 
HETATM   24  C   UNL     1      40.384 -14.342   0.804  1.00  0.00     0.030 A 
BRANCH  20  25
HETATM   25  C   UNL     1      39.083 -14.065  -3.301  1.00  0.00     0.418 C 
HETATM   26  F   UNL     1      39.823 -14.866  -4.120  1.00  0.00    -0.166 F 
HETATM   27  F   UNL     1      37.788 -14.433  -3.511  1.00  0.00    -0.166 F 
HETATM   28  F   UNL     1      39.195 -12.806  -3.811  1.00  0.00    -0.166 F 
ENDBRANCH  20  25
ENDBRANCH   1  18
TORSDOF 4
ENDMDL
MODEL 4
REMARK VINA RESULT:      -9.3      1.971      2.495
REMARK  4 active torsions:
REMARK  status: ('A' for Active; 'I' for Inactive)
REMARK    1  A    between atoms: C_3  and  C_4 
REMARK    2  A    between atoms: C_9  and  N_10 
REMARK       I    between atoms: N_10  and  C_11 
REMARK    3  A    between atoms: C_11  and  C_12 
REMARK    4  A    between atoms: C_12  and  C_13 
ROOT
HETATM    1  N   UNL     1      42.391 -16.476   2.179  1.00  0.00    -0.327 N 
HETATM    2  C   UNL     1      42.712 -15.142   2.240  1.00  0.00     0.227 C 
HETATM    3  O   UNL     1      43.624 -14.663   2.915  1.00  0.00    -0.273 OA
HETATM    4  H   UNL     1      41.583 -16.708   1.599  1.00  0.00     0.169 HD
ENDROOT
BRANCH   2   5
HETATM    5  C   UNL     1      41.862 -14.194   1.414  1.00  0.00     0.165 C 
BRANCH   5   6
HETATM    6  C   UNL     1      41.573 -14.448  -0.054  1.00  0.00     0.074 A 
HETATM    7  N   UNL     1      41.033 -15.576  -0.415  1.00  0.00    -0.175 NA
HETATM    8  N   UNL     1      40.787 -15.790  -1.735  1.00  0.00    -0.243 N 
HETATM    9  C   UNL     1      41.058 -14.919  -2.762  1.00  0.00     0.272 A 
HETATM   10  H   UNL     1      40.369 -16.679  -1.993  1.00  0.00     0.192 HD
HETATM   11  O   UNL     1      40.818 -15.193  -3.932  1.00  0.00    -0.266 OA
HETATM   12  C   UNL     1      41.650 -13.629  -2.377  1.00  0.00     0.046 A 
HETATM   13  C   UNL     1      41.903 -13.374  -1.031  1.00  0.00     0.006 A 
HETATM   14  C   UNL     1      41.943 -12.671  -3.355  1.00  0.00     0.018 A 
HETATM   15  C   UNL     1      42.442 -12.136  -0.659  1.00  0.00     0.014 A 
HETATM   16  C   UNL     1      42.735 -11.177  -1.635  1.00  0.00     0.001 A 
HETATM   17  C   UNL     1      42.489 -11.445  -2.980  1.00  0.00     0.001 A 
ENDBRANCH   5   6
ENDBRANCH   2   5
BRANCH   1  18
HETATM   18  C   UNL     1      43.022 -17.560   2.818  1.00  0.00     0.035 A 
HETATM   19  C   UNL     1      43.062 -17.743   4.200  1.00  0.00     0.046 A 
HETATM   20  C   UNL     1      43.719 -18.852   4.776  1.00  0.00     0.056 A 
HETATM   21  C   UNL     1      44.330 -19.806   3.933  1.00  0.00    -0.047 A 
HETATM   22  C   UNL     1      45.048 -21.008   4.486  1.00  0.00     0.049 C 
HETATM   23  C   UNL     1      44.299 -19.609   2.546  1.00  0.00     0.010 A 
HETATM   24  C   UNL     1      43.651 -18.500   1.997  1.00  0.00     0.030 A 
BRANCH  20  25
HETATM   25  C   UNL     1      43.731 -19.002   6.282  1.00  0.00     0.418 C 
HETATM   26  F   UNL     1      44.966 -18.807   6.825  1.00  0.00    -0.166 F 
HETATM   27  F   UNL     1      42.910 -18.129   6.932  1.00  0.00    -0.166 F 
HETATM   28  F   UNL     1      43.339 -20.244   6.685  1.00  0.00    -0.166 F 
ENDBRANCH  20  25
ENDBRANCH   1  18
TORSDOF 4
ENDMDL
MODEL 5
REMARK VINA RESULT:      -9.2      1.563      1.846
REMARK  4 active torsions:
REMARK  status: ('A' for Active; 'I' for Inactive)
REMARK    1  A    between atoms: C_3  and  C_4 
REMARK    2  A    between atoms: C_9  and  N_10 
REMARK       I    between atoms: N_10  and  C_11 
REMARK    3  A    between atoms: C_11  and  C_12 
REMARK    4  A    between atoms: C_12  and  C_13 
ROOT
HETATM    1  N   UNL     1      42.668 -16.799   2.141  1.00  0.00    -0.327 N 
HETATM    2  C   UNL     1      41.413 -16.279   2.346  1.00  0.00     0.227 C 
HETATM    3  O   UNL     1      40.565 -16.753   3.104  1.00  0.00    -0.273 OA
HETATM    4  H   UNL     1      43.240 -16.308   1.452  1.00  0.00     0.169 HD
ENDROOT
BRANCH   2   5
HETATM    5  C   UNL     1      41.052 -15.029   1.564  1.00  0.00     0.165 C 
BRANCH   5   6
HETATM    6  C   UNL     1      40.837 -15.058   0.062  1.00  0.00     0.074 A 
HETATM    7  N   UNL     1      41.595 -15.813  -0.680  1.00  0.00    -0.175 NA
HETATM    8  N   UNL     1      41.391 -15.821  -2.024  1.00  0.00    -0.243 N 
HETATM    9  C   UNL     1      40.447 -15.094  -2.706  1.00  0.00     0.272 A 
HETATM   10  H   UNL     1      41.998 -16.415  -2.583  1.00  0.00     0.192 HD
HETATM   11  O   UNL     1      40.337 -15.147  -3.926  1.00  0.00    -0.266 OA
HETATM   12  C   UNL     1      39.566 -14.248  -1.887  1.00  0.00     0.046 A 
HETATM   13  C   UNL     1      39.739 -14.227  -0.505  1.00  0.00     0.006 A 
HETATM   14  C   UNL     1      38.560 -13.486  -2.494  1.00  0.00     0.018 A 
HETATM   15  C   UNL     1      38.883 -13.443   0.280  1.00  0.00     0.014 A 
HETATM   16  C   UNL     1      37.879 -12.682  -0.325  1.00  0.00     0.001 A 
HETATM   17  C   UNL     1      37.719 -12.700  -1.710  1.00  0.00     0.001 A 
ENDBRANCH   5   6
ENDBRANCH   2   5
BRANCH   1  18
HETATM   18  C   UNL     1      43.262 -17.922   2.747  1.00  0.00     0.035 A 
HETATM   19  C   UNL     1      43.316 -19.191   2.169  1.00  0.00     0.046 A 
HETATM   20  C   UNL     1      43.923 -20.277   2.836  1.00  0.00     0.056 A 
HETATM   21  C   UNL     1      44.506 -20.069   4.105  1.00  0.00    -0.047 A 
HETATM   22  C   UNL     1      45.165 -21.187   4.867  1.00  0.00     0.049 C 
HETATM   23  C   UNL     1      44.436 -18.796   4.686  1.00  0.00     0.010 A 
HETATM   24  C   UNL     1      43.823 -17.736   4.013  1.00  0.00     0.030 A 
BRANCH  20  25
HETATM   25  C   UNL     1      43.954 -21.632   2.161  1.00  0.00     0.418 C 
HETATM   26  F   UNL     1      45.032 -21.792   1.342  1.00  0.00    -0.166 F 
HETATM   27  F   UNL     1      44.002 -22.681   3.029  1.00  0.00    -0.166 F 
HETATM   28  F   UNL     1      42.859 -21.850   1.381  1.00  0.00    -0.166 F 
ENDBRANCH  20  25
ENDBRANCH   1  18
TORSDOF 4
ENDMDL
MODEL 6
REMARK VINA RESULT:      -9.1      1.774      2.420
REMARK  4 active torsions:
REMARK  status: ('A' for Active; 'I' for Inactive)
REMARK    1  A    between atoms: C_3  and  C_4 
REMARK    2  A    between atoms: C_9  and  N_10 
REMARK       I    between atoms: N_10  and  C_11 
REMARK    3  A    between atoms: C_11  and  C_12 
REMARK    4  A    between atoms: C_12  and  C_13 
ROOT
HETATM    1  N   UNL     1      42.610 -17.210   1.022  1.00  0.00    -0.327 N 
HETATM    2  C   UNL     1      41.300 -16.803   0.939  1.00  0.00     0.227 C 
HETATM    3  O   UNL     1      40.384 -17.216   1.651  1.00  0.00    -0.273 OA
HETATM    4  H   UNL     1      43.242 -16.797   0.335  1.00  0.00     0.169 HD
ENDROOT
BRANCH   2   5
HETATM    5  C   UNL     1      40.969 -15.770  -0.122  1.00  0.00     0.165 C 
BRANCH   5   6
HETATM    6  C   UNL     1      41.491 -14.347  -0.047  1.00  0.00     0.074 A 
HETATM    7  N   UNL     1      41.798 -13.837   1.111  1.00  0.00    -0.175 NA
HETATM    8  N   UNL     1      42.258 -12.559   1.160  1.00  0.00    -0.243 N 
HETATM    9  C   UNL     1      42.436 -11.719   0.088  1.00  0.00     0.272 A 
HETATM   10  H   UNL     1      42.488 -12.181   2.075  1.00  0.00     0.192 HD
HETATM   11  O   UNL     1      42.845 -10.571   0.218  1.00  0.00    -0.266 OA
HETATM   12  C   UNL     1      42.115 -12.279  -1.233  1.00  0.00     0.046 A 
HETATM   13  C   UNL     1      41.653 -13.590  -1.319  1.00  0.00     0.006 A 
HETATM   14  C   UNL     1      42.285 -11.503  -2.385  1.00  0.00     0.018 A 
HETATM   15  C   UNL     1      41.372 -14.136  -2.579  1.00  0.00     0.014 A 
HETATM   16  C   UNL     1      41.541 -13.361  -3.731  1.00  0.00     0.001 A 
HETATM   17  C   UNL     1      41.993 -12.047  -3.635  1.00  0.00     0.001 A 
ENDBRANCH   5   6
ENDBRANCH   2   5
BRANCH   1  18
HETATM   18  C   UNL     1      43.188 -18.127   1.919  1.00  0.00     0.035 A 
HETATM   19  C   UNL     1      43.416 -19.473   1.631  1.00  0.00     0.046 A 
HETATM   20  C   UNL     1      43.996 -20.340   2.582  1.00  0.00     0.056 A 
HETATM   21  C   UNL     1      44.372 -19.829   3.843  1.00  0.00    -0.047 A 
HETATM   22  C   UNL     1      44.992 -20.703   4.899  1.00  0.00     0.049 C 
HETATM   23  C   UNL     1      44.128 -18.480   4.132  1.00  0.00     0.010 A 
HETATM   24  C   UNL     1      43.545 -17.640   3.180  1.00  0.00     0.030 A 
BRANCH  20  25
HETATM   25  C   UNL     1      44.222 -21.792   2.215  1.00  0.00     0.418 C 
HETATM   26  F   UNL     1      43.407 -22.217   1.208  1.00  0.00    -0.166 F 
HETATM   27  F   UNL     1      45.489 -22.066   1.794  1.00  0.00    -0.166 F 
HETATM   28  F   UNL     1      43.991 -22.634   3.261  1.00  0.00    -0.166 F 
ENDBRANCH  20  25
ENDBRANCH   1  18
TORSDOF 4
ENDMDL
MODEL 7
REMARK VINA RESULT:      -8.9      2.803      3.523
REMARK  4 active torsions:
REMARK  status: ('A' for Active; 'I' for Inactive)
REMARK    1  A    between atoms: C_3  and  C_4 
REMARK    2  A    between atoms: C_9  and  N_10 
REMARK       I    between atoms: N_10  and  C_11 
REMARK    3  A    between atoms: C_11  and  C_12 
REMARK    4  A    between atoms: C_12  and  C_13 
ROOT
HETATM    1  N   UNL     1      41.963 -16.213   2.056  1.00  0.00    -0.327 N 
HETATM    2  C   UNL     1      40.607 -16.192   1.833  1.00  0.00     0.227 C 
HETATM    3  O   UNL     1      39.829 -17.106   2.112  1.00  0.00    -0.273 OA
HETATM    4  H   UNL     1      42.473 -15.390   1.735  1.00  0.00     0.169 HD
ENDROOT
BRANCH   2   5
HETATM    5  C   UNL     1      40.038 -14.944   1.183  1.00  0.00     0.165 C 
BRANCH   5   6
HETATM    6  C   UNL     1      40.922 -13.781   0.770  1.00  0.00     0.074 A 
HETATM    7  N   UNL     1      41.341 -12.943   1.673  1.00  0.00    -0.175 NA
HETATM    8  N   UNL     1      42.126 -11.903   1.285  1.00  0.00    -0.243 N 
HETATM    9  C   UNL     1      42.536 -11.631   0.003  1.00  0.00     0.272 A 
HETATM   10  H   UNL     1      42.437 -11.259   2.007  1.00  0.00     0.192 HD
HETATM   11  O   UNL     1      43.236 -10.662  -0.268  1.00  0.00    -0.266 OA
HETATM   12  C   UNL     1      42.092 -12.577  -1.033  1.00  0.00     0.046 A 
HETATM   13  C   UNL     1      41.297 -13.660  -0.666  1.00  0.00     0.006 A 
HETATM   14  C   UNL     1      42.478 -12.391  -2.365  1.00  0.00     0.018 A 
HETATM   15  C   UNL     1      40.895 -14.577  -1.646  1.00  0.00     0.014 A 
HETATM   16  C   UNL     1      41.280 -14.393  -2.978  1.00  0.00     0.001 A 
HETATM   17  C   UNL     1      42.067 -13.300  -3.338  1.00  0.00     0.001 A 
ENDBRANCH   5   6
ENDBRANCH   2   5
BRANCH   1  18
HETATM   18  C   UNL     1      42.737 -17.223   2.659  1.00  0.00     0.035 A 
HETATM   19  C   UNL     1      43.220 -17.169   3.966  1.00  0.00     0.046 A 
HETATM   20  C   UNL     1      43.997 -18.216   4.506  1.00  0.00     0.056 A 
HETATM   21  C   UNL     1      44.273 -19.350   3.713  1.00  0.00    -0.047 A 
HETATM   22  C   UNL     1      45.097 -20.498   4.230  1.00  0.00     0.049 C 
HETATM   23  C   UNL     1      43.797 -19.393   2.396  1.00  0.00     0.010 A 
HETATM   24  C   UNL     1      43.037 -18.341   1.877  1.00  0.00     0.030 A 
BRANCH  20  25
HETATM   25  C   UNL     1      44.495 -18.106   5.932  1.00  0.00     0.418 C 
HETATM   26  F   UNL     1      45.850 -18.221   6.031  1.00  0.00    -0.166 F 
HETATM   27  F   UNL     1      44.189 -16.923   6.535  1.00  0.00    -0.166 F 
HETATM   28  F   UNL     1      43.979 -19.074   6.739  1.00  0.00    -0.166 F 
ENDBRANCH  20  25
ENDBRANCH   1  18
TORSDOF 4
ENDMDL
MODEL 8
REMARK VINA RESULT:      -8.9      2.159      2.857
REMARK  4 active torsions:
REMARK  status: ('A' for Active; 'I' for Inactive)
REMARK    1  A    between atoms: C_3  and  C_4 
REMARK    2  A    between atoms: C_9  and  N_10 
REMARK       I    between atoms: N_10  and  C_11 
REMARK    3  A    between atoms: C_11  and  C_12 
REMARK    4  A    between atoms: C_12  and  C_13 
ROOT
HETATM    1  N   UNL     1      43.240 -16.923   1.267  1.00  0.00    -0.327 N 
HETATM    2  C   UNL     1      42.006 -16.626   0.742  1.00  0.00     0.227 C 
HETATM    3  O   UNL     1      40.975 -17.269   0.948  1.00  0.00    -0.273 OA
HETATM    4  H   UNL     1      44.002 -16.312   0.970  1.00  0.00     0.169 HD
ENDROOT
BRANCH   2   5
HETATM    5  C   UNL     1      41.921 -15.414  -0.168  1.00  0.00     0.165 C 
BRANCH   5   6
HETATM    6  C   UNL     1      40.641 -14.614  -0.320  1.00  0.00     0.074 A 
HETATM    7  N   UNL     1      40.269 -13.812   0.635  1.00  0.00    -0.175 NA
HETATM    8  N   UNL     1      39.116 -13.107   0.484  1.00  0.00    -0.243 N 
HETATM    9  C   UNL     1      38.273 -13.154  -0.599  1.00  0.00     0.272 A 
HETATM   10  H   UNL     1      38.844 -12.491   1.244  1.00  0.00     0.192 HD
HETATM   11  O   UNL     1      37.241 -12.495  -0.653  1.00  0.00    -0.266 OA
HETATM   12  C   UNL     1      38.682 -14.038  -1.701  1.00  0.00     0.046 A 
HETATM   13  C   UNL     1      39.865 -14.764  -1.583  1.00  0.00     0.006 A 
HETATM   14  C   UNL     1      37.895 -14.135  -2.854  1.00  0.00     0.018 A 
HETATM   15  C   UNL     1      40.272 -15.587  -2.642  1.00  0.00     0.014 A 
HETATM   16  C   UNL     1      39.486 -15.684  -3.795  1.00  0.00     0.001 A 
HETATM   17  C   UNL     1      38.299 -14.963  -3.900  1.00  0.00     0.001 A 
ENDBRANCH   5   6
ENDBRANCH   2   5
BRANCH   1  18
HETATM   18  C   UNL     1      43.591 -17.964   2.148  1.00  0.00     0.035 A 
HETATM   19  C   UNL     1      43.687 -19.306   1.781  1.00  0.00     0.046 A 
HETATM   20  C   UNL     1      44.039 -20.301   2.718  1.00  0.00     0.056 A 
HETATM   21  C   UNL     1      44.320 -19.926   4.050  1.00  0.00    -0.047 A 
HETATM   22  C   UNL     1      44.698 -20.940   5.096  1.00  0.00     0.049 C 
HETATM   23  C   UNL     1      44.208 -18.578   4.416  1.00  0.00     0.010 A 
HETATM   24  C   UNL     1      43.849 -17.610   3.475  1.00  0.00     0.030 A 
BRANCH  20  25
HETATM   25  C   UNL     1      44.129 -21.743   2.265  1.00  0.00     0.418 C 
HETATM   26  F   UNL     1      44.092 -22.628   3.301  1.00  0.00    -0.166 F 
HETATM   27  F   UNL     1      43.124 -22.124   1.428  1.00  0.00    -0.166 F 
HETATM   28  F   UNL     1      45.286 -22.006   1.594  1.00  0.00    -0.166 F 
ENDBRANCH  20  25
ENDBRANCH   1  18
TORSDOF 4
ENDMDL
MODEL 9
REMARK VINA RESULT:      -8.8      2.592      3.562
REMARK  4 active torsions:
REMARK  status: ('A' for Active; 'I' for Inactive)
REMARK    1  A    between atoms: C_3  and  C_4 
REMARK    2  A    between atoms: C_9  and  N_10 
REMARK       I    between atoms: N_10  and  C_11 
REMARK    3  A    between atoms: C_11  and  C_12 
REMARK    4  A    between atoms: C_12  and  C_13 
ROOT
HETATM    1  N   UNL     1      43.118 -16.839   1.557  1.00  0.00    -0.327 N 
HETATM    2  C   UNL     1      41.853 -16.510   1.134  1.00  0.00     0.227 C 
HETATM    3  O   UNL     1      40.835 -17.163   1.368  1.00  0.00    -0.273 OA
HETATM    4  H   UNL     1      43.861 -16.213   1.248  1.00  0.00     0.169 HD
ENDROOT
BRANCH   2   5
HETATM    5  C   UNL     1      41.715 -15.247   0.304  1.00  0.00     0.165 C 
BRANCH   5   6
HETATM    6  C   UNL     1      41.400 -13.904   0.935  1.00  0.00     0.074 A 
HETATM    7  N   UNL     1      42.367 -13.181   1.422  1.00  0.00    -0.175 NA
HETATM    8  N   UNL     1      42.065 -11.983   1.989  1.00  0.00    -0.243 N 
HETATM    9  C   UNL     1      40.811 -11.437   2.113  1.00  0.00     0.272 A 
HETATM   10  H   UNL     1      42.837 -11.439   2.366  1.00  0.00     0.192 HD
HETATM   11  O   UNL     1      40.621 -10.353   2.652  1.00  0.00    -0.266 OA
HETATM   12  C   UNL     1      39.704 -12.225   1.553  1.00  0.00     0.046 A 
HETATM   13  C   UNL     1      39.981 -13.451   0.953  1.00  0.00     0.006 A 
HETATM   14  C   UNL     1      38.393 -11.738   1.615  1.00  0.00     0.018 A 
HETATM   15  C   UNL     1      38.931 -14.193   0.394  1.00  0.00     0.014 A 
HETATM   16  C   UNL     1      37.621 -13.707   0.455  1.00  0.00     0.001 A 
HETATM   17  C   UNL     1      37.351 -12.485   1.067  1.00  0.00     0.001 A 
ENDBRANCH   5   6
ENDBRANCH   2   5
BRANCH   1  18
HETATM   18  C   UNL     1      43.521 -17.930   2.351  1.00  0.00     0.035 A 
HETATM   19  C   UNL     1      43.613 -19.244   1.891  1.00  0.00     0.046 A 
HETATM   20  C   UNL     1      44.020 -20.294   2.744  1.00  0.00     0.056 A 
HETATM   21  C   UNL     1      44.359 -20.002   4.083  1.00  0.00    -0.047 A 
HETATM   22  C   UNL     1      44.797 -21.077   5.041  1.00  0.00     0.049 C 
HETATM   23  C   UNL     1      44.251 -18.683   4.542  1.00  0.00     0.010 A 
HETATM   24  C   UNL     1      43.838 -17.661   3.684  1.00  0.00     0.030 A 
BRANCH  20  25
HETATM   25  C   UNL     1      44.104 -21.701   2.193  1.00  0.00     0.418 C 
HETATM   26  F   UNL     1      43.063 -22.011   1.368  1.00  0.00    -0.166 F 
HETATM   27  F   UNL     1      45.228 -21.944   1.462  1.00  0.00    -0.166 F 
HETATM   28  F   UNL     1      44.093 -22.646   3.175  1.00  0.00    -0.166 F 
ENDBRANCH  20  25
ENDBRANCH   1  18
TORSDOF 4
ENDMDL
MODEL 10
REMARK VINA RESULT:      -8.8      2.661      3.225
REMARK  4 active torsions:
REMARK  status: ('A' for Active; 'I' for Inactive)
REMARK    1  A    between atoms: C_3  and  C_4 
REMARK    2  A    between atoms: C_9  and  N_10 
REMARK       I    between atoms: N_10  and  C_11 
REMARK    3  A    between atoms: C_11  and  C_12 
REMARK    4  A    between atoms: C_12  and  C_13 
ROOT
HETATM    1  N   UNL     1      42.315 -16.302   2.141  1.00  0.00    -0.327 N 
HETATM    2  C   UNL     1      41.155 -15.655   2.492  1.00  0.00     0.227 C 
HETATM    3  O   UNL     1      40.477 -15.908   3.489  1.00  0.00    -0.273 OA
HETATM    4  H   UNL     1      42.739 -15.997   1.264  1.00  0.00     0.169 HD
ENDROOT
BRANCH   2   5
HETATM    5  C   UNL     1      40.678 -14.551   1.567  1.00  0.00     0.165 C 
BRANCH   5   6
HETATM    6  C   UNL     1      40.593 -14.746   0.064  1.00  0.00     0.074 A 
HETATM    7  N   UNL     1      41.420 -15.560  -0.525  1.00  0.00    -0.175 NA
HETATM    8  N   UNL     1      41.334 -15.718  -1.872  1.00  0.00    -0.243 N 
HETATM    9  C   UNL     1      40.443 -15.089  -2.707  1.00  0.00     0.272 A 
HETATM   10  H   UNL     1      41.993 -16.355  -2.310  1.00  0.00     0.192 HD
HETATM   11  O   UNL     1      40.438 -15.276  -3.918  1.00  0.00    -0.266 OA
HETATM   12  C   UNL     1      39.484 -14.179  -2.063  1.00  0.00     0.046 A 
HETATM   13  C   UNL     1      39.537 -14.006  -0.682  1.00  0.00     0.006 A 
HETATM   14  C   UNL     1      38.525 -13.510  -2.832  1.00  0.00     0.018 A 
HETATM   15  C   UNL     1      38.608 -13.160  -0.062  1.00  0.00     0.014 A 
HETATM   16  C   UNL     1      37.649 -12.491  -0.828  1.00  0.00     0.001 A 
HETATM   17  C   UNL     1      37.609 -12.662  -2.211  1.00  0.00     0.001 A 
ENDBRANCH   5   6
ENDBRANCH   2   5
BRANCH   1  18
HETATM   18  C   UNL     1      42.985 -17.334   2.824  1.00  0.00     0.035 A 
HETATM   19  C   UNL     1      43.498 -17.218   4.116  1.00  0.00     0.046 A 
HETATM   20  C   UNL     1      44.166 -18.293   4.741  1.00  0.00     0.056 A 
HETATM   21  C   UNL     1      44.297 -19.518   4.052  1.00  0.00    -0.047 A 
HETATM   22  C   UNL     1      45.001 -20.700   4.663  1.00  0.00     0.049 C 
HETATM   23  C   UNL     1      43.792 -19.624   2.750  1.00  0.00     0.010 A 
HETATM   24  C   UNL     1      43.143 -18.545   2.145  1.00  0.00     0.030 A 
BRANCH  20  25
HETATM   25  C   UNL     1      44.703 -18.112   6.145  1.00  0.00     0.418 C 
HETATM   26  F   UNL     1      46.063 -18.191   6.208  1.00  0.00    -0.166 F 
HETATM   27  F   UNL     1      44.386 -16.912   6.709  1.00  0.00    -0.166 F 
HETATM   28  F   UNL     1      44.236 -19.058   7.007  1.00  0.00    -0.166 F 
ENDBRANCH  20  25
ENDBRANCH   1  18
TORSDOF 4
ENDMDL
