MODEL 1
REMARK VINA RESULT:      -7.8      0.000      0.000
REMARK  10 active torsions:
REMARK  status: ('A' for Active; 'I' for Inactive)
REMARK    1  A    between atoms: C_2  and  C_3 
REMARK    2  A    between atoms: C_3  and  N_4 
REMARK    3  A    between atoms: C_10  and  C_11 
REMARK    4  A    between atoms: C_11  and  C_12 
REMARK    5  A    between atoms: C_12  and  S_13 
REMARK    6  A    between atoms: S_13  and  C_14 
REMARK    7  A    between atoms: N_15  and  C_16 
REMARK    8  A    between atoms: C_23  and  C_24 
REMARK    9  A    between atoms: C_24  and  N_25 
REMARK   10  A    between atoms: C_33  and  N_34 
ROOT
HETATM    1  S   UNL     1      42.251 -12.496   6.234  1.00  0.00    -0.082 SA
ENDROOT
BRANCH   1   2
HETATM    2  C   UNL     1      41.095 -11.090   6.221  1.00  0.00     0.166 C 
BRANCH   2   3
HETATM    3  C   UNL     1      41.430 -10.111   7.341  1.00  0.00     0.177 C 
HETATM    4  O   UNL     1      41.858  -8.971   7.115  1.00  0.00    -0.291 OA
BRANCH   3   5
HETATM    5  C   UNL     1      41.175 -10.545   8.752  1.00  0.00     0.117 A 
HETATM    6  C   UNL     1      39.791 -10.739   9.222  1.00  0.00     0.266 A 
HETATM    7  N   UNL     1      39.630 -11.019  10.538  1.00  0.00    -0.274 N 
HETATM    8  O   UNL     1      38.836 -10.665   8.454  1.00  0.00    -0.267 OA
HETATM    9  C   UNL     1      40.636 -11.201  11.438  1.00  0.00     0.330 A 
HETATM   10  H   UNL     1      38.692 -11.149  10.885  1.00  0.00     0.173 HD
HETATM   11  N   UNL     1      41.932 -11.066  10.945  1.00  0.00    -0.289 N 
HETATM   12  O   UNL     1      40.352 -11.467  12.604  1.00  0.00    -0.246 OA
HETATM   13  C   UNL     1      42.206 -10.738   9.612  1.00  0.00     0.103 A 
BRANCH  11  14
HETATM   14  C   UNL     1      43.017 -11.207  11.930  1.00  0.00     0.135 C 
BRANCH  14  15
HETATM   15  C   UNL     1      43.535  -9.872  12.481  1.00  0.00     0.016 C 
HETATM   16  C   UNL     1      43.086  -9.596  13.907  1.00  0.00     0.006 C 
ENDBRANCH  14  15
ENDBRANCH  11  14
BRANCH  13  17
HETATM   17  N   UNL     1      43.527 -10.603   9.190  1.00  0.00    -0.287 NA
HETATM   18  H   UNL     1      43.593 -10.453   8.176  1.00  0.00     0.125 HD
HETATM   19  H   UNL     1      44.102 -11.400   9.447  1.00  0.00     0.125 HD
ENDBRANCH  13  17
ENDBRANCH   3   5
ENDBRANCH   2   3
ENDBRANCH   1   2
BRANCH   1  20
HETATM   20  C   UNL     1      41.619 -13.446   4.932  1.00  0.00     0.196 A 
HETATM   21  N   UNL     1      41.843 -14.800   4.760  1.00  0.00    -0.274 N 
HETATM   22  C   UNL     1      41.286 -15.078   3.510  1.00  0.00     0.166 A 
HETATM   23  N   UNL     1      40.806 -13.963   2.995  1.00  0.00    -0.131 NA
HETATM   24  N   UNL     1      41.014 -12.948   3.879  1.00  0.00    -0.122 NA
BRANCH  21  25
HETATM   25  C   UNL     1      42.455 -15.712   5.657  1.00  0.00     0.043 A 
HETATM   26  C   UNL     1      41.658 -16.508   6.492  1.00  0.00     0.032 A 
HETATM   27  C   UNL     1      42.255 -17.418   7.367  1.00  0.00     0.026 A 
HETATM   28  C   UNL     1      43.642 -17.529   7.412  1.00  0.00     0.034 A 
HETATM   29 CL   UNL     1      44.376 -18.651   8.488  1.00  0.00    -0.084 Cl
HETATM   30  C   UNL     1      44.440 -16.733   6.591  1.00  0.00     0.026 A 
HETATM   31  C   UNL     1      43.850 -15.820   5.710  1.00  0.00     0.032 A 
ENDBRANCH  21  25
BRANCH  22  32
HETATM   32  C   UNL     1      41.138 -16.434   2.883  1.00  0.00     0.254 C 
HETATM   33  C   UNL     1      40.179 -16.417   1.688  1.00  0.00     0.049 C 
BRANCH  32  34
HETATM   34  N   UNL     1      42.464 -17.100   2.440  1.00  0.00    -0.068 N 
HETATM   35  H   UNL     1      43.212 -16.470   2.752  1.00  0.00     0.279 HD
HETATM   36  C   UNL     1      42.764 -18.440   3.067  1.00  0.00     0.270 C 
HETATM   37  C   UNL     1      42.591 -17.180   0.939  1.00  0.00     0.270 C 
ENDBRANCH  32  34
ENDBRANCH  22  32
ENDBRANCH   1  20
TORSDOF 10
ENDMDL
MODEL 2
REMARK VINA RESULT:      -7.8      6.033      8.814
REMARK  10 active torsions:
REMARK  status: ('A' for Active; 'I' for Inactive)
REMARK    1  A    between atoms: C_2  and  C_3 
REMARK    2  A    between atoms: C_3  and  N_4 
REMARK    3  A    between atoms: C_10  and  C_11 
REMARK    4  A    between atoms: C_11  and  C_12 
REMARK    5  A    between atoms: C_12  and  S_13 
REMARK    6  A    between atoms: S_13  and  C_14 
REMARK    7  A    between atoms: N_15  and  C_16 
REMARK    8  A    between atoms: C_23  and  C_24 
REMARK    9  A    between atoms: C_24  and  N_25 
REMARK   10  A    between atoms: C_33  and  N_34 
ROOT
HETATM    1  S   UNL     1      40.443 -15.502   2.870  1.00  0.00    -0.082 SA
ENDROOT
BRANCH   1   2
HETATM    2  C   UNL     1      41.623 -14.241   3.444  1.00  0.00     0.166 C 
BRANCH   2   3
HETATM    3  C   UNL     1      43.037 -14.812   3.487  1.00  0.00     0.177 C 
HETATM    4  O   UNL     1      44.027 -14.148   3.152  1.00  0.00    -0.291 OA
BRANCH   3   5
HETATM    5  C   UNL     1      43.215 -16.206   4.007  1.00  0.00     0.117 A 
HETATM    6  C   UNL     1      42.905 -16.511   5.415  1.00  0.00     0.266 A 
HETATM    7  N   UNL     1      43.198 -17.762   5.845  1.00  0.00    -0.274 N 
HETATM    8  O   UNL     1      42.393 -15.675   6.155  1.00  0.00    -0.267 OA
HETATM    9  C   UNL     1      43.689 -18.770   5.072  1.00  0.00     0.330 A 
HETATM   10  H   UNL     1      43.002 -17.992   6.808  1.00  0.00     0.173 HD
HETATM   11  N   UNL     1      43.915 -18.461   3.732  1.00  0.00    -0.289 N 
HETATM   12  O   UNL     1      43.898 -19.867   5.585  1.00  0.00    -0.246 OA
HETATM   13  C   UNL     1      43.684 -17.189   3.198  1.00  0.00     0.103 A 
BRANCH  11  14
HETATM   14  C   UNL     1      44.497 -19.535   2.911  1.00  0.00     0.135 C 
BRANCH  14  15
HETATM   15  C   UNL     1      43.461 -20.353   2.129  1.00  0.00     0.016 C 
HETATM   16  C   UNL     1      43.977 -21.715   1.691  1.00  0.00     0.006 C 
ENDBRANCH  14  15
ENDBRANCH  11  14
BRANCH  13  17
HETATM   17  N   UNL     1      43.948 -16.945   1.852  1.00  0.00    -0.287 NA
HETATM   18  H   UNL     1      43.087 -16.874   1.298  1.00  0.00     0.125 HD
HETATM   19  H   UNL     1      44.552 -17.651   1.439  1.00  0.00     0.125 HD
ENDBRANCH  13  17
ENDBRANCH   3   5
ENDBRANCH   2   3
ENDBRANCH   1   2
BRANCH   1  20
HETATM   20  C   UNL     1      40.712 -15.442   1.160  1.00  0.00     0.196 A 
HETATM   21  N   UNL     1      40.025 -14.626   0.280  1.00  0.00    -0.274 N 
HETATM   22  C   UNL     1      40.461 -15.045  -0.979  1.00  0.00     0.166 A 
HETATM   23  N   UNL     1      41.310 -16.043  -0.830  1.00  0.00    -0.131 NA
HETATM   24  N   UNL     1      41.466 -16.291   0.501  1.00  0.00    -0.122 NA
BRANCH  21  25
HETATM   25  C   UNL     1      39.120 -13.576   0.577  1.00  0.00     0.043 A 
HETATM   26  C   UNL     1      39.611 -12.336   1.011  1.00  0.00     0.032 A 
HETATM   27  C   UNL     1      38.725 -11.293   1.291  1.00  0.00     0.026 A 
HETATM   28  C   UNL     1      37.355 -11.489   1.144  1.00  0.00     0.034 A 
HETATM   29 CL   UNL     1      36.265 -10.205   1.488  1.00  0.00    -0.084 Cl
HETATM   30  C   UNL     1      36.860 -12.723   0.723  1.00  0.00     0.026 A 
HETATM   31  C   UNL     1      37.740 -13.772   0.439  1.00  0.00     0.032 A 
ENDBRANCH  21  25
BRANCH  22  32
HETATM   32  C   UNL     1      40.127 -14.405  -2.294  1.00  0.00     0.254 C 
HETATM   33  C   UNL     1      41.252 -14.571  -3.321  1.00  0.00     0.049 C 
BRANCH  32  34
HETATM   34  N   UNL     1      38.801 -14.883  -2.937  1.00  0.00    -0.068 N 
HETATM   35  H   UNL     1      38.318 -15.427  -2.213  1.00  0.00     0.279 HD
HETATM   36  C   UNL     1      37.840 -13.792  -3.343  1.00  0.00     0.270 C 
HETATM   37  C   UNL     1      39.032 -15.835  -4.085  1.00  0.00     0.270 C 
ENDBRANCH  32  34
ENDBRANCH  22  32
ENDBRANCH   1  20
TORSDOF 10
ENDMDL
MODEL 3
REMARK VINA RESULT:      -7.7      5.570      8.547
REMARK  10 active torsions:
REMARK  status: ('A' for Active; 'I' for Inactive)
REMARK    1  A    between atoms: C_2  and  C_3 
REMARK    2  A    between atoms: C_3  and  N_4 
REMARK    3  A    between atoms: C_10  and  C_11 
REMARK    4  A    between atoms: C_11  and  C_12 
REMARK    5  A    between atoms: C_12  and  S_13 
REMARK    6  A    between atoms: S_13  and  C_14 
REMARK    7  A    between atoms: N_15  and  C_16 
REMARK    8  A    between atoms: C_23  and  C_24 
REMARK    9  A    between atoms: C_24  and  N_25 
REMARK   10  A    between atoms: C_33  and  N_34 
ROOT
HETATM    1  S   UNL     1      40.586 -14.732   5.597  1.00  0.00    -0.082 SA
ENDROOT
BRANCH   1   2
HETATM    2  C   UNL     1      41.226 -16.344   6.150  1.00  0.00     0.166 C 
BRANCH   2   3
HETATM    3  C   UNL     1      42.731 -16.430   5.919  1.00  0.00     0.177 C 
HETATM    4  O   UNL     1      43.473 -15.444   6.030  1.00  0.00    -0.291 OA
BRANCH   3   5
HETATM    5  C   UNL     1      43.317 -17.772   5.601  1.00  0.00     0.117 A 
HETATM    6  C   UNL     1      43.608 -18.723   6.688  1.00  0.00     0.266 A 
HETATM    7  N   UNL     1      44.242 -19.869   6.340  1.00  0.00    -0.274 N 
HETATM    8  O   UNL     1      43.278 -18.492   7.848  1.00  0.00    -0.267 OA
HETATM    9  C   UNL     1      44.568 -20.239   5.070  1.00  0.00     0.330 A 
HETATM   10  H   UNL     1      44.459 -20.533   7.068  1.00  0.00     0.173 HD
HETATM   11  N   UNL     1      44.225 -19.340   4.062  1.00  0.00    -0.289 N 
HETATM   12  O   UNL     1      45.130 -21.317   4.889  1.00  0.00    -0.246 OA
HETATM   13  C   UNL     1      43.605 -18.112   4.320  1.00  0.00     0.103 A 
BRANCH  11  14
HETATM   14  C   UNL     1      44.628 -19.715   2.697  1.00  0.00     0.135 C 
BRANCH  14  15
HETATM   15  C   UNL     1      43.542 -20.459   1.909  1.00  0.00     0.016 C 
HETATM   16  C   UNL     1      43.855 -21.932   1.696  1.00  0.00     0.006 C 
ENDBRANCH  14  15
ENDBRANCH  11  14
BRANCH  13  17
HETATM   17  N   UNL     1      43.306 -17.253   3.264  1.00  0.00    -0.287 NA
HETATM   18  H   UNL     1      42.369 -17.426   2.882  1.00  0.00     0.125 HD
HETATM   19  H   UNL     1      43.987 -17.307   2.512  1.00  0.00     0.125 HD
ENDBRANCH  13  17
ENDBRANCH   3   5
ENDBRANCH   2   3
ENDBRANCH   1   2
BRANCH   1  20
HETATM   20  C   UNL     1      40.525 -14.980   3.884  1.00  0.00     0.196 A 
HETATM   21  N   UNL     1      40.178 -14.013   2.957  1.00  0.00    -0.274 N 
HETATM   22  C   UNL     1      40.106 -14.712   1.751  1.00  0.00     0.166 A 
HETATM   23  N   UNL     1      40.366 -15.986   1.976  1.00  0.00    -0.131 NA
HETATM   24  N   UNL     1      40.625 -16.152   3.303  1.00  0.00    -0.122 NA
BRANCH  21  25
HETATM   25  C   UNL     1      39.980 -12.625   3.166  1.00  0.00     0.043 A 
HETATM   26  C   UNL     1      38.718 -12.152   3.553  1.00  0.00     0.032 A 
HETATM   27  C   UNL     1      38.521 -10.787   3.775  1.00  0.00     0.026 A 
HETATM   28  C   UNL     1      39.579  -9.897   3.606  1.00  0.00     0.034 A 
HETATM   29 CL   UNL     1      39.337  -8.218   3.881  1.00  0.00    -0.084 Cl
HETATM   30  C   UNL     1      40.834 -10.361   3.211  1.00  0.00     0.026 A 
HETATM   31  C   UNL     1      41.040 -11.726   2.989  1.00  0.00     0.032 A 
ENDBRANCH  21  25
BRANCH  22  32
HETATM   32  C   UNL     1      39.891 -14.119   0.390  1.00  0.00     0.254 C 
HETATM   33  C   UNL     1      40.918 -14.621  -0.630  1.00  0.00     0.049 C 
BRANCH  32  34
HETATM   34  N   UNL     1      38.473 -14.326  -0.199  1.00  0.00    -0.068 N 
HETATM   35  H   UNL     1      38.378 -15.337  -0.351  1.00  0.00     0.279 HD
HETATM   36  C   UNL     1      37.327 -13.934   0.703  1.00  0.00     0.270 C 
HETATM   37  C   UNL     1      38.317 -13.687  -1.557  1.00  0.00     0.270 C 
ENDBRANCH  32  34
ENDBRANCH  22  32
ENDBRANCH   1  20
TORSDOF 10
ENDMDL
MODEL 4
REMARK VINA RESULT:      -7.5      2.074      2.626
REMARK  10 active torsions:
REMARK  status: ('A' for Active; 'I' for Inactive)
REMARK    1  A    between atoms: C_2  and  C_3 
REMARK    2  A    between atoms: C_3  and  N_4 
REMARK    3  A    between atoms: C_10  and  C_11 
REMARK    4  A    between atoms: C_11  and  C_12 
REMARK    5  A    between atoms: C_12  and  S_13 
REMARK    6  A    between atoms: S_13  and  C_14 
REMARK    7  A    between atoms: N_15  and  C_16 
REMARK    8  A    between atoms: C_23  and  C_24 
REMARK    9  A    between atoms: C_24  and  N_25 
REMARK   10  A    between atoms: C_33  and  N_34 
ROOT
HETATM    1  S   UNL     1      45.054 -14.088   6.496  1.00  0.00    -0.082 SA
ENDROOT
BRANCH   1   2
HETATM    2  C   UNL     1      44.170 -13.827   8.066  1.00  0.00     0.166 C 
BRANCH   2   3
HETATM    3  C   UNL     1      44.663 -12.557   8.752  1.00  0.00     0.177 C 
HETATM    4  O   UNL     1      45.833 -12.163   8.649  1.00  0.00    -0.291 OA
BRANCH   3   5
HETATM    5  C   UNL     1      43.669 -11.747   9.527  1.00  0.00     0.117 A 
HETATM    6  C   UNL     1      42.780 -10.805   8.822  1.00  0.00     0.266 A 
HETATM    7  N   UNL     1      41.988 -10.023   9.596  1.00  0.00    -0.274 N 
HETATM    8  O   UNL     1      42.752 -10.744   7.597  1.00  0.00    -0.267 OA
HETATM    9  C   UNL     1      41.898 -10.084  10.953  1.00  0.00     0.330 A 
HETATM   10  H   UNL     1      41.377  -9.365   9.137  1.00  0.00     0.173 HD
HETATM   11  N   UNL     1      42.711 -11.027  11.580  1.00  0.00    -0.289 N 
HETATM   12  O   UNL     1      41.125  -9.326  11.534  1.00  0.00    -0.246 OA
HETATM   13  C   UNL     1      43.594 -11.854  10.876  1.00  0.00     0.103 A 
BRANCH  11  14
HETATM   14  C   UNL     1      42.654 -11.054  13.050  1.00  0.00     0.135 C 
BRANCH  14  15
HETATM   15  C   UNL     1      43.254  -9.812  13.720  1.00  0.00     0.016 C 
HETATM   16  C   UNL     1      42.490  -9.368  14.958  1.00  0.00     0.006 C 
ENDBRANCH  14  15
ENDBRANCH  11  14
BRANCH  13  17
HETATM   17  N   UNL     1      44.390 -12.764  11.569  1.00  0.00    -0.287 NA
HETATM   18  H   UNL     1      44.098 -12.862  12.549  1.00  0.00     0.125 HD
HETATM   19  H   UNL     1      45.376 -12.521  11.539  1.00  0.00     0.125 HD
ENDBRANCH  13  17
ENDBRANCH   3   5
ENDBRANCH   2   3
ENDBRANCH   1   2
BRANCH   1  20
HETATM   20  C   UNL     1      43.731 -14.108   5.379  1.00  0.00     0.196 A 
HETATM   21  N   UNL     1      43.084 -15.249   4.940  1.00  0.00    -0.274 N 
HETATM   22  C   UNL     1      42.222 -14.786   3.945  1.00  0.00     0.166 A 
HETATM   23  N   UNL     1      42.384 -13.485   3.806  1.00  0.00    -0.131 NA
HETATM   24  N   UNL     1      43.323 -13.063   4.698  1.00  0.00    -0.122 NA
BRANCH  21  25
HETATM   25  C   UNL     1      43.224 -16.578   5.414  1.00  0.00     0.043 A 
HETATM   26  C   UNL     1      43.810 -17.552   4.593  1.00  0.00     0.032 A 
HETATM   27  C   UNL     1      43.965 -18.859   5.060  1.00  0.00     0.026 A 
HETATM   28  C   UNL     1      43.532 -19.193   6.341  1.00  0.00     0.034 A 
HETATM   29 CL   UNL     1      43.724 -20.802   6.916  1.00  0.00    -0.084 Cl
HETATM   30  C   UNL     1      42.940 -18.232   7.158  1.00  0.00     0.026 A 
HETATM   31  C   UNL     1      42.783 -16.920   6.699  1.00  0.00     0.032 A 
ENDBRANCH  21  25
BRANCH  22  32
HETATM   32  C   UNL     1      41.185 -15.593   3.219  1.00  0.00     0.254 C 
HETATM   33  C   UNL     1      39.855 -14.845   3.089  1.00  0.00     0.049 C 
BRANCH  32  34
HETATM   34  N   UNL     1      41.608 -16.091   1.814  1.00  0.00    -0.068 N 
HETATM   35  H   UNL     1      42.628 -16.197   1.849  1.00  0.00     0.279 HD
HETATM   36  C   UNL     1      41.067 -17.441   1.409  1.00  0.00     0.270 C 
HETATM   37  C   UNL     1      41.335 -15.069   0.738  1.00  0.00     0.270 C 
ENDBRANCH  32  34
ENDBRANCH  22  32
ENDBRANCH   1  20
TORSDOF 10
ENDMDL
MODEL 5
REMARK VINA RESULT:      -7.5      2.112      3.116
REMARK  10 active torsions:
REMARK  status: ('A' for Active; 'I' for Inactive)
REMARK    1  A    between atoms: C_2  and  C_3 
REMARK    2  A    between atoms: C_3  and  N_4 
REMARK    3  A    between atoms: C_10  and  C_11 
REMARK    4  A    between atoms: C_11  and  C_12 
REMARK    5  A    between atoms: C_12  and  S_13 
REMARK    6  A    between atoms: S_13  and  C_14 
REMARK    7  A    between atoms: N_15  and  C_16 
REMARK    8  A    between atoms: C_23  and  C_24 
REMARK    9  A    between atoms: C_24  and  N_25 
REMARK   10  A    between atoms: C_33  and  N_34 
ROOT
HETATM    1  S   UNL     1      45.138 -14.006   6.565  1.00  0.00    -0.082 SA
ENDROOT
BRANCH   1   2
HETATM    2  C   UNL     1      44.314 -13.744   8.167  1.00  0.00     0.166 C 
BRANCH   2   3
HETATM    3  C   UNL     1      44.691 -12.385   8.746  1.00  0.00     0.177 C 
HETATM    4  O   UNL     1      45.626 -11.711   8.294  1.00  0.00    -0.291 OA
BRANCH   3   5
HETATM    5  C   UNL     1      43.854 -11.842   9.864  1.00  0.00     0.117 A 
HETATM    6  C   UNL     1      44.067 -12.322  11.241  1.00  0.00     0.266 A 
HETATM    7  N   UNL     1      43.200 -11.875  12.182  1.00  0.00    -0.274 N 
HETATM    8  O   UNL     1      44.994 -13.077  11.522  1.00  0.00    -0.267 OA
HETATM    9  C   UNL     1      42.199 -10.975  11.973  1.00  0.00     0.330 A 
HETATM   10  H   UNL     1      43.320 -12.195  13.131  1.00  0.00     0.173 HD
HETATM   11  N   UNL     1      42.064 -10.499  10.669  1.00  0.00    -0.289 N 
HETATM   12  O   UNL     1      41.490 -10.641  12.919  1.00  0.00    -0.246 OA
HETATM   13  C   UNL     1      42.882 -10.928   9.618  1.00  0.00     0.103 A 
BRANCH  11  14
HETATM   14  C   UNL     1      40.948  -9.570  10.433  1.00  0.00     0.135 C 
BRANCH  14  15
HETATM   15  C   UNL     1      39.620 -10.263  10.101  1.00  0.00     0.016 C 
HETATM   16  C   UNL     1      39.074  -9.890   8.731  1.00  0.00     0.006 C 
ENDBRANCH  14  15
ENDBRANCH  11  14
BRANCH  13  17
HETATM   17  N   UNL     1      42.681 -10.423   8.335  1.00  0.00    -0.287 NA
HETATM   18  H   UNL     1      42.430 -11.161   7.666  1.00  0.00     0.125 HD
HETATM   19  H   UNL     1      43.489  -9.918   7.983  1.00  0.00     0.125 HD
ENDBRANCH  13  17
ENDBRANCH   3   5
ENDBRANCH   2   3
ENDBRANCH   1   2
BRANCH   1  20
HETATM   20  C   UNL     1      43.773 -14.019   5.498  1.00  0.00     0.196 A 
HETATM   21  N   UNL     1      43.110 -15.157   5.076  1.00  0.00    -0.274 N 
HETATM   22  C   UNL     1      42.212 -14.687   4.116  1.00  0.00     0.166 A 
HETATM   23  N   UNL     1      42.368 -13.384   3.981  1.00  0.00    -0.131 NA
HETATM   24  N   UNL     1      43.340 -12.969   4.840  1.00  0.00    -0.122 NA
BRANCH  21  25
HETATM   25  C   UNL     1      43.269 -16.489   5.535  1.00  0.00     0.043 A 
HETATM   26  C   UNL     1      42.827 -16.840   6.818  1.00  0.00     0.032 A 
HETATM   27  C   UNL     1      42.967 -18.154   7.270  1.00  0.00     0.026 A 
HETATM   28  C   UNL     1      43.551 -19.113   6.446  1.00  0.00     0.034 A 
HETATM   29 CL   UNL     1      43.722 -20.730   7.001  1.00  0.00    -0.084 Cl
HETATM   30  C   UNL     1      44.003 -18.766   5.172  1.00  0.00     0.026 A 
HETATM   31  C   UNL     1      43.864 -17.453   4.711  1.00  0.00     0.032 A 
ENDBRANCH  21  25
BRANCH  22  32
HETATM   32  C   UNL     1      41.149 -15.490   3.424  1.00  0.00     0.254 C 
HETATM   33  C   UNL     1      39.826 -14.725   3.314  1.00  0.00     0.049 C 
BRANCH  32  34
HETATM   34  N   UNL     1      41.534 -16.011   2.017  1.00  0.00    -0.068 N 
HETATM   35  H   UNL     1      42.516 -15.745   1.878  1.00  0.00     0.279 HD
HETATM   36  C   UNL     1      41.482 -17.508   1.838  1.00  0.00     0.270 C 
HETATM   37  C   UNL     1      40.760 -15.321   0.920  1.00  0.00     0.270 C 
ENDBRANCH  32  34
ENDBRANCH  22  32
ENDBRANCH   1  20
TORSDOF 10
ENDMDL
MODEL 6
REMARK VINA RESULT:      -7.5      4.371      6.276
REMARK  10 active torsions:
REMARK  status: ('A' for Active; 'I' for Inactive)
REMARK    1  A    between atoms: C_2  and  C_3 
REMARK    2  A    between atoms: C_3  and  N_4 
REMARK    3  A    between atoms: C_10  and  C_11 
REMARK    4  A    between atoms: C_11  and  C_12 
REMARK    5  A    between atoms: C_12  and  S_13 
REMARK    6  A    between atoms: S_13  and  C_14 
REMARK    7  A    between atoms: N_15  and  C_16 
REMARK    8  A    between atoms: C_23  and  C_24 
REMARK    9  A    between atoms: C_24  and  N_25 
REMARK   10  A    between atoms: C_33  and  N_34 
ROOT
HETATM    1  S   UNL     1      39.170 -14.725   2.760  1.00  0.00    -0.082 SA
ENDROOT
BRANCH   1   2
HETATM    2  C   UNL     1      39.900 -13.196   3.425  1.00  0.00     0.166 C 
BRANCH   2   3
HETATM    3  C   UNL     1      40.046 -13.288   4.940  1.00  0.00     0.177 C 
HETATM    4  O   UNL     1      39.176 -12.868   5.714  1.00  0.00    -0.291 OA
BRANCH   3   5
HETATM    5  C   UNL     1      41.268 -13.961   5.487  1.00  0.00     0.117 A 
HETATM    6  C   UNL     1      42.563 -13.255   5.476  1.00  0.00     0.266 A 
HETATM    7  N   UNL     1      43.645 -13.965   5.879  1.00  0.00    -0.274 N 
HETATM    8  O   UNL     1      42.650 -12.080   5.132  1.00  0.00    -0.267 OA
HETATM    9  C   UNL     1      43.623 -15.241   6.353  1.00  0.00     0.330 A 
HETATM   10  H   UNL     1      44.543 -13.506   5.873  1.00  0.00     0.173 HD
HETATM   11  N   UNL     1      42.373 -15.856   6.404  1.00  0.00    -0.289 N 
HETATM   12  O   UNL     1      44.678 -15.766   6.702  1.00  0.00    -0.246 OA
HETATM   13  C   UNL     1      41.200 -15.225   5.973  1.00  0.00     0.103 A 
BRANCH  11  14
HETATM   14  C   UNL     1      42.358 -17.254   6.863  1.00  0.00     0.135 C 
BRANCH  14  15
HETATM   15  C   UNL     1      42.619 -18.278   5.752  1.00  0.00     0.016 C 
HETATM   16  C   UNL     1      43.696 -19.292   6.110  1.00  0.00     0.006 C 
ENDBRANCH  14  15
ENDBRANCH  11  14
BRANCH  13  17
HETATM   17  N   UNL     1      39.986 -15.905   6.036  1.00  0.00    -0.287 NA
HETATM   18  H   UNL     1      40.041 -16.831   5.595  1.00  0.00     0.125 HD
HETATM   19  H   UNL     1      39.223 -15.382   5.614  1.00  0.00     0.125 HD
ENDBRANCH  13  17
ENDBRANCH   3   5
ENDBRANCH   2   3
ENDBRANCH   1   2
BRANCH   1  20
HETATM   20  C   UNL     1      39.523 -14.545   1.074  1.00  0.00     0.196 A 
HETATM   21  N   UNL     1      40.591 -15.135   0.422  1.00  0.00    -0.274 N 
HETATM   22  C   UNL     1      40.559 -14.573  -0.855  1.00  0.00     0.166 A 
HETATM   23  N   UNL     1      39.566 -13.707  -0.920  1.00  0.00    -0.131 NA
HETATM   24  N   UNL     1      38.923 -13.689   0.281  1.00  0.00    -0.122 NA
BRANCH  21  25
HETATM   25  C   UNL     1      41.489 -16.116   0.915  1.00  0.00     0.043 A 
HETATM   26  C   UNL     1      42.768 -15.736   1.344  1.00  0.00     0.032 A 
HETATM   27  C   UNL     1      43.651 -16.696   1.844  1.00  0.00     0.026 A 
HETATM   28  C   UNL     1      43.260 -18.030   1.910  1.00  0.00     0.034 A 
HETATM   29 CL   UNL     1      44.347 -19.210   2.527  1.00  0.00    -0.084 Cl
HETATM   30  C   UNL     1      41.993 -18.416   1.475  1.00  0.00     0.026 A 
HETATM   31  C   UNL     1      41.101 -17.461   0.975  1.00  0.00     0.032 A 
ENDBRANCH  21  25
BRANCH  22  32
HETATM   32  C   UNL     1      41.424 -14.960  -2.019  1.00  0.00     0.254 C 
HETATM   33  C   UNL     1      40.656 -15.771  -3.067  1.00  0.00     0.049 C 
BRANCH  32  34
HETATM   34  N   UNL     1      42.129 -13.779  -2.732  1.00  0.00    -0.068 N 
HETATM   35  H   UNL     1      42.923 -14.190  -3.237  1.00  0.00     0.279 HD
HETATM   36  C   UNL     1      41.306 -13.059  -3.773  1.00  0.00     0.270 C 
HETATM   37  C   UNL     1      42.724 -12.794  -1.757  1.00  0.00     0.270 C 
ENDBRANCH  32  34
ENDBRANCH  22  32
ENDBRANCH   1  20
TORSDOF 10
ENDMDL
MODEL 7
REMARK VINA RESULT:      -7.4      4.833      9.084
REMARK  10 active torsions:
REMARK  status: ('A' for Active; 'I' for Inactive)
REMARK    1  A    between atoms: C_2  and  C_3 
REMARK    2  A    between atoms: C_3  and  N_4 
REMARK    3  A    between atoms: C_10  and  C_11 
REMARK    4  A    between atoms: C_11  and  C_12 
REMARK    5  A    between atoms: C_12  and  S_13 
REMARK    6  A    between atoms: S_13  and  C_14 
REMARK    7  A    between atoms: N_15  and  C_16 
REMARK    8  A    between atoms: C_23  and  C_24 
REMARK    9  A    between atoms: C_24  and  N_25 
REMARK   10  A    between atoms: C_33  and  N_34 
ROOT
HETATM    1  S   UNL     1      40.126 -14.694   3.114  1.00  0.00    -0.082 SA
ENDROOT
BRANCH   1   2
HETATM    2  C   UNL     1      40.147 -13.087   2.258  1.00  0.00     0.166 C 
BRANCH   2   3
HETATM    3  C   UNL     1      41.382 -12.969   1.372  1.00  0.00     0.177 C 
HETATM    4  O   UNL     1      42.530 -12.981   1.836  1.00  0.00    -0.291 OA
BRANCH   3   5
HETATM    5  C   UNL     1      41.178 -12.890  -0.110  1.00  0.00     0.117 A 
HETATM    6  C   UNL     1      40.704 -11.635  -0.721  1.00  0.00     0.266 A 
HETATM    7  N   UNL     1      40.432 -11.670  -2.048  1.00  0.00    -0.274 N 
HETATM    8  O   UNL     1      40.578 -10.608  -0.061  1.00  0.00    -0.267 OA
HETATM    9  C   UNL     1      40.622 -12.741  -2.868  1.00  0.00     0.330 A 
HETATM   10  H   UNL     1      40.099 -10.826  -2.488  1.00  0.00     0.173 HD
HETATM   11  N   UNL     1      41.126 -13.893  -2.265  1.00  0.00    -0.289 N 
HETATM   12  O   UNL     1      40.348 -12.635  -4.061  1.00  0.00    -0.246 OA
HETATM   13  C   UNL     1      41.402 -13.973  -0.895  1.00  0.00     0.103 A 
BRANCH  11  14
HETATM   14  C   UNL     1      41.279 -15.066  -3.141  1.00  0.00     0.135 C 
BRANCH  14  15
HETATM   15  C   UNL     1      40.125 -16.071  -3.043  1.00  0.00     0.016 C 
HETATM   16  C   UNL     1      39.156 -15.989  -4.213  1.00  0.00     0.006 C 
ENDBRANCH  14  15
ENDBRANCH  11  14
BRANCH  13  17
HETATM   17  N   UNL     1      41.889 -15.162  -0.356  1.00  0.00    -0.287 NA
HETATM   18  H   UNL     1      41.601 -15.287   0.622  1.00  0.00     0.125 HD
HETATM   19  H   UNL     1      42.900 -15.233  -0.417  1.00  0.00     0.125 HD
ENDBRANCH  13  17
ENDBRANCH   3   5
ENDBRANCH   2   3
ENDBRANCH   1   2
BRANCH   1  20
HETATM   20  C   UNL     1      41.361 -14.444   4.301  1.00  0.00     0.196 A 
HETATM   21  N   UNL     1      42.405 -15.316   4.553  1.00  0.00    -0.274 N 
HETATM   22  C   UNL     1      43.026 -14.782   5.683  1.00  0.00     0.166 A 
HETATM   23  N   UNL     1      42.371 -13.702   6.065  1.00  0.00    -0.131 NA
HETATM   24  N   UNL     1      41.335 -13.493   5.206  1.00  0.00    -0.122 NA
BRANCH  21  25
HETATM   25  C   UNL     1      42.789 -16.464   3.815  1.00  0.00     0.043 A 
HETATM   26  C   UNL     1      43.633 -16.327   2.704  1.00  0.00     0.032 A 
HETATM   27  C   UNL     1      44.027 -17.456   1.982  1.00  0.00     0.026 A 
HETATM   28  C   UNL     1      43.576 -18.716   2.365  1.00  0.00     0.034 A 
HETATM   29 CL   UNL     1      44.062 -20.106   1.478  1.00  0.00    -0.084 Cl
HETATM   30  C   UNL     1      42.727 -18.858   3.463  1.00  0.00     0.026 A 
HETATM   31  C   UNL     1      42.330 -17.733   4.193  1.00  0.00     0.032 A 
ENDBRANCH  21  25
BRANCH  22  32
HETATM   32  C   UNL     1      44.300 -15.266   6.311  1.00  0.00     0.254 C 
HETATM   33  C   UNL     1      44.995 -14.172   7.128  1.00  0.00     0.049 C 
BRANCH  32  34
HETATM   34  N   UNL     1      44.155 -16.526   7.200  1.00  0.00    -0.068 N 
HETATM   35  H   UNL     1      44.603 -16.292   8.094  1.00  0.00     0.279 HD
HETATM   36  C   UNL     1      42.740 -16.928   7.539  1.00  0.00     0.270 C 
HETATM   37  C   UNL     1      44.921 -17.705   6.651  1.00  0.00     0.270 C 
ENDBRANCH  32  34
ENDBRANCH  22  32
ENDBRANCH   1  20
TORSDOF 10
ENDMDL
MODEL 8
REMARK VINA RESULT:      -7.4      5.875      8.850
REMARK  10 active torsions:
REMARK  status: ('A' for Active; 'I' for Inactive)
REMARK    1  A    between atoms: C_2  and  C_3 
REMARK    2  A    between atoms: C_3  and  N_4 
REMARK    3  A    between atoms: C_10  and  C_11 
REMARK    4  A    between atoms: C_11  and  C_12 
REMARK    5  A    between atoms: C_12  and  S_13 
REMARK    6  A    between atoms: S_13  and  C_14 
REMARK    7  A    between atoms: N_15  and  C_16 
REMARK    8  A    between atoms: C_23  and  C_24 
REMARK    9  A    between atoms: C_24  and  N_25 
REMARK   10  A    between atoms: C_33  and  N_34 
ROOT
HETATM    1  S   UNL     1      40.487 -14.515   4.447  1.00  0.00    -0.082 SA
ENDROOT
BRANCH   1   2
HETATM    2  C   UNL     1      41.690 -15.339   5.537  1.00  0.00     0.166 C 
BRANCH   2   3
HETATM    3  C   UNL     1      41.356 -16.820   5.679  1.00  0.00     0.177 C 
HETATM    4  O   UNL     1      40.229 -17.213   6.011  1.00  0.00    -0.291 OA
BRANCH   3   5
HETATM    5  C   UNL     1      42.426 -17.816   5.350  1.00  0.00     0.117 A 
HETATM    6  C   UNL     1      43.311 -18.322   6.414  1.00  0.00     0.266 A 
HETATM    7  N   UNL     1      44.328 -19.130   6.026  1.00  0.00    -0.274 N 
HETATM    8  O   UNL     1      43.126 -18.035   7.593  1.00  0.00    -0.267 OA
HETATM    9  C   UNL     1      44.554 -19.562   4.755  1.00  0.00     0.330 A 
HETATM   10  H   UNL     1      44.952 -19.483   6.735  1.00  0.00     0.173 HD
HETATM   11  N   UNL     1      43.662 -19.109   3.784  1.00  0.00    -0.289 N 
HETATM   12  O   UNL     1      45.507 -20.308   4.539  1.00  0.00    -0.246 OA
HETATM   13  C   UNL     1      42.604 -18.240   4.074  1.00  0.00     0.103 A 
BRANCH  11  14
HETATM   14  C   UNL     1      43.941 -19.531   2.402  1.00  0.00     0.135 C 
BRANCH  14  15
HETATM   15  C   UNL     1      43.226 -20.824   1.990  1.00  0.00     0.016 C 
HETATM   16  C   UNL     1      44.182 -21.949   1.625  1.00  0.00     0.006 C 
ENDBRANCH  14  15
ENDBRANCH  11  14
BRANCH  13  17
HETATM   17  N   UNL     1      41.760 -17.813   3.051  1.00  0.00    -0.287 NA
HETATM   18  H   UNL     1      42.260 -17.258   2.346  1.00  0.00     0.125 HD
HETATM   19  H   UNL     1      40.969 -17.276   3.397  1.00  0.00     0.125 HD
ENDBRANCH  13  17
ENDBRANCH   3   5
ENDBRANCH   2   3
ENDBRANCH   1   2
BRANCH   1  20
HETATM   20  C   UNL     1      41.358 -14.509   2.950  1.00  0.00     0.196 A 
HETATM   21  N   UNL     1      40.831 -14.127   1.730  1.00  0.00    -0.274 N 
HETATM   22  C   UNL     1      41.834 -14.447   0.814  1.00  0.00     0.166 A 
HETATM   23  N   UNL     1      42.846 -14.996   1.458  1.00  0.00    -0.131 NA
HETATM   24  N   UNL     1      42.549 -15.035   2.787  1.00  0.00    -0.122 NA
BRANCH  21  25
HETATM   25  C   UNL     1      39.581 -13.512   1.465  1.00  0.00     0.043 A 
HETATM   26  C   UNL     1      39.436 -12.128   1.635  1.00  0.00     0.032 A 
HETATM   27  C   UNL     1      38.212 -11.515   1.362  1.00  0.00     0.026 A 
HETATM   28  C   UNL     1      37.134 -12.281   0.925  1.00  0.00     0.034 A 
HETATM   29 CL   UNL     1      35.628 -11.526   0.587  1.00  0.00    -0.084 Cl
HETATM   30  C   UNL     1      37.269 -13.660   0.765  1.00  0.00     0.026 A 
HETATM   31  C   UNL     1      38.492 -14.282   1.034  1.00  0.00     0.032 A 
ENDBRANCH  21  25
BRANCH  22  32
HETATM   32  C   UNL     1      41.838 -14.123  -0.652  1.00  0.00     0.254 C 
HETATM   33  C   UNL     1      40.853 -14.994  -1.439  1.00  0.00     0.049 C 
BRANCH  32  34
HETATM   34  N   UNL     1      41.563 -12.638  -0.995  1.00  0.00    -0.068 N 
HETATM   35  H   UNL     1      41.187 -12.217  -0.138  1.00  0.00     0.279 HD
HETATM   36  C   UNL     1      42.775 -11.817  -1.361  1.00  0.00     0.270 C 
HETATM   37  C   UNL     1      40.485 -12.481  -2.039  1.00  0.00     0.270 C 
ENDBRANCH  32  34
ENDBRANCH  22  32
ENDBRANCH   1  20
TORSDOF 10
ENDMDL
MODEL 9
REMARK VINA RESULT:      -7.3      5.183      8.023
REMARK  10 active torsions:
REMARK  status: ('A' for Active; 'I' for Inactive)
REMARK    1  A    between atoms: C_2  and  C_3 
REMARK    2  A    between atoms: C_3  and  N_4 
REMARK    3  A    between atoms: C_10  and  C_11 
REMARK    4  A    between atoms: C_11  and  C_12 
REMARK    5  A    between atoms: C_12  and  S_13 
REMARK    6  A    between atoms: S_13  and  C_14 
REMARK    7  A    between atoms: N_15  and  C_16 
REMARK    8  A    between atoms: C_23  and  C_24 
REMARK    9  A    between atoms: C_24  and  N_25 
REMARK   10  A    between atoms: C_33  and  N_34 
ROOT
HETATM    1  S   UNL     1      42.741 -13.578   2.593  1.00  0.00    -0.082 SA
ENDROOT
BRANCH   1   2
HETATM    2  C   UNL     1      41.258 -13.014   3.485  1.00  0.00     0.166 C 
BRANCH   2   3
HETATM    3  C   UNL     1      40.800 -14.072   4.484  1.00  0.00     0.177 C 
HETATM    4  O   UNL     1      39.609 -14.219   4.790  1.00  0.00    -0.291 OA
BRANCH   3   5
HETATM    5  C   UNL     1      41.836 -14.987   5.062  1.00  0.00     0.117 A 
HETATM    6  C   UNL     1      42.880 -14.447   5.951  1.00  0.00     0.266 A 
HETATM    7  N   UNL     1      43.850 -15.308   6.343  1.00  0.00    -0.274 N 
HETATM    8  O   UNL     1      42.861 -13.278   6.327  1.00  0.00    -0.267 OA
HETATM    9  C   UNL     1      43.900 -16.635   6.041  1.00  0.00     0.330 A 
HETATM   10  H   UNL     1      44.580 -14.960   6.946  1.00  0.00     0.173 HD
HETATM   11  N   UNL     1      42.864 -17.123   5.246  1.00  0.00    -0.289 N 
HETATM   12  O   UNL     1      44.830 -17.311   6.475  1.00  0.00    -0.246 OA
HETATM   13  C   UNL     1      41.838 -16.308   4.755  1.00  0.00     0.103 A 
BRANCH  11  14
HETATM   14  C   UNL     1      42.950 -18.544   4.873  1.00  0.00     0.135 C 
BRANCH  14  15
HETATM   15  C   UNL     1      43.860 -18.819   3.670  1.00  0.00     0.016 C 
HETATM   16  C   UNL     1      43.093 -19.158   2.401  1.00  0.00     0.006 C 
ENDBRANCH  14  15
ENDBRANCH  11  14
BRANCH  13  17
HETATM   17  N   UNL     1      40.842 -16.859   3.951  1.00  0.00    -0.287 NA
HETATM   18  H   UNL     1      40.592 -17.811   4.246  1.00  0.00     0.125 HD
HETATM   19  H   UNL     1      41.098 -16.873   2.967  1.00  0.00     0.125 HD
ENDBRANCH  13  17
ENDBRANCH   3   5
ENDBRANCH   2   3
ENDBRANCH   1   2
BRANCH   1  20
HETATM   20  C   UNL     1      42.018 -14.379   1.239  1.00  0.00     0.196 A 
HETATM   21  N   UNL     1      41.531 -13.743   0.111  1.00  0.00    -0.274 N 
HETATM   22  C   UNL     1      40.905 -14.763  -0.608  1.00  0.00     0.166 A 
HETATM   23  N   UNL     1      41.003 -15.890   0.070  1.00  0.00    -0.131 NA
HETATM   24  N   UNL     1      41.695 -15.651   1.219  1.00  0.00    -0.122 NA
BRANCH  21  25
HETATM   25  C   UNL     1      41.668 -12.381  -0.258  1.00  0.00     0.043 A 
HETATM   26  C   UNL     1      42.745 -11.982  -1.062  1.00  0.00     0.032 A 
HETATM   27  C   UNL     1      42.877 -10.645  -1.442  1.00  0.00     0.026 A 
HETATM   28  C   UNL     1      41.939  -9.708  -1.017  1.00  0.00     0.034 A 
HETATM   29 CL   UNL     1      42.100  -8.062  -1.485  1.00  0.00    -0.084 Cl
HETATM   30  C   UNL     1      40.871 -10.096  -0.208  1.00  0.00     0.026 A 
HETATM   31  C   UNL     1      40.731 -11.434   0.175  1.00  0.00     0.032 A 
ENDBRANCH  21  25
BRANCH  22  32
HETATM   32  C   UNL     1      40.316 -14.649  -1.983  1.00  0.00     0.254 C 
HETATM   33  C   UNL     1      40.877 -15.704  -2.943  1.00  0.00     0.049 C 
BRANCH  32  34
HETATM   34  N   UNL     1      38.769 -14.707  -2.040  1.00  0.00    -0.068 N 
HETATM   35  H   UNL     1      38.511 -15.645  -1.712  1.00  0.00     0.279 HD
HETATM   36  C   UNL     1      38.045 -13.739  -1.136  1.00  0.00     0.270 C 
HETATM   37  C   UNL     1      38.243 -14.605  -3.451  1.00  0.00     0.270 C 
ENDBRANCH  32  34
ENDBRANCH  22  32
ENDBRANCH   1  20
TORSDOF 10
ENDMDL
MODEL 10
REMARK VINA RESULT:      -7.2      6.703      9.603
REMARK  10 active torsions:
REMARK  status: ('A' for Active; 'I' for Inactive)
REMARK    1  A    between atoms: C_2  and  C_3 
REMARK    2  A    between atoms: C_3  and  N_4 
REMARK    3  A    between atoms: C_10  and  C_11 
REMARK    4  A    between atoms: C_11  and  C_12 
REMARK    5  A    between atoms: C_12  and  S_13 
REMARK    6  A    between atoms: S_13  and  C_14 
REMARK    7  A    between atoms: N_15  and  C_16 
REMARK    8  A    between atoms: C_23  and  C_24 
REMARK    9  A    between atoms: C_24  and  N_25 
REMARK   10  A    between atoms: C_33  and  N_34 
ROOT
HETATM    1  S   UNL     1      40.149 -14.338   1.780  1.00  0.00    -0.082 SA
ENDROOT
BRANCH   1   2
HETATM    2  C   UNL     1      41.511 -15.311   2.492  1.00  0.00     0.166 C 
BRANCH   2   3
HETATM    3  C   UNL     1      41.112 -16.777   2.621  1.00  0.00     0.177 C 
HETATM    4  O   UNL     1      40.141 -17.252   2.016  1.00  0.00    -0.291 OA
BRANCH   3   5
HETATM    5  C   UNL     1      41.968 -17.666   3.470  1.00  0.00     0.117 A 
HETATM    6  C   UNL     1      41.829 -17.636   4.937  1.00  0.00     0.266 A 
HETATM    7  N   UNL     1      42.713 -18.380   5.647  1.00  0.00    -0.274 N 
HETATM    8  O   UNL     1      40.947 -16.982   5.485  1.00  0.00    -0.267 OA
HETATM    9  C   UNL     1      43.665 -19.196   5.118  1.00  0.00     0.330 A 
HETATM   10  H   UNL     1      42.643 -18.370   6.653  1.00  0.00     0.173 HD
HETATM   11  N   UNL     1      43.729 -19.243   3.726  1.00  0.00    -0.289 N 
HETATM   12  O   UNL     1      44.396 -19.830   5.876  1.00  0.00    -0.246 OA
HETATM   13  C   UNL     1      42.889 -18.483   2.903  1.00  0.00     0.103 A 
BRANCH  11  14
HETATM   14  C   UNL     1      44.795 -20.082   3.156  1.00  0.00     0.135 C 
BRANCH  14  15
HETATM   15  C   UNL     1      44.404 -21.555   2.985  1.00  0.00     0.016 C 
HETATM   16  C   UNL     1      44.113 -21.937   1.541  1.00  0.00     0.006 C 
ENDBRANCH  14  15
ENDBRANCH  11  14
BRANCH  13  17
HETATM   17  N   UNL     1      43.019 -18.566   1.518  1.00  0.00    -0.287 NA
HETATM   18  H   UNL     1      43.907 -18.166   1.190  1.00  0.00     0.125 HD
HETATM   19  H   UNL     1      42.251 -18.118   1.027  1.00  0.00     0.125 HD
ENDBRANCH  13  17
ENDBRANCH   3   5
ENDBRANCH   2   3
ENDBRANCH   1   2
BRANCH   1  20
HETATM   20  C   UNL     1      41.032 -13.081   0.981  1.00  0.00     0.196 A 
HETATM   21  N   UNL     1      41.233 -13.000  -0.385  1.00  0.00    -0.274 N 
HETATM   22  C   UNL     1      42.125 -11.937  -0.533  1.00  0.00     0.166 A 
HETATM   23  N   UNL     1      42.432 -11.464   0.659  1.00  0.00    -0.131 NA
HETATM   24  N   UNL     1      41.753 -12.176   1.601  1.00  0.00    -0.122 NA
BRANCH  21  25
HETATM   25  C   UNL     1      40.642 -13.783  -1.409  1.00  0.00     0.043 A 
HETATM   26  C   UNL     1      41.242 -14.990  -1.797  1.00  0.00     0.032 A 
HETATM   27  C   UNL     1      40.656 -15.772  -2.794  1.00  0.00     0.026 A 
HETATM   28  C   UNL     1      39.479 -15.350  -3.405  1.00  0.00     0.034 A 
HETATM   29 CL   UNL     1      38.757 -16.314  -4.631  1.00  0.00    -0.084 Cl
HETATM   30  C   UNL     1      38.883 -14.146  -3.031  1.00  0.00     0.026 A 
HETATM   31  C   UNL     1      39.462 -13.357  -2.031  1.00  0.00     0.032 A 
ENDBRANCH  21  25
BRANCH  22  32
HETATM   32  C   UNL     1      42.583 -11.333  -1.829  1.00  0.00     0.254 C 
HETATM   33  C   UNL     1      43.037 -12.396  -2.834  1.00  0.00     0.049 C 
BRANCH  32  34
HETATM   34  N   UNL     1      41.551 -10.410  -2.523  1.00  0.00    -0.068 N 
HETATM   35  H   UNL     1      40.981 -11.023  -3.117  1.00  0.00     0.279 HD
HETATM   36  C   UNL     1      40.581  -9.707  -1.604  1.00  0.00     0.270 C 
HETATM   37  C   UNL     1      42.204  -9.421  -3.456  1.00  0.00     0.270 C 
ENDBRANCH  32  34
ENDBRANCH  22  32
ENDBRANCH   1  20
TORSDOF 10
ENDMDL
