MODEL 1
REMARK VINA RESULT:      -9.2      0.000      0.000
REMARK  8 active torsions:
REMARK  status: ('A' for Active; 'I' for Inactive)
REMARK    1  A    between atoms: C_2  and  N_3 
REMARK       I    between atoms: N_3  and  C_4 
REMARK       I    between atoms: C_4  and  N_5 
REMARK    2  A    between atoms: N_5  and  C_6 
REMARK    3  A    between atoms: N_5  and  C_22 
REMARK    4  A    between atoms: C_6  and  C_7 
REMARK    5  A    between atoms: C_8  and  O_9 
REMARK    6  A    between atoms: C_22  and  C_23 
REMARK    7  A    between atoms: C_23  and  C_24 
REMARK    8  A    between atoms: C_24  and  N_25 
ROOT
HETATM    1  N   UNL     1      43.641 -18.120   4.993  1.00  0.00    -0.309 N 
HETATM    2  C   UNL     1      42.390 -17.615   5.251  1.00  0.00     0.323 C 
HETATM    3  N   UNL     1      42.382 -16.325   5.791  1.00  0.00    -0.330 N 
HETATM    4  O   UNL     1      41.333 -18.189   5.002  1.00  0.00    -0.247 OA
HETATM    5  H   UNL     1      44.367 -17.832   5.632  1.00  0.00     0.170 HD
ENDROOT
BRANCH   3   6
HETATM    6  C   UNL     1      41.076 -15.777   6.176  1.00  0.00     0.170 C 
BRANCH   6   7
HETATM    7  C   UNL     1      40.553 -14.753   5.213  1.00  0.00     0.013 A 
HETATM    8  C   UNL     1      40.148 -13.488   5.618  1.00  0.00     0.170 A 
HETATM    9  N   UNL     1      39.586 -12.572   4.814  1.00  0.00    -0.224 NA
HETATM   10  C   UNL     1      39.413 -12.880   3.520  1.00  0.00     0.072 A 
HETATM   11  C   UNL     1      39.815 -14.124   2.986  1.00  0.00    -0.004 A 
HETATM   12  C   UNL     1      38.815 -11.958   2.673  1.00  0.00     0.072 A 
HETATM   13  C   UNL     1      40.398 -15.057   3.857  1.00  0.00     0.027 A 
HETATM   14  C   UNL     1      39.605 -14.413   1.627  1.00  0.00     0.053 A 
HETATM   15  C   UNL     1      38.984 -13.478   0.805  1.00  0.00     0.103 A 
HETATM   16  C   UNL     1      38.607 -12.241   1.323  1.00  0.00     0.104 A 
HETATM   17  O   UNL     1      38.776 -13.843  -0.499  1.00  0.00    -0.346 OA
HETATM   18  O   UNL     1      38.011 -11.261   0.572  1.00  0.00    -0.346 OA
HETATM   19  C   UNL     1      38.133 -11.523  -0.831  1.00  0.00     0.202 C 
HETATM   20  C   UNL     1      37.823 -12.979  -1.134  1.00  0.00     0.202 C 
BRANCH   8  21
HETATM   21  O   UNL     1      40.269 -13.090   6.916  1.00  0.00    -0.344 OA
HETATM   22  H   UNL     1      39.756 -13.732   7.452  1.00  0.00     0.219 HD
ENDBRANCH   8  21
ENDBRANCH   6   7
ENDBRANCH   3   6
BRANCH   3  23
HETATM   23  C   UNL     1      43.521 -15.404   5.749  1.00  0.00     0.129 C 
BRANCH  23  24
HETATM   24  C   UNL     1      44.042 -15.017   7.144  1.00  0.00     0.048 C 
BRANCH  24  25
HETATM   25  C   UNL     1      44.865 -13.732   7.134  1.00  0.00     0.236 C 
BRANCH  25  26
HETATM   26  N   UNL     1      44.574 -12.883   8.355  1.00  0.00    -0.067 N 
HETATM   27  H   UNL     1      44.294 -13.511   9.121  1.00  0.00     0.280 HD
HETATM   28  C   UNL     1      45.841 -12.159   8.830  1.00  0.00     0.261 C 
HETATM   29  C   UNL     1      45.525 -11.312  10.066  1.00  0.00     0.195 C 
HETATM   30  O   UNL     1      44.481 -10.374   9.785  1.00  0.00    -0.388 OA
HETATM   31  C   UNL     1      43.265 -11.030   9.418  1.00  0.00     0.195 C 
HETATM   32  C   UNL     1      43.453 -11.865   8.146  1.00  0.00     0.261 C 
ENDBRANCH  25  26
ENDBRANCH  24  25
ENDBRANCH  23  24
ENDBRANCH   3  23
BRANCH   1  33
HETATM   33  C   UNL     1      43.954 -19.249   4.203  1.00  0.00     0.036 A 
HETATM   34  C   UNL     1      44.570 -20.400   4.707  1.00  0.00     0.032 A 
HETATM   35  C   UNL     1      44.817 -21.493   3.870  1.00  0.00     0.044 A 
HETATM   36  C   UNL     1      44.437 -21.440   2.536  1.00  0.00     0.116 A 
HETATM   37  C   UNL     1      43.817 -20.310   2.020  1.00  0.00     0.044 A 
HETATM   38  F   UNL     1      44.665 -22.491   1.740  1.00  0.00    -0.206 F 
HETATM   39  C   UNL     1      43.574 -19.215   2.852  1.00  0.00     0.032 A 
ENDBRANCH   1  33
TORSDOF 8
ENDMDL
MODEL 2
REMARK VINA RESULT:      -9.1      4.154      9.430
REMARK  8 active torsions:
REMARK  status: ('A' for Active; 'I' for Inactive)
REMARK    1  A    between atoms: C_2  and  N_3 
REMARK       I    between atoms: N_3  and  C_4 
REMARK       I    between atoms: C_4  and  N_5 
REMARK    2  A    between atoms: N_5  and  C_6 
REMARK    3  A    between atoms: N_5  and  C_22 
REMARK    4  A    between atoms: C_6  and  C_7 
REMARK    5  A    between atoms: C_8  and  O_9 
REMARK    6  A    between atoms: C_22  and  C_23 
REMARK    7  A    between atoms: C_23  and  C_24 
REMARK    8  A    between atoms: C_24  and  N_25 
ROOT
HETATM    1  N   UNL     1      40.054 -12.417   6.800  1.00  0.00    -0.309 N 
HETATM    2  C   UNL     1      41.312 -12.604   6.282  1.00  0.00     0.323 C 
HETATM    3  N   UNL     1      41.410 -13.640   5.348  1.00  0.00    -0.330 N 
HETATM    4  O   UNL     1      42.294 -11.916   6.549  1.00  0.00    -0.247 OA
HETATM    5  H   UNL     1      39.499 -13.253   6.907  1.00  0.00     0.170 HD
ENDROOT
BRANCH   3   6
HETATM    6  C   UNL     1      42.753 -13.946   4.837  1.00  0.00     0.170 C 
BRANCH   6   7
HETATM    7  C   UNL     1      43.161 -15.372   5.055  1.00  0.00     0.013 A 
HETATM    8  C   UNL     1      43.723 -15.811   6.246  1.00  0.00     0.170 A 
HETATM    9  N   UNL     1      44.193 -17.051   6.458  1.00  0.00    -0.224 NA
HETATM   10  C   UNL     1      44.101 -17.946   5.462  1.00  0.00     0.072 A 
HETATM   11  C   UNL     1      43.520 -17.623   4.217  1.00  0.00    -0.004 A 
HETATM   12  C   UNL     1      44.597 -19.227   5.650  1.00  0.00     0.072 A 
HETATM   13  C   UNL     1      43.041 -16.317   4.031  1.00  0.00     0.027 A 
HETATM   14  C   UNL     1      43.453 -18.586   3.195  1.00  0.00     0.053 A 
HETATM   15  C   UNL     1      43.978 -19.858   3.402  1.00  0.00     0.103 A 
HETATM   16  C   UNL     1      44.532 -20.185   4.638  1.00  0.00     0.104 A 
HETATM   17  O   UNL     1      43.915 -20.731   2.349  1.00  0.00    -0.346 OA
HETATM   18  O   UNL     1      45.048 -21.423   4.925  1.00  0.00    -0.346 OA
HETATM   19  C   UNL     1      44.651 -22.399   3.955  1.00  0.00     0.202 C 
HETATM   20  C   UNL     1      44.794 -21.847   2.547  1.00  0.00     0.202 C 
BRANCH   8  21
HETATM   21  O   UNL     1      43.873 -14.970   7.309  1.00  0.00    -0.344 OA
HETATM   22  H   UNL     1      43.071 -14.408   7.333  1.00  0.00     0.219 HD
ENDBRANCH   8  21
ENDBRANCH   6   7
ENDBRANCH   3   6
BRANCH   3  23
HETATM   23  C   UNL     1      40.266 -14.244   4.659  1.00  0.00     0.129 C 
BRANCH  23  24
HETATM   24  C   UNL     1      40.097 -13.749   3.213  1.00  0.00     0.048 C 
BRANCH  24  25
HETATM   25  C   UNL     1      39.081 -14.568   2.421  1.00  0.00     0.236 C 
BRANCH  25  26
HETATM   26  N   UNL     1      39.766 -15.473   1.417  1.00  0.00    -0.067 N 
HETATM   27  H   UNL     1      39.107 -15.649   0.646  1.00  0.00     0.280 HD
HETATM   28  C   UNL     1      40.984 -14.776   0.797  1.00  0.00     0.261 C 
HETATM   29  C   UNL     1      41.656 -15.706  -0.218  1.00  0.00     0.195 C 
HETATM   30  O   UNL     1      42.038 -16.939   0.400  1.00  0.00    -0.388 OA
HETATM   31  C   UNL     1      40.907 -17.646   0.915  1.00  0.00     0.195 C 
HETATM   32  C   UNL     1      40.190 -16.824   1.993  1.00  0.00     0.261 C 
ENDBRANCH  25  26
ENDBRANCH  24  25
ENDBRANCH  23  24
ENDBRANCH   3  23
BRANCH   1  33
HETATM   33  C   UNL     1      39.594 -11.297   7.527  1.00  0.00     0.036 A 
HETATM   34  C   UNL     1      39.259 -11.339   8.885  1.00  0.00     0.032 A 
HETATM   35  C   UNL     1      38.843 -10.179   9.547  1.00  0.00     0.044 A 
HETATM   36  C   UNL     1      38.774  -8.978   8.855  1.00  0.00     0.116 A 
HETATM   37  C   UNL     1      39.111  -8.914   7.510  1.00  0.00     0.044 A 
HETATM   38  F   UNL     1      38.387  -7.867   9.494  1.00  0.00    -0.206 F 
HETATM   39  C   UNL     1      39.521 -10.072   6.845  1.00  0.00     0.032 A 
ENDBRANCH   1  33
TORSDOF 8
ENDMDL
MODEL 3
REMARK VINA RESULT:      -9.1      3.227      4.761
REMARK  8 active torsions:
REMARK  status: ('A' for Active; 'I' for Inactive)
REMARK    1  A    between atoms: C_2  and  N_3 
REMARK       I    between atoms: N_3  and  C_4 
REMARK       I    between atoms: C_4  and  N_5 
REMARK    2  A    between atoms: N_5  and  C_6 
REMARK    3  A    between atoms: N_5  and  C_22 
REMARK    4  A    between atoms: C_6  and  C_7 
REMARK    5  A    between atoms: C_8  and  O_9 
REMARK    6  A    between atoms: C_22  and  C_23 
REMARK    7  A    between atoms: C_23  and  C_24 
REMARK    8  A    between atoms: C_24  and  N_25 
ROOT
HETATM    1  N   UNL     1      43.325 -17.770   3.256  1.00  0.00    -0.309 N 
HETATM    2  C   UNL     1      42.198 -17.191   2.727  1.00  0.00     0.323 C 
HETATM    3  N   UNL     1      42.229 -15.794   2.675  1.00  0.00    -0.330 N 
HETATM    4  O   UNL     1      41.234 -17.807   2.279  1.00  0.00    -0.247 OA
HETATM    5  H   UNL     1      43.783 -17.243   3.986  1.00  0.00     0.170 HD
ENDROOT
BRANCH   3   6
HETATM    6  C   UNL     1      41.009 -15.122   2.208  1.00  0.00     0.170 C 
BRANCH   6   7
HETATM    7  C   UNL     1      41.128 -14.572   0.818  1.00  0.00     0.013 A 
HETATM    8  C   UNL     1      41.129 -15.385  -0.306  1.00  0.00     0.170 A 
HETATM    9  N   UNL     1      41.329 -14.953  -1.562  1.00  0.00    -0.224 NA
HETATM   10  C   UNL     1      41.524 -13.641  -1.760  1.00  0.00     0.072 A 
HETATM   11  C   UNL     1      41.513 -12.712  -0.696  1.00  0.00    -0.004 A 
HETATM   12  C   UNL     1      41.753 -13.172  -3.046  1.00  0.00     0.072 A 
HETATM   13  C   UNL     1      41.302 -13.201   0.602  1.00  0.00     0.027 A 
HETATM   14  C   UNL     1      41.734 -11.347  -0.945  1.00  0.00     0.053 A 
HETATM   15  C   UNL     1      41.982 -10.907  -2.241  1.00  0.00     0.103 A 
HETATM   16  C   UNL     1      41.971 -11.817  -3.296  1.00  0.00     0.104 A 
HETATM   17  O   UNL     1      42.229  -9.570  -2.403  1.00  0.00    -0.346 OA
HETATM   18  O   UNL     1      42.185 -11.457  -4.602  1.00  0.00    -0.346 OA
HETATM   19  C   UNL     1      42.081 -10.040  -4.783  1.00  0.00     0.202 C 
HETATM   20  C   UNL     1      42.823  -9.302  -3.681  1.00  0.00     0.202 C 
BRANCH   8  21
HETATM   21  O   UNL     1      40.955 -16.733  -0.203  1.00  0.00    -0.344 OA
HETATM   22  H   UNL     1      41.487 -17.024   0.567  1.00  0.00     0.219 HD
ENDBRANCH   8  21
ENDBRANCH   6   7
ENDBRANCH   3   6
BRANCH   3  23
HETATM   23  C   UNL     1      43.447 -14.989   2.791  1.00  0.00     0.129 C 
BRANCH  23  24
HETATM   24  C   UNL     1      43.273 -13.748   3.682  1.00  0.00     0.048 C 
BRANCH  24  25
HETATM   25  C   UNL     1      43.747 -13.975   5.115  1.00  0.00     0.236 C 
BRANCH  25  26
HETATM   26  N   UNL     1      43.376 -15.361   5.604  1.00  0.00    -0.067 N 
HETATM   27  H   UNL     1      43.503 -16.019   4.822  1.00  0.00     0.280 HD
HETATM   28  C   UNL     1      44.330 -15.820   6.716  1.00  0.00     0.261 C 
HETATM   29  C   UNL     1      43.940 -17.223   7.190  1.00  0.00     0.195 C 
HETATM   30  O   UNL     1      42.583 -17.246   7.645  1.00  0.00    -0.388 OA
HETATM   31  C   UNL     1      41.669 -16.899   6.601  1.00  0.00     0.195 C 
HETATM   32  C   UNL     1      41.932 -15.478   6.091  1.00  0.00     0.261 C 
ENDBRANCH  25  26
ENDBRANCH  24  25
ENDBRANCH  23  24
ENDBRANCH   3  23
BRANCH   1  33
HETATM   33  C   UNL     1      43.697 -19.130   3.177  1.00  0.00     0.036 A 
HETATM   34  C   UNL     1      43.549 -19.909   2.024  1.00  0.00     0.032 A 
HETATM   35  C   UNL     1      43.973 -21.242   2.011  1.00  0.00     0.044 A 
HETATM   36  C   UNL     1      44.556 -21.790   3.146  1.00  0.00     0.116 A 
HETATM   37  C   UNL     1      44.719 -21.031   4.297  1.00  0.00     0.044 A 
HETATM   38  F   UNL     1      44.971 -23.062   3.128  1.00  0.00    -0.206 F 
HETATM   39  C   UNL     1      44.291 -19.702   4.314  1.00  0.00     0.032 A 
ENDBRANCH   1  33
TORSDOF 8
ENDMDL
MODEL 4
REMARK VINA RESULT:      -9.1      3.106      7.268
REMARK  8 active torsions:
REMARK  status: ('A' for Active; 'I' for Inactive)
REMARK    1  A    between atoms: C_2  and  N_3 
REMARK       I    between atoms: N_3  and  C_4 
REMARK       I    between atoms: C_4  and  N_5 
REMARK    2  A    between atoms: N_5  and  C_6 
REMARK    3  A    between atoms: N_5  and  C_22 
REMARK    4  A    between atoms: C_6  and  C_7 
REMARK    5  A    between atoms: C_8  and  O_9 
REMARK    6  A    between atoms: C_22  and  C_23 
REMARK    7  A    between atoms: C_23  and  C_24 
REMARK    8  A    between atoms: C_24  and  N_25 
ROOT
HETATM    1  N   UNL     1      42.869 -17.508   2.452  1.00  0.00    -0.309 N 
HETATM    2  C   UNL     1      41.670 -17.038   2.930  1.00  0.00     0.323 C 
HETATM    3  N   UNL     1      41.189 -15.897   2.280  1.00  0.00    -0.330 N 
HETATM    4  O   UNL     1      41.011 -17.567   3.821  1.00  0.00    -0.247 OA
HETATM    5  H   UNL     1      43.511 -16.803   2.119  1.00  0.00     0.170 HD
ENDROOT
BRANCH   3   6
HETATM    6  C   UNL     1      39.961 -15.297   2.817  1.00  0.00     0.170 C 
BRANCH   6   7
HETATM    7  C   UNL     1      40.219 -14.201   3.807  1.00  0.00     0.013 A 
HETATM    8  C   UNL     1      40.124 -14.399   5.178  1.00  0.00     0.170 A 
HETATM    9  N   UNL     1      40.251 -13.430   6.100  1.00  0.00    -0.224 NA
HETATM   10  C   UNL     1      40.504 -12.181   5.682  1.00  0.00     0.072 A 
HETATM   11  C   UNL     1      40.652 -11.865   4.314  1.00  0.00    -0.004 A 
HETATM   12  C   UNL     1      40.618 -11.161   6.614  1.00  0.00     0.072 A 
HETATM   13  C   UNL     1      40.513 -12.902   3.379  1.00  0.00     0.027 A 
HETATM   14  C   UNL     1      40.906 -10.541   3.916  1.00  0.00     0.053 A 
HETATM   15  C   UNL     1      40.995  -9.533   4.871  1.00  0.00     0.103 A 
HETATM   16  C   UNL     1      40.871  -9.846   6.222  1.00  0.00     0.104 A 
HETATM   17  O   UNL     1      41.202  -8.261   4.407  1.00  0.00    -0.346 OA
HETATM   18  O   UNL     1      40.969  -8.912   7.222  1.00  0.00    -0.346 OA
HETATM   19  C   UNL     1      41.534  -7.685   6.745  1.00  0.00     0.202 C 
HETATM   20  C   UNL     1      40.910  -7.286   5.419  1.00  0.00     0.202 C 
BRANCH   8  21
HETATM   21  O   UNL     1      39.853 -15.630   5.697  1.00  0.00    -0.344 OA
HETATM   22  H   UNL     1      40.507 -15.779   6.413  1.00  0.00     0.219 HD
ENDBRANCH   8  21
ENDBRANCH   6   7
ENDBRANCH   3   6
BRANCH   3  23
HETATM   23  C   UNL     1      41.660 -15.429   0.974  1.00  0.00     0.129 C 
BRANCH  23  24
HETATM   24  C   UNL     1      40.578 -14.695   0.164  1.00  0.00     0.048 C 
BRANCH  24  25
HETATM   25  C   UNL     1      40.867 -14.679  -1.334  1.00  0.00     0.236 C 
BRANCH  25  26
HETATM   26  N   UNL     1      39.711 -15.259  -2.124  1.00  0.00    -0.067 N 
HETATM   27  H   UNL     1      39.247 -15.966  -1.537  1.00  0.00     0.280 HD
HETATM   28  C   UNL     1      38.657 -14.182  -2.418  1.00  0.00     0.261 C 
HETATM   29  C   UNL     1      37.497 -14.791  -3.211  1.00  0.00     0.195 C 
HETATM   30  O   UNL     1      37.969 -15.384  -4.426  1.00  0.00    -0.388 OA
HETATM   31  C   UNL     1      38.892 -16.445  -4.172  1.00  0.00     0.195 C 
HETATM   32  C   UNL     1      40.131 -15.931  -3.430  1.00  0.00     0.261 C 
ENDBRANCH  25  26
ENDBRANCH  24  25
ENDBRANCH  23  24
ENDBRANCH   3  23
BRANCH   1  33
HETATM   33  C   UNL     1      43.447 -18.771   2.706  1.00  0.00     0.036 A 
HETATM   34  C   UNL     1      44.188 -19.067   3.855  1.00  0.00     0.032 A 
HETATM   35  C   UNL     1      44.702 -20.352   4.054  1.00  0.00     0.044 A 
HETATM   36  C   UNL     1      44.464 -21.343   3.111  1.00  0.00     0.116 A 
HETATM   37  C   UNL     1      43.723 -21.072   1.969  1.00  0.00     0.044 A 
HETATM   38  F   UNL     1      44.947 -22.576   3.309  1.00  0.00    -0.206 F 
HETATM   39  C   UNL     1      43.214 -19.787   1.765  1.00  0.00     0.032 A 
ENDBRANCH   1  33
TORSDOF 8
ENDMDL
MODEL 5
REMARK VINA RESULT:      -9.0      2.074      3.074
REMARK  8 active torsions:
REMARK  status: ('A' for Active; 'I' for Inactive)
REMARK    1  A    between atoms: C_2  and  N_3 
REMARK       I    between atoms: N_3  and  C_4 
REMARK       I    between atoms: C_4  and  N_5 
REMARK    2  A    between atoms: N_5  and  C_6 
REMARK    3  A    between atoms: N_5  and  C_22 
REMARK    4  A    between atoms: C_6  and  C_7 
REMARK    5  A    between atoms: C_8  and  O_9 
REMARK    6  A    between atoms: C_22  and  C_23 
REMARK    7  A    between atoms: C_23  and  C_24 
REMARK    8  A    between atoms: C_24  and  N_25 
ROOT
HETATM    1  N   UNL     1      43.483 -18.010   4.817  1.00  0.00    -0.309 N 
HETATM    2  C   UNL     1      42.274 -17.412   5.078  1.00  0.00     0.323 C 
HETATM    3  N   UNL     1      42.364 -16.164   5.703  1.00  0.00    -0.330 N 
HETATM    4  O   UNL     1      41.178 -17.871   4.766  1.00  0.00    -0.247 OA
HETATM    5  H   UNL     1      44.212 -17.830   5.492  1.00  0.00     0.170 HD
ENDROOT
BRANCH   3   6
HETATM    6  C   UNL     1      41.099 -15.526   6.092  1.00  0.00     0.170 C 
BRANCH   6   7
HETATM    7  C   UNL     1      40.778 -14.303   5.287  1.00  0.00     0.013 A 
HETATM    8  C   UNL     1      40.171 -14.371   4.040  1.00  0.00     0.170 A 
HETATM    9  N   UNL     1      39.950 -13.316   3.239  1.00  0.00    -0.224 NA
HETATM   10  C   UNL     1      40.320 -12.101   3.669  1.00  0.00     0.072 A 
HETATM   11  C   UNL     1      40.918 -11.904   4.933  1.00  0.00    -0.004 A 
HETATM   12  C   UNL     1      40.121 -10.998   2.851  1.00  0.00     0.072 A 
HETATM   13  C   UNL     1      41.134 -13.030   5.742  1.00  0.00     0.027 A 
HETATM   14  C   UNL     1      41.302 -10.616   5.342  1.00  0.00     0.053 A 
HETATM   15  C   UNL     1      41.110  -9.530   4.493  1.00  0.00     0.103 A 
HETATM   16  C   UNL     1      40.500  -9.718   3.255  1.00  0.00     0.104 A 
HETATM   17  O   UNL     1      41.546  -8.311   4.941  1.00  0.00    -0.346 OA
HETATM   18  O   UNL     1      40.257  -8.696   2.374  1.00  0.00    -0.346 OA
HETATM   19  C   UNL     1      40.387  -7.415   3.002  1.00  0.00     0.202 C 
HETATM   20  C   UNL     1      41.635  -7.365   3.867  1.00  0.00     0.202 C 
BRANCH   8  21
HETATM   21  O   UNL     1      39.775 -15.564   3.511  1.00  0.00    -0.344 OA
HETATM   22  H   UNL     1      40.567 -15.955   3.085  1.00  0.00     0.219 HD
ENDBRANCH   8  21
ENDBRANCH   6   7
ENDBRANCH   3   6
BRANCH   3  23
HETATM   23  C   UNL     1      43.580 -15.348   5.751  1.00  0.00     0.129 C 
BRANCH  23  24
HETATM   24  C   UNL     1      44.003 -14.971   7.181  1.00  0.00     0.048 C 
BRANCH  24  25
HETATM   25  C   UNL     1      44.861 -13.710   7.232  1.00  0.00     0.236 C 
BRANCH  25  26
HETATM   26  N   UNL     1      44.535 -12.871   8.451  1.00  0.00    -0.067 N 
HETATM   27  H   UNL     1      44.194 -13.502   9.190  1.00  0.00     0.280 HD
HETATM   28  C   UNL     1      45.800 -12.200   9.005  1.00  0.00     0.261 C 
HETATM   29  C   UNL     1      45.447 -11.363  10.238  1.00  0.00     0.195 C 
HETATM   30  O   UNL     1      44.452 -10.384   9.920  1.00  0.00    -0.388 OA
HETATM   31  C   UNL     1      43.236 -10.992   9.478  1.00  0.00     0.195 C 
HETATM   32  C   UNL     1      43.463 -11.811   8.203  1.00  0.00     0.261 C 
ENDBRANCH  25  26
ENDBRANCH  24  25
ENDBRANCH  23  24
ENDBRANCH   3  23
BRANCH   1  33
HETATM   33  C   UNL     1      43.718 -19.109   3.962  1.00  0.00     0.036 A 
HETATM   34  C   UNL     1      43.284 -19.164   2.633  1.00  0.00     0.032 A 
HETATM   35  C   UNL     1      43.585 -20.272   1.836  1.00  0.00     0.044 A 
HETATM   36  C   UNL     1      44.331 -21.318   2.363  1.00  0.00     0.116 A 
HETATM   37  C   UNL     1      44.778 -21.278   3.676  1.00  0.00     0.044 A 
HETATM   38  F   UNL     1      44.628 -22.373   1.595  1.00  0.00    -0.206 F 
HETATM   39  C   UNL     1      44.474 -20.174   4.476  1.00  0.00     0.032 A 
ENDBRANCH   1  33
TORSDOF 8
ENDMDL
MODEL 6
REMARK VINA RESULT:      -8.9      1.839      2.222
REMARK  8 active torsions:
REMARK  status: ('A' for Active; 'I' for Inactive)
REMARK    1  A    between atoms: C_2  and  N_3 
REMARK       I    between atoms: N_3  and  C_4 
REMARK       I    between atoms: C_4  and  N_5 
REMARK    2  A    between atoms: N_5  and  C_6 
REMARK    3  A    between atoms: N_5  and  C_22 
REMARK    4  A    between atoms: C_6  and  C_7 
REMARK    5  A    between atoms: C_8  and  O_9 
REMARK    6  A    between atoms: C_22  and  C_23 
REMARK    7  A    between atoms: C_23  and  C_24 
REMARK    8  A    between atoms: C_24  and  N_25 
ROOT
HETATM    1  N   UNL     1      43.535 -17.861   5.619  1.00  0.00    -0.309 N 
HETATM    2  C   UNL     1      42.322 -17.330   5.254  1.00  0.00     0.323 C 
HETATM    3  N   UNL     1      42.271 -15.932   5.266  1.00  0.00    -0.330 N 
HETATM    4  O   UNL     1      41.347 -17.983   4.892  1.00  0.00    -0.247 OA
HETATM    5  H   UNL     1      44.047 -17.339   6.315  1.00  0.00     0.170 HD
ENDROOT
BRANCH   3   6
HETATM    6  C   UNL     1      40.969 -15.316   4.978  1.00  0.00     0.170 C 
BRANCH   6   7
HETATM    7  C   UNL     1      40.902 -14.673   3.625  1.00  0.00     0.013 A 
HETATM    8  C   UNL     1      40.602 -13.329   3.453  1.00  0.00     0.170 A 
HETATM    9  N   UNL     1      40.435 -12.729   2.263  1.00  0.00    -0.224 NA
HETATM   10  C   UNL     1      40.585 -13.465   1.152  1.00  0.00     0.072 A 
HETATM   11  C   UNL     1      40.922 -14.836   1.201  1.00  0.00    -0.004 A 
HETATM   12  C   UNL     1      40.398 -12.873  -0.088  1.00  0.00     0.072 A 
HETATM   13  C   UNL     1      41.087 -15.429   2.462  1.00  0.00     0.027 A 
HETATM   14  C   UNL     1      41.058 -15.575   0.014  1.00  0.00     0.053 A 
HETATM   15  C   UNL     1      40.844 -14.961  -1.216  1.00  0.00     0.103 A 
HETATM   16  C   UNL     1      40.534 -13.604  -1.269  1.00  0.00     0.104 A 
HETATM   17  O   UNL     1      40.954 -15.753  -2.329  1.00  0.00    -0.346 OA
HETATM   18  O   UNL     1      40.331 -12.924  -2.443  1.00  0.00    -0.346 OA
HETATM   19  C   UNL     1      40.798 -13.671  -3.572  1.00  0.00     0.202 C 
HETATM   20  C   UNL     1      40.363 -15.123  -3.474  1.00  0.00     0.202 C 
BRANCH   8  21
HETATM   21  O   UNL     1      40.415 -12.505   4.523  1.00  0.00    -0.344 OA
HETATM   22  H   UNL     1      39.543 -12.738   4.904  1.00  0.00     0.219 HD
ENDBRANCH   8  21
ENDBRANCH   6   7
ENDBRANCH   3   6
BRANCH   3  23
HETATM   23  C   UNL     1      43.449 -15.061   5.277  1.00  0.00     0.129 C 
BRANCH  23  24
HETATM   24  C   UNL     1      43.367 -13.942   6.330  1.00  0.00     0.048 C 
BRANCH  24  25
HETATM   25  C   UNL     1      44.637 -13.823   7.168  1.00  0.00     0.236 C 
BRANCH  25  26
HETATM   26  N   UNL     1      44.420 -12.927   8.371  1.00  0.00    -0.067 N 
HETATM   27  H   UNL     1      44.080 -13.513   9.146  1.00  0.00     0.280 HD
HETATM   28  C   UNL     1      45.747 -12.315   8.840  1.00  0.00     0.261 C 
HETATM   29  C   UNL     1      45.505 -11.419  10.059  1.00  0.00     0.195 C 
HETATM   30  O   UNL     1      44.553 -10.394   9.754  1.00  0.00    -0.388 OA
HETATM   31  C   UNL     1      43.283 -10.942   9.392  1.00  0.00     0.195 C 
HETATM   32  C   UNL     1      43.400 -11.814   8.137  1.00  0.00     0.261 C 
ENDBRANCH  25  26
ENDBRANCH  24  25
ENDBRANCH  23  24
ENDBRANCH   3  23
BRANCH   1  33
HETATM   33  C   UNL     1      43.969 -19.192   5.432  1.00  0.00     0.036 A 
HETATM   34  C   UNL     1      43.868 -20.185   6.413  1.00  0.00     0.032 A 
HETATM   35  C   UNL     1      44.289 -21.492   6.143  1.00  0.00     0.044 A 
HETATM   36  C   UNL     1      44.795 -21.807   4.890  1.00  0.00     0.116 A 
HETATM   37  C   UNL     1      44.895 -20.838   3.900  1.00  0.00     0.044 A 
HETATM   38  F   UNL     1      45.186 -23.060   4.629  1.00  0.00    -0.206 F 
HETATM   39  C   UNL     1      44.481 -19.531   4.170  1.00  0.00     0.032 A 
ENDBRANCH   1  33
TORSDOF 8
ENDMDL
MODEL 7
REMARK VINA RESULT:      -8.9      2.813      4.730
REMARK  8 active torsions:
REMARK  status: ('A' for Active; 'I' for Inactive)
REMARK    1  A    between atoms: C_2  and  N_3 
REMARK       I    between atoms: N_3  and  C_4 
REMARK       I    between atoms: C_4  and  N_5 
REMARK    2  A    between atoms: N_5  and  C_6 
REMARK    3  A    between atoms: N_5  and  C_22 
REMARK    4  A    between atoms: C_6  and  C_7 
REMARK    5  A    between atoms: C_8  and  O_9 
REMARK    6  A    between atoms: C_22  and  C_23 
REMARK    7  A    between atoms: C_23  and  C_24 
REMARK    8  A    between atoms: C_24  and  N_25 
ROOT
HETATM    1  N   UNL     1      42.070 -17.705   2.737  1.00  0.00    -0.309 N 
HETATM    2  C   UNL     1      42.393 -16.586   2.009  1.00  0.00     0.323 C 
HETATM    3  N   UNL     1      41.459 -15.548   2.089  1.00  0.00    -0.330 N 
HETATM    4  O   UNL     1      43.426 -16.441   1.361  1.00  0.00    -0.247 OA
HETATM    5  H   UNL     1      41.084 -17.911   2.804  1.00  0.00     0.170 HD
ENDROOT
BRANCH   3   6
HETATM    6  C   UNL     1      41.708 -14.368   1.252  1.00  0.00     0.170 C 
BRANCH   6   7
HETATM    7  C   UNL     1      40.736 -14.228   0.118  1.00  0.00     0.013 A 
HETATM    8  C   UNL     1      40.840 -14.975  -1.047  1.00  0.00     0.170 A 
HETATM    9  N   UNL     1      40.056 -14.820  -2.126  1.00  0.00    -0.224 NA
HETATM   10  C   UNL     1      39.087 -13.893  -2.082  1.00  0.00     0.072 A 
HETATM   11  C   UNL     1      38.866 -13.095  -0.939  1.00  0.00    -0.004 A 
HETATM   12  C   UNL     1      38.277 -13.701  -3.192  1.00  0.00     0.072 A 
HETATM   13  C   UNL     1      39.705 -13.284   0.169  1.00  0.00     0.027 A 
HETATM   14  C   UNL     1      37.847 -12.127  -0.937  1.00  0.00     0.053 A 
HETATM   15  C   UNL     1      37.063 -11.940  -2.071  1.00  0.00     0.103 A 
HETATM   16  C   UNL     1      37.264 -12.741  -3.192  1.00  0.00     0.104 A 
HETATM   17  O   UNL     1      36.118 -10.951  -2.011  1.00  0.00    -0.346 OA
HETATM   18  O   UNL     1      36.519 -12.632  -4.338  1.00  0.00    -0.346 OA
HETATM   19  C   UNL     1      35.331 -11.860  -4.123  1.00  0.00     0.202 C 
HETATM   20  C   UNL     1      35.641 -10.608  -3.321  1.00  0.00     0.202 C 
BRANCH   8  21
HETATM   21  O   UNL     1      41.803 -15.929  -1.192  1.00  0.00    -0.344 OA
HETATM   22  H   UNL     1      41.523 -16.494  -1.942  1.00  0.00     0.219 HD
ENDBRANCH   8  21
ENDBRANCH   6   7
ENDBRANCH   3   6
BRANCH   3  23
HETATM   23  C   UNL     1      40.426 -15.444   3.123  1.00  0.00     0.129 C 
BRANCH  23  24
HETATM   24  C   UNL     1      40.797 -14.473   4.258  1.00  0.00     0.048 C 
BRANCH  24  25
HETATM   25  C   UNL     1      40.414 -15.001   5.637  1.00  0.00     0.236 C 
BRANCH  25  26
HETATM   26  N   UNL     1      41.641 -15.291   6.477  1.00  0.00    -0.067 N 
HETATM   27  H   UNL     1      41.523 -14.823   7.386  1.00  0.00     0.280 HD
HETATM   28  C   UNL     1      41.756 -16.792   6.774  1.00  0.00     0.261 C 
HETATM   29  C   UNL     1      42.999 -17.060   7.627  1.00  0.00     0.195 C 
HETATM   30  O   UNL     1      44.178 -16.582   6.971  1.00  0.00    -0.388 OA
HETATM   31  C   UNL     1      44.128 -15.169   6.757  1.00  0.00     0.195 C 
HETATM   32  C   UNL     1      42.946 -14.792   5.856  1.00  0.00     0.261 C 
ENDBRANCH  25  26
ENDBRANCH  24  25
ENDBRANCH  23  24
ENDBRANCH   3  23
BRANCH   1  33
HETATM   33  C   UNL     1      42.928 -18.775   3.074  1.00  0.00     0.036 A 
HETATM   34  C   UNL     1      43.267 -19.804   2.190  1.00  0.00     0.032 A 
HETATM   35  C   UNL     1      44.152 -20.814   2.584  1.00  0.00     0.044 A 
HETATM   36  C   UNL     1      44.706 -20.785   3.856  1.00  0.00     0.116 A 
HETATM   37  C   UNL     1      44.388 -19.767   4.746  1.00  0.00     0.044 A 
HETATM   38  F   UNL     1      45.561 -21.745   4.228  1.00  0.00    -0.206 F 
HETATM   39  C   UNL     1      43.501 -18.762   4.356  1.00  0.00     0.032 A 
ENDBRANCH   1  33
TORSDOF 8
ENDMDL
MODEL 8
REMARK VINA RESULT:      -8.8      3.110      4.525
REMARK  8 active torsions:
REMARK  status: ('A' for Active; 'I' for Inactive)
REMARK    1  A    between atoms: C_2  and  N_3 
REMARK       I    between atoms: N_3  and  C_4 
REMARK       I    between atoms: C_4  and  N_5 
REMARK    2  A    between atoms: N_5  and  C_6 
REMARK    3  A    between atoms: N_5  and  C_22 
REMARK    4  A    between atoms: C_6  and  C_7 
REMARK    5  A    between atoms: C_8  and  O_9 
REMARK    6  A    between atoms: C_22  and  C_23 
REMARK    7  A    between atoms: C_23  and  C_24 
REMARK    8  A    between atoms: C_24  and  N_25 
ROOT
HETATM    1  N   UNL     1      43.321 -17.338   4.347  1.00  0.00    -0.309 N 
HETATM    2  C   UNL     1      42.166 -16.962   3.706  1.00  0.00     0.323 C 
HETATM    3  N   UNL     1      42.107 -15.609   3.355  1.00  0.00    -0.330 N 
HETATM    4  O   UNL     1      41.250 -17.721   3.400  1.00  0.00    -0.247 OA
HETATM    5  H   UNL     1      43.733 -16.638   4.947  1.00  0.00     0.170 HD
ENDROOT
BRANCH   3   6
HETATM    6  C   UNL     1      40.853 -15.135   2.755  1.00  0.00     0.170 C 
BRANCH   6   7
HETATM    7  C   UNL     1      41.006 -14.690   1.331  1.00  0.00     0.013 A 
HETATM    8  C   UNL     1      41.078 -15.588   0.275  1.00  0.00     0.170 A 
HETATM    9  N   UNL     1      41.310 -15.247  -1.003  1.00  0.00    -0.224 NA
HETATM   10  C   UNL     1      41.468 -13.948  -1.297  1.00  0.00     0.072 A 
HETATM   11  C   UNL     1      41.385 -12.941  -0.311  1.00  0.00    -0.004 A 
HETATM   12  C   UNL     1      41.730 -13.573  -2.607  1.00  0.00     0.072 A 
HETATM   13  C   UNL     1      41.141 -13.335   1.014  1.00  0.00     0.027 A 
HETATM   14  C   UNL     1      41.568 -11.592  -0.658  1.00  0.00     0.053 A 
HETATM   15  C   UNL     1      41.850 -11.245  -1.976  1.00  0.00     0.103 A 
HETATM   16  C   UNL     1      41.911 -12.234  -2.955  1.00  0.00     0.104 A 
HETATM   17  O   UNL     1      42.057  -9.916  -2.234  1.00  0.00    -0.346 OA
HETATM   18  O   UNL     1      42.162 -11.969  -4.277  1.00  0.00    -0.346 OA
HETATM   19  C   UNL     1      42.016 -10.575  -4.572  1.00  0.00     0.202 C 
HETATM   20  C   UNL     1      42.689  -9.726  -3.507  1.00  0.00     0.202 C 
BRANCH   8  21
HETATM   21  O   UNL     1      40.946 -16.930   0.478  1.00  0.00    -0.344 OA
HETATM   22  H   UNL     1      41.789 -17.235   0.875  1.00  0.00     0.219 HD
ENDBRANCH   8  21
ENDBRANCH   6   7
ENDBRANCH   3   6
BRANCH   3  23
HETATM   23  C   UNL     1      43.269 -14.719   3.296  1.00  0.00     0.129 C 
BRANCH  23  24
HETATM   24  C   UNL     1      43.110 -13.453   4.156  1.00  0.00     0.048 C 
BRANCH  24  25
HETATM   25  C   UNL     1      42.781 -13.764   5.613  1.00  0.00     0.236 C 
BRANCH  25  26
HETATM   26  N   UNL     1      41.599 -12.948   6.097  1.00  0.00    -0.067 N 
HETATM   27  H   UNL     1      41.763 -12.707   7.084  1.00  0.00     0.280 HD
HETATM   28  C   UNL     1      41.506 -11.619   5.335  1.00  0.00     0.261 C 
HETATM   29  C   UNL     1      40.310 -10.810   5.845  1.00  0.00     0.195 C 
HETATM   30  O   UNL     1      39.097 -11.558   5.710  1.00  0.00    -0.388 OA
HETATM   31  C   UNL     1      39.130 -12.763   6.477  1.00  0.00     0.195 C 
HETATM   32  C   UNL     1      40.263 -13.683   6.006  1.00  0.00     0.261 C 
ENDBRANCH  25  26
ENDBRANCH  24  25
ENDBRANCH  23  24
ENDBRANCH   3  23
BRANCH   1  33
HETATM   33  C   UNL     1      43.782 -18.655   4.562  1.00  0.00     0.036 A 
HETATM   34  C   UNL     1      44.351 -19.450   3.561  1.00  0.00     0.032 A 
HETATM   35  C   UNL     1      44.816 -20.735   3.858  1.00  0.00     0.044 A 
HETATM   36  C   UNL     1      44.725 -21.218   5.156  1.00  0.00     0.116 A 
HETATM   37  C   UNL     1      44.172 -20.442   6.165  1.00  0.00     0.044 A 
HETATM   38  F   UNL     1      45.182 -22.444   5.440  1.00  0.00    -0.206 F 
HETATM   39  C   UNL     1      43.701 -19.160   5.869  1.00  0.00     0.032 A 
ENDBRANCH   1  33
TORSDOF 8
ENDMDL
MODEL 9
REMARK VINA RESULT:      -8.6      3.581      8.137
REMARK  8 active torsions:
REMARK  status: ('A' for Active; 'I' for Inactive)
REMARK    1  A    between atoms: C_2  and  N_3 
REMARK       I    between atoms: N_3  and  C_4 
REMARK       I    between atoms: C_4  and  N_5 
REMARK    2  A    between atoms: N_5  and  C_6 
REMARK    3  A    between atoms: N_5  and  C_22 
REMARK    4  A    between atoms: C_6  and  C_7 
REMARK    5  A    between atoms: C_8  and  O_9 
REMARK    6  A    between atoms: C_22  and  C_23 
REMARK    7  A    between atoms: C_23  and  C_24 
REMARK    8  A    between atoms: C_24  and  N_25 
ROOT
HETATM    1  N   UNL     1      43.185 -13.721   6.481  1.00  0.00    -0.309 N 
HETATM    2  C   UNL     1      43.485 -13.851   5.147  1.00  0.00     0.323 C 
HETATM    3  N   UNL     1      42.436 -14.333   4.358  1.00  0.00    -0.330 N 
HETATM    4  O   UNL     1      44.556 -13.539   4.632  1.00  0.00    -0.247 OA
HETATM    5  H   UNL     1      42.542 -14.406   6.852  1.00  0.00     0.170 HD
ENDROOT
BRANCH   3   6
HETATM    6  C   UNL     1      42.735 -14.584   2.942  1.00  0.00     0.170 C 
BRANCH   6   7
HETATM    7  C   UNL     1      43.066 -16.017   2.649  1.00  0.00     0.013 A 
HETATM    8  C   UNL     1      42.826 -16.598   1.411  1.00  0.00     0.170 A 
HETATM    9  N   UNL     1      43.015 -17.897   1.128  1.00  0.00    -0.224 NA
HETATM   10  C   UNL     1      43.485 -18.698   2.095  1.00  0.00     0.072 A 
HETATM   11  C   UNL     1      43.796 -18.214   3.384  1.00  0.00    -0.004 A 
HETATM   12  C   UNL     1      43.669 -20.048   1.832  1.00  0.00     0.072 A 
HETATM   13  C   UNL     1      43.585 -16.851   3.644  1.00  0.00     0.027 A 
HETATM   14  C   UNL     1      44.276 -19.088   4.373  1.00  0.00     0.053 A 
HETATM   15  C   UNL     1      44.431 -20.442   4.090  1.00  0.00     0.103 A 
HETATM   16  C   UNL     1      44.147 -20.919   2.812  1.00  0.00     0.104 A 
HETATM   17  O   UNL     1      44.864 -21.242   5.114  1.00  0.00    -0.346 OA
HETATM   18  O   UNL     1      44.296 -22.233   2.450  1.00  0.00    -0.346 OA
HETATM   19  C   UNL     1      45.075 -22.959   3.407  1.00  0.00     0.202 C 
HETATM   20  C   UNL     1      44.634 -22.627   4.823  1.00  0.00     0.202 C 
BRANCH   8  21
HETATM   21  O   UNL     1      42.332 -15.868   0.372  1.00  0.00    -0.344 OA
HETATM   22  H   UNL     1      42.412 -14.925   0.631  1.00  0.00     0.219 HD
ENDBRANCH   8  21
ENDBRANCH   6   7
ENDBRANCH   3   6
BRANCH   3  23
HETATM   23  C   UNL     1      41.030 -14.348   4.770  1.00  0.00     0.129 C 
BRANCH  23  24
HETATM   24  C   UNL     1      40.071 -13.844   3.678  1.00  0.00     0.048 C 
BRANCH  24  25
HETATM   25  C   UNL     1      40.026 -12.322   3.585  1.00  0.00     0.236 C 
BRANCH  25  26
HETATM   26  N   UNL     1      40.420 -11.678   4.899  1.00  0.00    -0.067 N 
HETATM   27  H   UNL     1      41.160 -12.253   5.326  1.00  0.00     0.280 HD
HETATM   28  C   UNL     1      41.031 -10.290   4.665  1.00  0.00     0.261 C 
HETATM   29  C   UNL     1      41.427  -9.662   6.004  1.00  0.00     0.195 C 
HETATM   30  O   UNL     1      40.296  -9.576   6.878  1.00  0.00    -0.388 OA
HETATM   31  C   UNL     1      39.759 -10.867   7.176  1.00  0.00     0.195 C 
HETATM   32  C   UNL     1      39.272 -11.566   5.901  1.00  0.00     0.261 C 
ENDBRANCH  25  26
ENDBRANCH  24  25
ENDBRANCH  23  24
ENDBRANCH   3  23
BRANCH   1  33
HETATM   33  C   UNL     1      43.924 -13.009   7.452  1.00  0.00     0.036 A 
HETATM   34  C   UNL     1      45.275 -13.250   7.727  1.00  0.00     0.032 A 
HETATM   35  C   UNL     1      45.950 -12.481   8.680  1.00  0.00     0.044 A 
HETATM   36  C   UNL     1      45.280 -11.464   9.345  1.00  0.00     0.116 A 
HETATM   37  C   UNL     1      43.942 -11.203   9.080  1.00  0.00     0.044 A 
HETATM   38  F   UNL     1      45.931 -10.721  10.248  1.00  0.00    -0.206 F 
HETATM   39  C   UNL     1      43.264 -11.975   8.133  1.00  0.00     0.032 A 
ENDBRANCH   1  33
TORSDOF 8
ENDMDL
MODEL 10
REMARK VINA RESULT:      -8.5      2.420      4.278
REMARK  8 active torsions:
REMARK  status: ('A' for Active; 'I' for Inactive)
REMARK    1  A    between atoms: C_2  and  N_3 
REMARK       I    between atoms: N_3  and  C_4 
REMARK       I    between atoms: C_4  and  N_5 
REMARK    2  A    between atoms: N_5  and  C_6 
REMARK    3  A    between atoms: N_5  and  C_22 
REMARK    4  A    between atoms: C_6  and  C_7 
REMARK    5  A    between atoms: C_8  and  O_9 
REMARK    6  A    between atoms: C_22  and  C_23 
REMARK    7  A    between atoms: C_23  and  C_24 
REMARK    8  A    between atoms: C_24  and  N_25 
ROOT
HETATM    1  N   UNL     1      43.400 -17.514   4.592  1.00  0.00    -0.309 N 
HETATM    2  C   UNL     1      42.148 -17.109   4.986  1.00  0.00     0.323 C 
HETATM    3  N   UNL     1      42.069 -15.773   5.394  1.00  0.00    -0.330 N 
HETATM    4  O   UNL     1      41.139 -17.808   4.957  1.00  0.00    -0.247 OA
HETATM    5  H   UNL     1      44.171 -17.085   5.083  1.00  0.00     0.170 HD
ENDROOT
BRANCH   3   6
HETATM    6  C   UNL     1      40.775 -15.317   5.918  1.00  0.00     0.170 C 
BRANCH   6   7
HETATM    7  C   UNL     1      40.207 -14.151   5.165  1.00  0.00     0.013 A 
HETATM    8  C   UNL     1      40.076 -12.891   5.734  1.00  0.00     0.170 A 
HETATM    9  N   UNL     1      39.488 -11.841   5.137  1.00  0.00    -0.224 NA
HETATM   10  C   UNL     1      39.004 -12.002   3.896  1.00  0.00     0.072 A 
HETATM   11  C   UNL     1      39.108 -13.229   3.205  1.00  0.00    -0.004 A 
HETATM   12  C   UNL     1      38.374 -10.939   3.267  1.00  0.00     0.072 A 
HETATM   13  C   UNL     1      39.728 -14.304   3.860  1.00  0.00     0.027 A 
HETATM   14  C   UNL     1      38.577 -13.360   1.911  1.00  0.00     0.053 A 
HETATM   15  C   UNL     1      37.931 -12.284   1.311  1.00  0.00     0.103 A 
HETATM   16  C   UNL     1      37.848 -11.065   1.982  1.00  0.00     0.104 A 
HETATM   17  O   UNL     1      37.403 -12.496   0.065  1.00  0.00    -0.346 OA
HETATM   18  O   UNL     1      37.247  -9.954   1.448  1.00  0.00    -0.346 OA
HETATM   19  C   UNL     1      37.032 -10.094   0.039  1.00  0.00     0.202 C 
HETATM   20  C   UNL     1      36.466 -11.467  -0.284  1.00  0.00     0.202 C 
BRANCH   8  21
HETATM   21  O   UNL     1      40.523 -12.635   6.996  1.00  0.00    -0.344 OA
HETATM   22  H   UNL     1      40.300 -11.699   7.184  1.00  0.00     0.219 HD
ENDBRANCH   8  21
ENDBRANCH   6   7
ENDBRANCH   3   6
BRANCH   3  23
HETATM   23  C   UNL     1      43.078 -14.755   5.092  1.00  0.00     0.129 C 
BRANCH  23  24
HETATM   24  C   UNL     1      43.507 -14.744   3.615  1.00  0.00     0.048 C 
BRANCH  24  25
HETATM   25  C   UNL     1      42.918 -13.572   2.835  1.00  0.00     0.236 C 
BRANCH  25  26
HETATM   26  N   UNL     1      42.577 -13.972   1.414  1.00  0.00    -0.067 N 
HETATM   27  H   UNL     1      43.458 -14.158   0.915  1.00  0.00     0.280 HD
HETATM   28  C   UNL     1      41.782 -15.284   1.393  1.00  0.00     0.261 C 
HETATM   29  C   UNL     1      41.454 -15.671  -0.052  1.00  0.00     0.195 C 
HETATM   30  O   UNL     1      40.724 -14.626  -0.704  1.00  0.00    -0.388 OA
HETATM   31  C   UNL     1      41.480 -13.414  -0.768  1.00  0.00     0.195 C 
HETATM   32  C   UNL     1      41.813 -12.900   0.637  1.00  0.00     0.261 C 
ENDBRANCH  25  26
ENDBRANCH  24  25
ENDBRANCH  23  24
ENDBRANCH   3  23
BRANCH   1  33
HETATM   33  C   UNL     1      43.725 -18.688   3.877  1.00  0.00     0.036 A 
HETATM   34  C   UNL     1      44.435 -19.760   4.430  1.00  0.00     0.032 A 
HETATM   35  C   UNL     1      44.690 -20.906   3.670  1.00  0.00     0.044 A 
HETATM   36  C   UNL     1      44.226 -20.984   2.364  1.00  0.00     0.116 A 
HETATM   37  C   UNL     1      43.513 -19.934   1.800  1.00  0.00     0.044 A 
HETATM   38  F   UNL     1      44.462 -22.086   1.641  1.00  0.00    -0.206 F 
HETATM   39  C   UNL     1      43.261 -18.787   2.556  1.00  0.00     0.032 A 
ENDBRANCH   1  33
TORSDOF 8
ENDMDL
