MODEL 1
REMARK VINA RESULT:      -8.5      0.000      0.000
REMARK  6 active torsions:
REMARK  status: ('A' for Active; 'I' for Inactive)
REMARK    1  A    between atoms: C_7  and  S_8 
REMARK    2  A    between atoms: S_8  and  C_9 
REMARK    3  A    between atoms: C_9  and  C_10 
REMARK    4  A    between atoms: C_18  and  C_19 
REMARK    5  A    between atoms: C_26  and  C_27 
REMARK    6  A    between atoms: C_27  and  O_28 
ROOT
HETATM    1  C   UNL     1      39.118 -13.166   6.278  1.00  0.00     0.070 C 
HETATM    2  C   UNL     1      40.191 -14.084   5.747  1.00  0.00     0.037 A 
HETATM    3  N   UNL     1      40.556 -15.128   6.587  1.00  0.00    -0.192 N 
HETATM    4  C   UNL     1      41.504 -16.031   6.279  1.00  0.00     0.726 A 
HETATM    5  N   UNL     1      42.181 -15.920   5.097  1.00  0.00    -0.082 N 
HETATM    6  N   UNL     1      43.113 -16.889   4.973  1.00  0.00    -0.128 NA
HETATM    7  C   UNL     1      42.886 -17.599   6.087  1.00  0.00     0.226 A 
HETATM    8  N   UNL     1      41.929 -17.084   6.926  1.00  0.00    -0.035 NA
HETATM    9  C   UNL     1      41.911 -14.885   4.084  1.00  0.00     0.204 A 
HETATM   10  C   UNL     1      40.811 -13.937   4.551  1.00  0.00     0.070 A 
HETATM   11  H   UNL     1      40.057 -15.226   7.468  1.00  0.00     0.184 HD
ENDROOT
BRANCH   7  12
HETATM   12  S   UNL     1      43.699 -19.092   6.458  1.00  0.00    -0.083 SA
BRANCH  12  13
HETATM   13  C   UNL     1      44.967 -19.151   5.163  1.00  0.00     0.123 C 
BRANCH  13  14
HETATM   14  C   UNL     1      44.514 -20.004   3.998  1.00  0.00    -0.027 A 
HETATM   15  C   UNL     1      44.671 -21.400   3.970  1.00  0.00     0.041 A 
HETATM   16 CL   UNL     1      45.375 -22.276   5.284  1.00  0.00    -0.084 Cl
HETATM   17  C   UNL     1      44.260 -22.140   2.856  1.00  0.00     0.024 A 
HETATM   18  C   UNL     1      43.699 -21.499   1.752  1.00  0.00     0.002 A 
HETATM   19  C   UNL     1      43.546 -20.116   1.760  1.00  0.00     0.001 A 
HETATM   20  C   UNL     1      43.948 -19.375   2.873  1.00  0.00     0.009 A 
ENDBRANCH  13  14
ENDBRANCH  12  13
ENDBRANCH   7  12
BRANCH   9  21
HETATM   21  C   UNL     1      41.593 -15.551   2.746  1.00  0.00    -0.006 A 
HETATM   22  C   UNL     1      41.923 -14.960   1.514  1.00  0.00     0.042 A 
HETATM   23 CL   UNL     1      42.707 -13.424   1.398  1.00  0.00    -0.084 Cl
HETATM   24  C   UNL     1      41.616 -15.604   0.309  1.00  0.00     0.024 A 
HETATM   25  C   UNL     1      40.981 -16.844   0.313  1.00  0.00     0.002 A 
HETATM   26  C   UNL     1      40.647 -17.445   1.521  1.00  0.00     0.001 A 
HETATM   27  C   UNL     1      40.947 -16.806   2.726  1.00  0.00     0.011 A 
ENDBRANCH   9  21
BRANCH  10  28
HETATM   28  C   UNL     1      40.413 -12.875   3.607  1.00  0.00     0.293 C 
HETATM   29  O   UNL     1      41.020 -11.827   3.455  1.00  0.00    -0.259 OA
BRANCH  28  30
HETATM   30  O   UNL     1      39.290 -13.256   2.954  1.00  0.00    -0.323 OA
HETATM   31  C   UNL     1      39.092 -12.580   1.710  1.00  0.00     0.213 C 
ENDBRANCH  28  30
ENDBRANCH  10  28
TORSDOF 6
ENDMDL
MODEL 2
REMARK VINA RESULT:      -8.4      3.793      5.508
REMARK  6 active torsions:
REMARK  status: ('A' for Active; 'I' for Inactive)
REMARK    1  A    between atoms: C_7  and  S_8 
REMARK    2  A    between atoms: S_8  and  C_9 
REMARK    3  A    between atoms: C_9  and  C_10 
REMARK    4  A    between atoms: C_18  and  C_19 
REMARK    5  A    between atoms: C_26  and  C_27 
REMARK    6  A    between atoms: C_27  and  O_28 
ROOT
HETATM    1  C   UNL     1      39.537 -15.579  -3.725  1.00  0.00     0.070 C 
HETATM    2  C   UNL     1      40.062 -15.109  -2.391  1.00  0.00     0.037 A 
HETATM    3  N   UNL     1      40.815 -16.037  -1.683  1.00  0.00    -0.192 N 
HETATM    4  C   UNL     1      41.346 -15.792  -0.472  1.00  0.00     0.726 A 
HETATM    5  N   UNL     1      41.123 -14.585   0.129  1.00  0.00    -0.082 N 
HETATM    6  N   UNL     1      41.703 -14.529   1.347  1.00  0.00    -0.128 NA
HETATM    7  C   UNL     1      42.329 -15.713   1.380  1.00  0.00     0.226 A 
HETATM    8  N   UNL     1      42.107 -16.526   0.296  1.00  0.00    -0.035 NA
HETATM    9  C   UNL     1      40.363 -13.484  -0.487  1.00  0.00     0.204 A 
HETATM   10  C   UNL     1      39.827 -13.887  -1.856  1.00  0.00     0.070 A 
HETATM   11  H   UNL     1      40.993 -16.938  -2.121  1.00  0.00     0.184 HD
ENDROOT
BRANCH   7  12
HETATM   12  S   UNL     1      43.388 -16.206   2.671  1.00  0.00    -0.083 SA
BRANCH  12  13
HETATM   13  C   UNL     1      42.473 -17.600   3.383  1.00  0.00     0.123 C 
BRANCH  13  14
HETATM   14  C   UNL     1      43.209 -18.903   3.160  1.00  0.00    -0.027 A 
HETATM   15  C   UNL     1      44.204 -19.375   4.032  1.00  0.00     0.041 A 
HETATM   16 CL   UNL     1      44.660 -18.518   5.462  1.00  0.00    -0.084 Cl
HETATM   17  C   UNL     1      44.875 -20.574   3.764  1.00  0.00     0.024 A 
HETATM   18  C   UNL     1      44.572 -21.311   2.620  1.00  0.00     0.002 A 
HETATM   19  C   UNL     1      43.595 -20.851   1.741  1.00  0.00     0.001 A 
HETATM   20  C   UNL     1      42.919 -19.660   2.008  1.00  0.00     0.009 A 
ENDBRANCH  13  14
ENDBRANCH  12  13
ENDBRANCH   7  12
BRANCH   9  21
HETATM   21  C   UNL     1      41.232 -12.227  -0.535  1.00  0.00    -0.006 A 
HETATM   22  C   UNL     1      40.917 -11.065   0.191  1.00  0.00     0.042 A 
HETATM   23 CL   UNL     1      39.516 -10.946   1.195  1.00  0.00    -0.084 Cl
HETATM   24  C   UNL     1      41.740  -9.936   0.120  1.00  0.00     0.024 A 
HETATM   25  C   UNL     1      42.889  -9.946  -0.669  1.00  0.00     0.002 A 
HETATM   26  C   UNL     1      43.218 -11.086  -1.394  1.00  0.00     0.001 A 
HETATM   27  C   UNL     1      42.398 -12.214  -1.331  1.00  0.00     0.011 A 
ENDBRANCH   9  21
BRANCH  10  28
HETATM   28  C   UNL     1      39.080 -12.856  -2.600  1.00  0.00     0.293 C 
HETATM   29  O   UNL     1      39.555 -12.169  -3.491  1.00  0.00    -0.259 OA
BRANCH  28  30
HETATM   30  O   UNL     1      37.808 -12.807  -2.140  1.00  0.00    -0.323 OA
HETATM   31  C   UNL     1      37.390 -11.499  -1.743  1.00  0.00     0.213 C 
ENDBRANCH  28  30
ENDBRANCH  10  28
TORSDOF 6
ENDMDL
MODEL 3
REMARK VINA RESULT:      -8.4      3.270      5.177
REMARK  6 active torsions:
REMARK  status: ('A' for Active; 'I' for Inactive)
REMARK    1  A    between atoms: C_7  and  S_8 
REMARK    2  A    between atoms: S_8  and  C_9 
REMARK    3  A    between atoms: C_9  and  C_10 
REMARK    4  A    between atoms: C_18  and  C_19 
REMARK    5  A    between atoms: C_26  and  C_27 
REMARK    6  A    between atoms: C_27  and  O_28 
ROOT
HETATM    1  C   UNL     1      41.317 -14.461  -3.468  1.00  0.00     0.070 C 
HETATM    2  C   UNL     1      40.937 -14.651  -2.020  1.00  0.00     0.037 A 
HETATM    3  N   UNL     1      41.691 -15.584  -1.320  1.00  0.00    -0.192 N 
HETATM    4  C   UNL     1      41.479 -15.888  -0.027  1.00  0.00     0.726 A 
HETATM    5  N   UNL     1      40.456 -15.285   0.648  1.00  0.00    -0.082 N 
HETATM    6  N   UNL     1      40.374 -15.734   1.919  1.00  0.00    -0.128 NA
HETATM    7  C   UNL     1      41.435 -16.552   1.964  1.00  0.00     0.226 A 
HETATM    8  N   UNL     1      42.116 -16.695   0.780  1.00  0.00    -0.035 NA
HETATM    9  C   UNL     1      39.571 -14.262   0.064  1.00  0.00     0.204 A 
HETATM   10  C   UNL     1      39.924 -14.002  -1.397  1.00  0.00     0.070 A 
HETATM   11  H   UNL     1      42.459 -16.037  -1.809  1.00  0.00     0.184 HD
ENDROOT
BRANCH   7  12
HETATM   12  S   UNL     1      41.965 -17.362   3.410  1.00  0.00    -0.083 SA
BRANCH  12  13
HETATM   13  C   UNL     1      43.687 -17.753   3.000  1.00  0.00     0.123 C 
BRANCH  13  14
HETATM   14  C   UNL     1      43.924 -19.247   3.018  1.00  0.00    -0.027 A 
HETATM   15  C   UNL     1      44.518 -19.911   4.105  1.00  0.00     0.041 A 
HETATM   16 CL   UNL     1      45.008 -19.079   5.539  1.00  0.00    -0.084 Cl
HETATM   17  C   UNL     1      44.741 -21.292   4.060  1.00  0.00     0.024 A 
HETATM   18  C   UNL     1      44.386 -22.026   2.929  1.00  0.00     0.002 A 
HETATM   19  C   UNL     1      43.807 -21.381   1.840  1.00  0.00     0.001 A 
HETATM   20  C   UNL     1      43.577 -20.005   1.884  1.00  0.00     0.009 A 
ENDBRANCH  13  14
ENDBRANCH  12  13
ENDBRANCH   7  12
BRANCH   9  21
HETATM   21  C   UNL     1      39.619 -12.997   0.920  1.00  0.00    -0.006 A 
HETATM   22  C   UNL     1      38.456 -12.323   1.335  1.00  0.00     0.042 A 
HETATM   23 CL   UNL     1      36.869 -12.856   0.906  1.00  0.00    -0.084 Cl
HETATM   24  C   UNL     1      38.543 -11.168   2.120  1.00  0.00     0.024 A 
HETATM   25  C   UNL     1      39.785 -10.668   2.507  1.00  0.00     0.002 A 
HETATM   26  C   UNL     1      40.946 -11.320   2.109  1.00  0.00     0.001 A 
HETATM   27  C   UNL     1      40.867 -12.470   1.321  1.00  0.00     0.011 A 
ENDBRANCH   9  21
BRANCH  10  28
HETATM   28  C   UNL     1      39.137 -12.965  -2.090  1.00  0.00     0.293 C 
HETATM   29  O   UNL     1      39.586 -11.890  -2.456  1.00  0.00    -0.259 OA
BRANCH  28  30
HETATM   30  O   UNL     1      37.866 -13.400  -2.248  1.00  0.00    -0.323 OA
HETATM   31  C   UNL     1      37.669 -14.185  -3.427  1.00  0.00     0.213 C 
ENDBRANCH  28  30
ENDBRANCH  10  28
TORSDOF 6
ENDMDL
MODEL 4
REMARK VINA RESULT:      -8.3      4.006      5.179
REMARK  6 active torsions:
REMARK  status: ('A' for Active; 'I' for Inactive)
REMARK    1  A    between atoms: C_7  and  S_8 
REMARK    2  A    between atoms: S_8  and  C_9 
REMARK    3  A    between atoms: C_9  and  C_10 
REMARK    4  A    between atoms: C_18  and  C_19 
REMARK    5  A    between atoms: C_26  and  C_27 
REMARK    6  A    between atoms: C_27  and  O_28 
ROOT
HETATM    1  C   UNL     1      42.483 -10.334  -0.401  1.00  0.00     0.070 C 
HETATM    2  C   UNL     1      42.172 -11.810  -0.423  1.00  0.00     0.037 A 
HETATM    3  N   UNL     1      42.136 -12.434   0.818  1.00  0.00    -0.192 N 
HETATM    4  C   UNL     1      41.888 -13.745   0.981  1.00  0.00     0.726 A 
HETATM    5  N   UNL     1      41.688 -14.535  -0.116  1.00  0.00    -0.082 N 
HETATM    6  N   UNL     1      41.486 -15.823   0.236  1.00  0.00    -0.128 NA
HETATM    7  C   UNL     1      41.500 -15.721   1.573  1.00  0.00     0.226 A 
HETATM    8  N   UNL     1      41.774 -14.469   2.063  1.00  0.00    -0.035 NA
HETATM    9  C   UNL     1      41.675 -14.036  -1.502  1.00  0.00     0.204 A 
HETATM   10  C   UNL     1      41.957 -12.537  -1.546  1.00  0.00     0.070 A 
HETATM   11  H   UNL     1      42.279 -11.857   1.643  1.00  0.00     0.184 HD
ENDROOT
BRANCH   7  12
HETATM   12  S   UNL     1      41.158 -17.051   2.642  1.00  0.00    -0.083 SA
BRANCH  12  13
HETATM   13  C   UNL     1      42.744 -17.246   3.501  1.00  0.00     0.123 C 
BRANCH  13  14
HETATM   14  C   UNL     1      43.324 -18.623   3.264  1.00  0.00    -0.027 A 
HETATM   15  C   UNL     1      44.233 -19.229   4.147  1.00  0.00     0.041 A 
HETATM   16 CL   UNL     1      44.751 -18.464   5.607  1.00  0.00    -0.084 Cl
HETATM   17  C   UNL     1      44.762 -20.494   3.866  1.00  0.00     0.024 A 
HETATM   18  C   UNL     1      44.402 -21.165   2.698  1.00  0.00     0.002 A 
HETATM   19  C   UNL     1      43.511 -20.573   1.807  1.00  0.00     0.001 A 
HETATM   20  C   UNL     1      42.976 -19.315   2.087  1.00  0.00     0.009 A 
ENDBRANCH  13  14
ENDBRANCH  12  13
ENDBRANCH   7  12
BRANCH   9  21
HETATM   21  C   UNL     1      40.353 -14.411  -2.168  1.00  0.00    -0.006 A 
HETATM   22  C   UNL     1      39.116 -13.913  -1.722  1.00  0.00     0.042 A 
HETATM   23 CL   UNL     1      38.976 -12.840  -0.374  1.00  0.00    -0.084 Cl
HETATM   24  C   UNL     1      37.926 -14.280  -2.362  1.00  0.00     0.024 A 
HETATM   25  C   UNL     1      37.949 -15.144  -3.455  1.00  0.00     0.002 A 
HETATM   26  C   UNL     1      39.162 -15.647  -3.912  1.00  0.00     0.001 A 
HETATM   27  C   UNL     1      40.352 -15.288  -3.275  1.00  0.00     0.011 A 
ENDBRANCH   9  21
BRANCH  10  28
HETATM   28  C   UNL     1      41.931 -11.902  -2.877  1.00  0.00     0.293 C 
HETATM   29  O   UNL     1      42.769 -12.089  -3.745  1.00  0.00    -0.259 OA
BRANCH  28  30
HETATM   30  O   UNL     1      40.845 -11.100  -2.968  1.00  0.00    -0.323 OA
HETATM   31  C   UNL     1      40.052 -11.336  -4.133  1.00  0.00     0.213 C 
ENDBRANCH  28  30
ENDBRANCH  10  28
TORSDOF 6
ENDMDL
MODEL 5
REMARK VINA RESULT:      -8.2      2.705      3.610
REMARK  6 active torsions:
REMARK  status: ('A' for Active; 'I' for Inactive)
REMARK    1  A    between atoms: C_7  and  S_8 
REMARK    2  A    between atoms: S_8  and  C_9 
REMARK    3  A    between atoms: C_9  and  C_10 
REMARK    4  A    between atoms: C_18  and  C_19 
REMARK    5  A    between atoms: C_26  and  C_27 
REMARK    6  A    between atoms: C_27  and  O_28 
ROOT
HETATM    1  C   UNL     1      40.410 -10.638   2.516  1.00  0.00     0.070 C 
HETATM    2  C   UNL     1      41.313 -11.784   2.901  1.00  0.00     0.037 A 
HETATM    3  N   UNL     1      41.619 -11.878   4.253  1.00  0.00    -0.192 N 
HETATM    4  C   UNL     1      42.420 -12.828   4.767  1.00  0.00     0.726 A 
HETATM    5  N   UNL     1      43.000 -13.744   3.934  1.00  0.00    -0.082 N 
HETATM    6  N   UNL     1      43.793 -14.596   4.618  1.00  0.00    -0.128 NA
HETATM    7  C   UNL     1      43.578 -14.183   5.875  1.00  0.00     0.226 A 
HETATM    8  N   UNL     1      42.767 -13.083   6.000  1.00  0.00    -0.035 NA
HETATM    9  C   UNL     1      42.771 -13.799   2.480  1.00  0.00     0.204 A 
HETATM   10  C   UNL     1      41.840 -12.678   2.029  1.00  0.00     0.070 A 
HETATM   11  H   UNL     1      41.190 -11.206   4.884  1.00  0.00     0.184 HD
ENDROOT
BRANCH   7  12
HETATM   12  S   UNL     1      44.232 -14.984   7.275  1.00  0.00    -0.083 SA
BRANCH  12  13
HETATM   13  C   UNL     1      43.151 -16.435   7.405  1.00  0.00     0.123 C 
BRANCH  13  14
HETATM   14  C   UNL     1      43.458 -17.439   6.315  1.00  0.00    -0.027 A 
HETATM   15  C   UNL     1      42.485 -17.908   5.416  1.00  0.00     0.041 A 
HETATM   16 CL   UNL     1      40.848 -17.357   5.458  1.00  0.00    -0.084 Cl
HETATM   17  C   UNL     1      42.815 -18.859   4.444  1.00  0.00     0.024 A 
HETATM   18  C   UNL     1      44.113 -19.363   4.362  1.00  0.00     0.002 A 
HETATM   19  C   UNL     1      45.085 -18.915   5.251  1.00  0.00     0.001 A 
HETATM   20  C   UNL     1      44.762 -17.961   6.218  1.00  0.00     0.009 A 
ENDBRANCH  13  14
ENDBRANCH  12  13
ENDBRANCH   7  12
BRANCH   9  21
HETATM   21  C   UNL     1      42.260 -15.186   2.095  1.00  0.00    -0.006 A 
HETATM   22  C   UNL     1      40.957 -15.620   2.398  1.00  0.00     0.042 A 
HETATM   23 CL   UNL     1      39.820 -14.630   3.242  1.00  0.00    -0.084 Cl
HETATM   24  C   UNL     1      40.527 -16.899   2.027  1.00  0.00     0.024 A 
HETATM   25  C   UNL     1      41.383 -17.763   1.347  1.00  0.00     0.002 A 
HETATM   26  C   UNL     1      42.674 -17.353   1.036  1.00  0.00     0.001 A 
HETATM   27  C   UNL     1      43.111 -16.080   1.408  1.00  0.00     0.011 A 
ENDBRANCH   9  21
BRANCH  10  28
HETATM   28  C   UNL     1      41.495 -12.646   0.596  1.00  0.00     0.293 C 
HETATM   29  O   UNL     1      40.418 -12.996   0.139  1.00  0.00    -0.259 OA
BRANCH  28  30
HETATM   30  O   UNL     1      42.549 -12.168  -0.106  1.00  0.00    -0.323 OA
HETATM   31  C   UNL     1      42.273 -11.971  -1.495  1.00  0.00     0.213 C 
ENDBRANCH  28  30
ENDBRANCH  10  28
TORSDOF 6
ENDMDL
MODEL 6
REMARK VINA RESULT:      -8.1      2.033      2.942
REMARK  6 active torsions:
REMARK  status: ('A' for Active; 'I' for Inactive)
REMARK    1  A    between atoms: C_7  and  S_8 
REMARK    2  A    between atoms: S_8  and  C_9 
REMARK    3  A    between atoms: C_9  and  C_10 
REMARK    4  A    between atoms: C_18  and  C_19 
REMARK    5  A    between atoms: C_26  and  C_27 
REMARK    6  A    between atoms: C_27  and  O_28 
ROOT
HETATM    1  C   UNL     1      39.508 -13.655   6.368  1.00  0.00     0.070 C 
HETATM    2  C   UNL     1      40.083 -14.125   5.055  1.00  0.00     0.037 A 
HETATM    3  N   UNL     1      40.491 -15.452   5.020  1.00  0.00    -0.192 N 
HETATM    4  C   UNL     1      41.039 -16.031   3.937  1.00  0.00     0.726 A 
HETATM    5  N   UNL     1      41.245 -15.289   2.808  1.00  0.00    -0.082 N 
HETATM    6  N   UNL     1      41.830 -16.023   1.838  1.00  0.00    -0.128 NA
HETATM    7  C   UNL     1      41.875 -17.226   2.428  1.00  0.00     0.226 A 
HETATM    8  N   UNL     1      41.427 -17.261   3.725  1.00  0.00    -0.035 NA
HETATM    9  C   UNL     1      40.858 -13.875   2.668  1.00  0.00     0.204 A 
HETATM   10  C   UNL     1      40.241 -13.345   3.958  1.00  0.00     0.070 A 
HETATM   11  H   UNL     1      40.338 -16.018   5.852  1.00  0.00     0.184 HD
ENDROOT
BRANCH   7  12
HETATM   12  S   UNL     1      42.418 -18.672   1.625  1.00  0.00    -0.083 SA
BRANCH  12  13
HETATM   13  C   UNL     1      44.130 -18.794   2.210  1.00  0.00     0.123 C 
BRANCH  13  14
HETATM   14  C   UNL     1      44.335 -20.049   3.030  1.00  0.00    -0.027 A 
HETATM   15  C   UNL     1      44.573 -20.023   4.415  1.00  0.00     0.041 A 
HETATM   16 CL   UNL     1      44.624 -18.549   5.315  1.00  0.00    -0.084 Cl
HETATM   17  C   UNL     1      44.784 -21.212   5.123  1.00  0.00     0.024 A 
HETATM   18  C   UNL     1      44.774 -22.439   4.459  1.00  0.00     0.002 A 
HETATM   19  C   UNL     1      44.551 -22.480   3.086  1.00  0.00     0.001 A 
HETATM   20  C   UNL     1      44.332 -21.297   2.378  1.00  0.00     0.009 A 
ENDBRANCH  13  14
ENDBRANCH  12  13
ENDBRANCH   7  12
BRANCH   9  21
HETATM   21  C   UNL     1      39.937 -13.714   1.459  1.00  0.00    -0.006 A 
HETATM   22  C   UNL     1      40.347 -13.069   0.279  1.00  0.00     0.042 A 
HETATM   23 CL   UNL     1      41.924 -12.388   0.092  1.00  0.00    -0.084 Cl
HETATM   24  C   UNL     1      39.473 -12.944  -0.806  1.00  0.00     0.024 A 
HETATM   25  C   UNL     1      38.181 -13.462  -0.737  1.00  0.00     0.002 A 
HETATM   26  C   UNL     1      37.757 -14.106   0.421  1.00  0.00     0.001 A 
HETATM   27  C   UNL     1      38.623 -14.229   1.509  1.00  0.00     0.011 A 
ENDBRANCH   9  21
BRANCH  10  28
HETATM   28  C   UNL     1      39.771 -11.948   3.937  1.00  0.00     0.293 C 
HETATM   29  O   UNL     1      38.600 -11.616   3.834  1.00  0.00    -0.259 OA
BRANCH  28  30
HETATM   30  O   UNL     1      40.833 -11.117   4.054  1.00  0.00    -0.323 OA
HETATM   31  C   UNL     1      40.621 -10.036   4.964  1.00  0.00     0.213 C 
ENDBRANCH  28  30
ENDBRANCH  10  28
TORSDOF 6
ENDMDL
MODEL 7
REMARK VINA RESULT:      -8.1      3.516      6.286
REMARK  6 active torsions:
REMARK  status: ('A' for Active; 'I' for Inactive)
REMARK    1  A    between atoms: C_7  and  S_8 
REMARK    2  A    between atoms: S_8  and  C_9 
REMARK    3  A    between atoms: C_9  and  C_10 
REMARK    4  A    between atoms: C_18  and  C_19 
REMARK    5  A    between atoms: C_26  and  C_27 
REMARK    6  A    between atoms: C_27  and  O_28 
ROOT
HETATM    1  C   UNL     1      44.686 -14.046   7.588  1.00  0.00     0.070 C 
HETATM    2  C   UNL     1      43.620 -14.453   6.601  1.00  0.00     0.037 A 
HETATM    3  N   UNL     1      42.863 -13.414   6.073  1.00  0.00    -0.192 N 
HETATM    4  C   UNL     1      41.863 -13.598   5.193  1.00  0.00     0.726 A 
HETATM    5  N   UNL     1      41.533 -14.866   4.804  1.00  0.00    -0.082 N 
HETATM    6  N   UNL     1      40.491 -14.861   3.946  1.00  0.00    -0.128 NA
HETATM    7  C   UNL     1      40.293 -13.543   3.801  1.00  0.00     0.226 A 
HETATM    8  N   UNL     1      41.096 -12.741   4.574  1.00  0.00    -0.035 NA
HETATM    9  C   UNL     1      42.241 -16.078   5.252  1.00  0.00     0.204 A 
HETATM   10  C   UNL     1      43.355 -15.730   6.234  1.00  0.00     0.070 A 
HETATM   11  H   UNL     1      43.101 -12.465   6.351  1.00  0.00     0.184 HD
ENDROOT
BRANCH   7  12
HETATM   12  S   UNL     1      39.140 -12.859   2.691  1.00  0.00    -0.083 SA
BRANCH  12  13
HETATM   13  C   UNL     1      38.621 -14.323   1.755  1.00  0.00     0.123 C 
BRANCH  13  14
HETATM   14  C   UNL     1      39.481 -14.513   0.525  1.00  0.00    -0.027 A 
HETATM   15  C   UNL     1      39.201 -13.893  -0.704  1.00  0.00     0.041 A 
HETATM   16 CL   UNL     1      37.855 -12.828  -0.915  1.00  0.00    -0.084 Cl
HETATM   17  C   UNL     1      40.012 -14.125  -1.820  1.00  0.00     0.024 A 
HETATM   18  C   UNL     1      41.106 -14.986  -1.729  1.00  0.00     0.002 A 
HETATM   19  C   UNL     1      41.391 -15.616  -0.522  1.00  0.00     0.001 A 
HETATM   20  C   UNL     1      40.587 -15.382   0.596  1.00  0.00     0.009 A 
ENDBRANCH  13  14
ENDBRANCH  12  13
ENDBRANCH   7  12
BRANCH   9  21
HETATM   21  C   UNL     1      42.743 -16.855   4.036  1.00  0.00    -0.006 A 
HETATM   22  C   UNL     1      43.472 -16.245   2.999  1.00  0.00     0.042 A 
HETATM   23 CL   UNL     1      43.855 -14.560   3.000  1.00  0.00    -0.084 Cl
HETATM   24  C   UNL     1      43.915 -16.993   1.903  1.00  0.00     0.024 A 
HETATM   25  C   UNL     1      43.645 -18.358   1.822  1.00  0.00     0.002 A 
HETATM   26  C   UNL     1      42.927 -18.980   2.837  1.00  0.00     0.001 A 
HETATM   27  C   UNL     1      42.478 -18.239   3.932  1.00  0.00     0.011 A 
ENDBRANCH   9  21
BRANCH  10  28
HETATM   28  C   UNL     1      44.171 -16.854   6.728  1.00  0.00     0.293 C 
HETATM   29  O   UNL     1      45.290 -17.124   6.322  1.00  0.00    -0.259 OA
BRANCH  28  30
HETATM   30  O   UNL     1      43.484 -17.516   7.689  1.00  0.00    -0.323 OA
HETATM   31  C   UNL     1      43.810 -18.905   7.776  1.00  0.00     0.213 C 
ENDBRANCH  28  30
ENDBRANCH  10  28
TORSDOF 6
ENDMDL
MODEL 8
REMARK VINA RESULT:      -8.0      3.528      6.222
REMARK  6 active torsions:
REMARK  status: ('A' for Active; 'I' for Inactive)
REMARK    1  A    between atoms: C_7  and  S_8 
REMARK    2  A    between atoms: S_8  and  C_9 
REMARK    3  A    between atoms: C_9  and  C_10 
REMARK    4  A    between atoms: C_18  and  C_19 
REMARK    5  A    between atoms: C_26  and  C_27 
REMARK    6  A    between atoms: C_27  and  O_28 
ROOT
HETATM    1  C   UNL     1      43.232 -13.379   6.841  1.00  0.00     0.070 C 
HETATM    2  C   UNL     1      42.429 -14.122   5.802  1.00  0.00     0.037 A 
HETATM    3  N   UNL     1      41.586 -13.338   5.023  1.00  0.00    -0.192 N 
HETATM    4  C   UNL     1      40.789 -13.837   4.061  1.00  0.00     0.726 A 
HETATM    5  N   UNL     1      40.765 -15.185   3.839  1.00  0.00    -0.082 N 
HETATM    6  N   UNL     1      39.888 -15.506   2.864  1.00  0.00    -0.128 NA
HETATM    7  C   UNL     1      39.476 -14.287   2.487  1.00  0.00     0.226 A 
HETATM    8  N   UNL     1      39.985 -13.244   3.220  1.00  0.00    -0.035 NA
HETATM    9  C   UNL     1      41.604 -16.157   4.561  1.00  0.00     0.204 A 
HETATM   10  C   UNL     1      42.465 -15.463   5.611  1.00  0.00     0.070 A 
HETATM   11  H   UNL     1      41.598 -12.333   5.175  1.00  0.00     0.184 HD
ENDROOT
BRANCH   7  12
HETATM   12  S   UNL     1      38.407 -14.006   1.143  1.00  0.00    -0.083 SA
BRANCH  12  13
HETATM   13  C   UNL     1      39.527 -13.244  -0.063  1.00  0.00     0.123 C 
BRANCH  13  14
HETATM   14  C   UNL     1      39.616 -14.077  -1.322  1.00  0.00    -0.027 A 
HETATM   15  C   UNL     1      40.574 -15.090  -1.500  1.00  0.00     0.041 A 
HETATM   16 CL   UNL     1      41.724 -15.496  -0.276  1.00  0.00    -0.084 Cl
HETATM   17  C   UNL     1      40.632 -15.813  -2.697  1.00  0.00     0.024 A 
HETATM   18  C   UNL     1      39.746 -15.529  -3.735  1.00  0.00     0.002 A 
HETATM   19  C   UNL     1      38.798 -14.521  -3.579  1.00  0.00     0.001 A 
HETATM   20  C   UNL     1      38.732 -13.803  -2.384  1.00  0.00     0.009 A 
ENDBRANCH  13  14
ENDBRANCH  12  13
ENDBRANCH   7  12
BRANCH   9  21
HETATM   21  C   UNL     1      42.427 -16.966   3.559  1.00  0.00    -0.006 A 
HETATM   22  C   UNL     1      43.404 -16.377   2.737  1.00  0.00     0.042 A 
HETATM   23 CL   UNL     1      43.756 -14.686   2.776  1.00  0.00    -0.084 Cl
HETATM   24  C   UNL     1      44.137 -17.154   1.833  1.00  0.00     0.024 A 
HETATM   25  C   UNL     1      43.913 -18.526   1.735  1.00  0.00     0.002 A 
HETATM   26  C   UNL     1      42.952 -19.127   2.540  1.00  0.00     0.001 A 
HETATM   27  C   UNL     1      42.213 -18.357   3.441  1.00  0.00     0.011 A 
ENDBRANCH   9  21
BRANCH  10  28
HETATM   28  C   UNL     1      43.386 -16.321   6.379  1.00  0.00     0.293 C 
HETATM   29  O   UNL     1      44.587 -16.399   6.174  1.00  0.00    -0.259 OA
BRANCH  28  30
HETATM   30  O   UNL     1      42.689 -16.987   7.329  1.00  0.00    -0.323 OA
HETATM   31  C   UNL     1      43.477 -17.371   8.458  1.00  0.00     0.213 C 
ENDBRANCH  28  30
ENDBRANCH  10  28
TORSDOF 6
ENDMDL
MODEL 9
REMARK VINA RESULT:      -7.8      3.731      4.790
REMARK  6 active torsions:
REMARK  status: ('A' for Active; 'I' for Inactive)
REMARK    1  A    between atoms: C_7  and  S_8 
REMARK    2  A    between atoms: S_8  and  C_9 
REMARK    3  A    between atoms: C_9  and  C_10 
REMARK    4  A    between atoms: C_18  and  C_19 
REMARK    5  A    between atoms: C_26  and  C_27 
REMARK    6  A    between atoms: C_27  and  O_28 
ROOT
HETATM    1  C   UNL     1      41.707  -9.593   0.925  1.00  0.00     0.070 C 
HETATM    2  C   UNL     1      41.661 -11.081   0.683  1.00  0.00     0.037 A 
HETATM    3  N   UNL     1      41.786 -11.877   1.815  1.00  0.00    -0.192 N 
HETATM    4  C   UNL     1      41.781 -13.221   1.780  1.00  0.00     0.726 A 
HETATM    5  N   UNL     1      41.679 -13.864   0.579  1.00  0.00    -0.082 N 
HETATM    6  N   UNL     1      41.723 -15.204   0.733  1.00  0.00    -0.128 NA
HETATM    7  C   UNL     1      41.772 -15.300   2.069  1.00  0.00     0.226 A 
HETATM    8  N   UNL     1      41.841 -14.104   2.741  1.00  0.00    -0.035 NA
HETATM    9  C   UNL     1      41.522 -13.176  -0.715  1.00  0.00     0.204 A 
HETATM   10  C   UNL     1      41.533 -11.662  -0.534  1.00  0.00     0.070 A 
HETATM   11  H   UNL     1      41.858 -11.411   2.717  1.00  0.00     0.184 HD
ENDROOT
BRANCH   7  12
HETATM   12  S   UNL     1      41.715 -16.812   2.929  1.00  0.00    -0.083 SA
BRANCH  12  13
HETATM   13  C   UNL     1      43.477 -17.145   3.201  1.00  0.00     0.123 C 
BRANCH  13  14
HETATM   14  C   UNL     1      43.769 -18.628   3.114  1.00  0.00    -0.027 A 
HETATM   15  C   UNL     1      44.446 -19.331   4.124  1.00  0.00     0.041 A 
HETATM   16 CL   UNL     1      44.984 -18.568   5.578  1.00  0.00    -0.084 Cl
HETATM   17  C   UNL     1      44.716 -20.697   3.981  1.00  0.00     0.024 A 
HETATM   18  C   UNL     1      44.326 -21.376   2.827  1.00  0.00     0.002 A 
HETATM   19  C   UNL     1      43.664 -20.691   1.813  1.00  0.00     0.001 A 
HETATM   20  C   UNL     1      43.386 -19.330   1.954  1.00  0.00     0.009 A 
ENDBRANCH  13  14
ENDBRANCH  12  13
ENDBRANCH   7  12
BRANCH   9  21
HETATM   21  C   UNL     1      40.261 -13.683  -1.413  1.00  0.00    -0.006 A 
HETATM   22  C   UNL     1      40.302 -14.363  -2.643  1.00  0.00     0.042 A 
HETATM   23 CL   UNL     1      41.779 -14.677  -3.483  1.00  0.00    -0.084 Cl
HETATM   24  C   UNL     1      39.123 -14.812  -3.249  1.00  0.00     0.024 A 
HETATM   25  C   UNL     1      37.889 -14.596  -2.640  1.00  0.00     0.002 A 
HETATM   26  C   UNL     1      37.827 -13.927  -1.423  1.00  0.00     0.001 A 
HETATM   27  C   UNL     1      38.999 -13.472  -0.815  1.00  0.00     0.011 A 
ENDBRANCH   9  21
BRANCH  10  28
HETATM   28  C   UNL     1      41.341 -10.853  -1.753  1.00  0.00     0.293 C 
HETATM   29  O   UNL     1      40.294 -10.304  -2.057  1.00  0.00    -0.259 OA
BRANCH  28  30
HETATM   30  O   UNL     1      42.499 -10.821  -2.454  1.00  0.00    -0.323 OA
HETATM   31  C   UNL     1      42.315 -10.629  -3.858  1.00  0.00     0.213 C 
ENDBRANCH  28  30
ENDBRANCH  10  28
TORSDOF 6
ENDMDL
MODEL 10
REMARK VINA RESULT:      -7.7      2.233      3.102
REMARK  6 active torsions:
REMARK  status: ('A' for Active; 'I' for Inactive)
REMARK    1  A    between atoms: C_7  and  S_8 
REMARK    2  A    between atoms: S_8  and  C_9 
REMARK    3  A    between atoms: C_9  and  C_10 
REMARK    4  A    between atoms: C_18  and  C_19 
REMARK    5  A    between atoms: C_26  and  C_27 
REMARK    6  A    between atoms: C_27  and  O_28 
ROOT
HETATM    1  C   UNL     1      39.450 -13.528   5.934  1.00  0.00     0.070 C 
HETATM    2  C   UNL     1      40.253 -14.075   4.779  1.00  0.00     0.037 A 
HETATM    3  N   UNL     1      40.423 -15.454   4.768  1.00  0.00    -0.192 N 
HETATM    4  C   UNL     1      41.123 -16.106   3.823  1.00  0.00     0.726 A 
HETATM    5  N   UNL     1      41.733 -15.398   2.827  1.00  0.00    -0.082 N 
HETATM    6  N   UNL     1      42.413 -16.211   1.991  1.00  0.00    -0.128 NA
HETATM    7  C   UNL     1      42.100 -17.411   2.501  1.00  0.00     0.226 A 
HETATM    8  N   UNL     1      41.337 -17.382   3.642  1.00  0.00    -0.035 NA
HETATM    9  C   UNL     1      41.642 -13.935   2.679  1.00  0.00     0.204 A 
HETATM   10  C   UNL     1      40.815 -13.321   3.804  1.00  0.00     0.070 A 
HETATM   11  H   UNL     1      39.970 -15.994   5.501  1.00  0.00     0.184 HD
ENDROOT
BRANCH   7  12
HETATM   12  S   UNL     1      42.575 -18.919   1.774  1.00  0.00    -0.083 SA
BRANCH  12  13
HETATM   13  C   UNL     1      44.292 -19.072   2.338  1.00  0.00     0.123 C 
BRANCH  13  14
HETATM   14  C   UNL     1      44.403 -20.063   3.477  1.00  0.00    -0.027 A 
HETATM   15  C   UNL     1      44.582 -21.441   3.272  1.00  0.00     0.041 A 
HETATM   16 CL   UNL     1      44.720 -22.130   1.693  1.00  0.00    -0.084 Cl
HETATM   17  C   UNL     1      44.649 -22.319   4.360  1.00  0.00     0.024 A 
HETATM   18  C   UNL     1      44.529 -21.837   5.663  1.00  0.00     0.002 A 
HETATM   19  C   UNL     1      44.341 -20.475   5.882  1.00  0.00     0.001 A 
HETATM   20  C   UNL     1      44.279 -19.596   4.799  1.00  0.00     0.009 A 
ENDBRANCH  13  14
ENDBRANCH  12  13
ENDBRANCH   7  12
BRANCH   9  21
HETATM   21  C   UNL     1      41.101 -13.595   1.291  1.00  0.00    -0.006 A 
HETATM   22  C   UNL     1      39.853 -14.055   0.835  1.00  0.00     0.042 A 
HETATM   23 CL   UNL     1      38.823 -15.056   1.796  1.00  0.00    -0.084 Cl
HETATM   24  C   UNL     1      39.393 -13.719  -0.443  1.00  0.00     0.024 A 
HETATM   25  C   UNL     1      40.163 -12.918  -1.284  1.00  0.00     0.002 A 
HETATM   26  C   UNL     1      41.399 -12.452  -0.852  1.00  0.00     0.001 A 
HETATM   27  C   UNL     1      41.867 -12.787   0.420  1.00  0.00     0.011 A 
ENDBRANCH   9  21
BRANCH  10  28
HETATM   28  C   UNL     1      40.611 -11.862   3.750  1.00  0.00     0.293 C 
HETATM   29  O   UNL     1      39.659 -11.319   3.212  1.00  0.00    -0.259 OA
BRANCH  28  30
HETATM   30  O   UNL     1      41.633 -11.244   4.387  1.00  0.00    -0.323 OA
HETATM   31  C   UNL     1      41.269  -9.996   4.983  1.00  0.00     0.213 C 
ENDBRANCH  28  30
ENDBRANCH  10  28
TORSDOF 6
ENDMDL
