MODEL 1
REMARK VINA RESULT:      -8.5      0.000      0.000
REMARK  3 active torsions:
REMARK  status: ('A' for Active; 'I' for Inactive)
REMARK    1  A    between atoms: C_3  and  N_4 
REMARK       I    between atoms: N_4  and  C_5 
REMARK    2  A    between atoms: C_5  and  C_6 
REMARK    3  A    between atoms: C_6  and  C_7 
ROOT
HETATM    1  C   UNL     1      42.555 -16.687   6.046  1.00  0.00     0.286 C 
HETATM    2  N   UNL     1      43.356 -15.678   5.227  1.00  0.00    -0.056 N 
HETATM    3  H   UNL     1      43.388 -14.807   5.775  1.00  0.00     0.278 HD
HETATM    4  H   UNL     1      44.349 -15.997   5.215  1.00  0.00     0.278 HD
HETATM    5  C   UNL     1      42.871 -15.349   3.847  1.00  0.00     0.209 C 
HETATM    6  C   UNL     1      41.355 -15.048   3.890  1.00  0.00     0.115 C 
HETATM    7  N   UNL     1      40.598 -16.046   4.642  1.00  0.00    -0.353 N 
HETATM    8  C   UNL     1      41.038 -16.582   5.826  1.00  0.00     0.249 C 
HETATM    9  O   UNL     1      40.234 -17.061   6.618  1.00  0.00    -0.271 OA
HETATM   10  C   UNL     1      43.258 -16.449   2.859  1.00  0.00     0.035 C 
HETATM   11  C   UNL     1      42.687 -16.172   1.471  1.00  0.00     0.002 C 
HETATM   12  C   UNL     1      41.173 -15.997   1.529  1.00  0.00     0.002 C 
HETATM   13  C   UNL     1      40.778 -14.867   2.481  1.00  0.00     0.027 C 
HETATM   14  H   UNL     1      39.580 -15.994   4.603  1.00  0.00     0.163 HD
ENDROOT
BRANCH   1  15
HETATM   15  C   UNL     1      42.957 -18.153   5.815  1.00  0.00     0.146 C 
BRANCH  15  16
HETATM   16  C   UNL     1      44.435 -18.398   5.899  1.00  0.00     0.224 C 
HETATM   17  N   UNL     1      45.072 -19.263   5.072  1.00  0.00    -0.325 N 
HETATM   18  H   UNL     1      46.079 -19.291   5.244  1.00  0.00     0.169 HD
HETATM   19  O   UNL     1      45.105 -17.742   6.710  1.00  0.00    -0.273 OA
BRANCH  17  20
HETATM   20  C   UNL     1      44.670 -20.100   4.007  1.00  0.00     0.073 A 
HETATM   21  C   UNL     1      44.169 -19.695   2.772  1.00  0.00     0.033 A 
HETATM   22  C   UNL     1      43.826 -20.647   1.800  1.00  0.00     0.002 A 
HETATM   23  C   UNL     1      43.979 -22.010   2.050  1.00  0.00     0.003 A 
HETATM   24  C   UNL     1      44.471 -22.431   3.280  1.00  0.00     0.044 A 
HETATM   25  C   UNL     1      44.806 -21.480   4.239  1.00  0.00     0.143 A 
HETATM   26  F   UNL     1      45.289 -21.898   5.420  1.00  0.00    -0.204 F 
ENDBRANCH  17  20
ENDBRANCH  15  16
ENDBRANCH   1  15
TORSDOF 3
ENDMDL
MODEL 2
REMARK VINA RESULT:      -8.0      2.170      2.831
REMARK  3 active torsions:
REMARK  status: ('A' for Active; 'I' for Inactive)
REMARK    1  A    between atoms: C_3  and  N_4 
REMARK       I    between atoms: N_4  and  C_5 
REMARK    2  A    between atoms: C_5  and  C_6 
REMARK    3  A    between atoms: C_6  and  C_7 
ROOT
HETATM    1  C   UNL     1      42.554 -16.827   3.528  1.00  0.00     0.286 C 
HETATM    2  N   UNL     1      42.899 -15.558   2.751  1.00  0.00    -0.056 N 
HETATM    3  H   UNL     1      43.458 -14.966   3.380  1.00  0.00     0.278 HD
HETATM    4  H   UNL     1      43.572 -15.820   1.998  1.00  0.00     0.278 HD
HETATM    5  C   UNL     1      41.768 -14.735   2.210  1.00  0.00     0.209 C 
HETATM    6  C   UNL     1      40.713 -14.515   3.319  1.00  0.00     0.115 C 
HETATM    7  N   UNL     1      40.364 -15.747   4.023  1.00  0.00    -0.353 N 
HETATM    8  C   UNL     1      41.293 -16.686   4.393  1.00  0.00     0.249 C 
HETATM    9  O   UNL     1      41.053 -17.456   5.317  1.00  0.00    -0.271 OA
HETATM   10  C   UNL     1      41.207 -15.358   0.932  1.00  0.00     0.035 C 
HETATM   11  C   UNL     1      39.993 -14.582   0.427  1.00  0.00     0.002 C 
HETATM   12  C   UNL     1      38.920 -14.484   1.506  1.00  0.00     0.002 C 
HETATM   13  C   UNL     1      39.460 -13.821   2.772  1.00  0.00     0.027 C 
HETATM   14  H   UNL     1      39.580 -15.712   4.675  1.00  0.00     0.163 HD
ENDROOT
BRANCH   1  15
HETATM   15  C   UNL     1      42.379 -18.078   2.651  1.00  0.00     0.146 C 
BRANCH  15  16
HETATM   16  C   UNL     1      43.555 -18.369   1.766  1.00  0.00     0.224 C 
HETATM   17  N   UNL     1      44.433 -19.367   2.036  1.00  0.00    -0.325 N 
HETATM   18  H   UNL     1      45.157 -19.448   1.321  1.00  0.00     0.169 HD
HETATM   19  O   UNL     1      43.695 -17.716   0.723  1.00  0.00    -0.273 OA
BRANCH  17  20
HETATM   20  C   UNL     1      44.550 -20.341   3.053  1.00  0.00     0.073 A 
HETATM   21  C   UNL     1      44.710 -20.106   4.417  1.00  0.00     0.033 A 
HETATM   22  C   UNL     1      44.794 -21.182   5.315  1.00  0.00     0.002 A 
HETATM   23  C   UNL     1      44.724 -22.498   4.862  1.00  0.00     0.003 A 
HETATM   24  C   UNL     1      44.572 -22.749   3.503  1.00  0.00     0.044 A 
HETATM   25  C   UNL     1      44.490 -21.677   2.620  1.00  0.00     0.143 A 
HETATM   26  F   UNL     1      44.335 -21.931   1.310  1.00  0.00    -0.204 F 
ENDBRANCH  17  20
ENDBRANCH  15  16
ENDBRANCH   1  15
TORSDOF 3
ENDMDL
MODEL 3
REMARK VINA RESULT:      -7.9      2.091      2.700
REMARK  3 active torsions:
REMARK  status: ('A' for Active; 'I' for Inactive)
REMARK    1  A    between atoms: C_3  and  N_4 
REMARK       I    between atoms: N_4  and  C_5 
REMARK    2  A    between atoms: C_5  and  C_6 
REMARK    3  A    between atoms: C_6  and  C_7 
ROOT
HETATM    1  C   UNL     1      42.271 -14.944   5.168  1.00  0.00     0.286 C 
HETATM    2  N   UNL     1      43.198 -14.771   3.966  1.00  0.00    -0.056 N 
HETATM    3  H   UNL     1      43.180 -13.774   3.717  1.00  0.00     0.278 HD
HETATM    4  H   UNL     1      44.175 -14.925   4.296  1.00  0.00     0.278 HD
HETATM    5  C   UNL     1      42.907 -15.571   2.732  1.00  0.00     0.209 C 
HETATM    6  C   UNL     1      41.406 -15.449   2.379  1.00  0.00     0.115 C 
HETATM    7  N   UNL     1      40.532 -15.659   3.531  1.00  0.00    -0.353 N 
HETATM    8  C   UNL     1      40.799 -15.146   4.776  1.00  0.00     0.249 C 
HETATM    9  O   UNL     1      39.887 -14.971   5.576  1.00  0.00    -0.271 OA
HETATM   10  C   UNL     1      43.391 -17.012   2.891  1.00  0.00     0.035 C 
HETATM   11  C   UNL     1      43.014 -17.860   1.680  1.00  0.00     0.002 C 
HETATM   12  C   UNL     1      41.510 -17.813   1.429  1.00  0.00     0.002 C 
HETATM   13  C   UNL     1      41.023 -16.379   1.222  1.00  0.00     0.027 C 
HETATM   14  H   UNL     1      39.530 -15.728   3.356  1.00  0.00     0.163 HD
ENDROOT
BRANCH   1  15
HETATM   15  C   UNL     1      42.663 -16.094   6.110  1.00  0.00     0.146 C 
BRANCH  15  16
HETATM   16  C   UNL     1      44.104 -16.072   6.529  1.00  0.00     0.224 C 
HETATM   17  N   UNL     1      44.847 -17.203   6.619  1.00  0.00    -0.325 N 
HETATM   18  H   UNL     1      45.812 -17.009   6.890  1.00  0.00     0.169 HD
HETATM   19  O   UNL     1      44.648 -14.980   6.740  1.00  0.00    -0.273 OA
BRANCH  17  20
HETATM   20  C   UNL     1      44.603 -18.575   6.386  1.00  0.00     0.073 A 
HETATM   21  C   UNL     1      44.938 -19.299   5.244  1.00  0.00     0.033 A 
HETATM   22  C   UNL     1      44.646 -20.669   5.164  1.00  0.00     0.002 A 
HETATM   23  C   UNL     1      44.016 -21.328   6.218  1.00  0.00     0.003 A 
HETATM   24  C   UNL     1      43.669 -20.619   7.361  1.00  0.00     0.044 A 
HETATM   25  C   UNL     1      43.960 -19.261   7.432  1.00  0.00     0.143 A 
HETATM   26  F   UNL     1      43.628 -18.586   8.545  1.00  0.00    -0.204 F 
ENDBRANCH  17  20
ENDBRANCH  15  16
ENDBRANCH   1  15
TORSDOF 3
ENDMDL
MODEL 4
REMARK VINA RESULT:      -7.7      2.477      3.340
REMARK  3 active torsions:
REMARK  status: ('A' for Active; 'I' for Inactive)
REMARK    1  A    between atoms: C_3  and  N_4 
REMARK       I    between atoms: N_4  and  C_5 
REMARK    2  A    between atoms: C_5  and  C_6 
REMARK    3  A    between atoms: C_6  and  C_7 
ROOT
HETATM    1  C   UNL     1      42.125 -17.632   3.758  1.00  0.00     0.286 C 
HETATM    2  N   UNL     1      42.258 -17.473   5.272  1.00  0.00    -0.056 N 
HETATM    3  H   UNL     1      41.601 -18.139   5.700  1.00  0.00     0.278 HD
HETATM    4  H   UNL     1      43.195 -17.838   5.548  1.00  0.00     0.278 HD
HETATM    5  C   UNL     1      42.005 -16.117   5.861  1.00  0.00     0.209 C 
HETATM    6  C   UNL     1      40.687 -15.543   5.289  1.00  0.00     0.115 C 
HETATM    7  N   UNL     1      40.596 -15.666   3.836  1.00  0.00    -0.353 N 
HETATM    8  C   UNL     1      40.992 -16.789   3.155  1.00  0.00     0.249 C 
HETATM    9  O   UNL     1      40.526 -17.030   2.046  1.00  0.00    -0.271 OA
HETATM   10  C   UNL     1      43.216 -15.206   5.664  1.00  0.00     0.035 C 
HETATM   11  C   UNL     1      42.934 -13.795   6.174  1.00  0.00     0.002 C 
HETATM   12  C   UNL     1      41.695 -13.210   5.504  1.00  0.00     0.002 C 
HETATM   13  C   UNL     1      40.468 -14.092   5.733  1.00  0.00     0.027 C 
HETATM   14  H   UNL     1      39.823 -15.192   3.371  1.00  0.00     0.163 HD
ENDROOT
BRANCH   1  15
HETATM   15  C   UNL     1      43.409 -17.316   2.973  1.00  0.00     0.146 C 
BRANCH  15  16
HETATM   16  C   UNL     1      43.600 -18.168   1.753  1.00  0.00     0.224 C 
HETATM   17  N   UNL     1      43.997 -19.463   1.831  1.00  0.00    -0.325 N 
HETATM   18  H   UNL     1      44.051 -19.906   0.913  1.00  0.00     0.169 HD
HETATM   19  O   UNL     1      43.329 -17.692   0.642  1.00  0.00    -0.273 OA
BRANCH  17  20
HETATM   20  C   UNL     1      44.310 -20.345   2.889  1.00  0.00     0.073 A 
HETATM   21  C   UNL     1      44.612 -19.995   4.204  1.00  0.00     0.033 A 
HETATM   22  C   UNL     1      44.887 -20.990   5.155  1.00  0.00     0.002 A 
HETATM   23  C   UNL     1      44.867 -22.339   4.804  1.00  0.00     0.003 A 
HETATM   24  C   UNL     1      44.576 -22.703   3.496  1.00  0.00     0.044 A 
HETATM   25  C   UNL     1      44.305 -21.711   2.559  1.00  0.00     0.143 A 
HETATM   26  F   UNL     1      44.016 -22.075   1.298  1.00  0.00    -0.204 F 
ENDBRANCH  17  20
ENDBRANCH  15  16
ENDBRANCH   1  15
TORSDOF 3
ENDMDL
MODEL 5
REMARK VINA RESULT:      -7.6      2.504      4.050
REMARK  3 active torsions:
REMARK  status: ('A' for Active; 'I' for Inactive)
REMARK    1  A    between atoms: C_3  and  N_4 
REMARK       I    between atoms: N_4  and  C_5 
REMARK    2  A    between atoms: C_5  and  C_6 
REMARK    3  A    between atoms: C_6  and  C_7 
ROOT
HETATM    1  C   UNL     1      41.030 -15.809   3.412  1.00  0.00     0.286 C 
HETATM    2  N   UNL     1      40.464 -15.496   4.796  1.00  0.00    -0.056 N 
HETATM    3  H   UNL     1      40.088 -14.540   4.755  1.00  0.00     0.278 HD
HETATM    4  H   UNL     1      39.617 -16.089   4.933  1.00  0.00     0.278 HD
HETATM    5  C   UNL     1      41.391 -15.588   5.972  1.00  0.00     0.209 C 
HETATM    6  C   UNL     1      42.705 -14.836   5.654  1.00  0.00     0.115 C 
HETATM    7  N   UNL     1      43.254 -15.179   4.345  1.00  0.00    -0.353 N 
HETATM    8  C   UNL     1      42.477 -15.328   3.223  1.00  0.00     0.249 C 
HETATM    9  O   UNL     1      42.972 -15.190   2.110  1.00  0.00    -0.271 OA
HETATM   10  C   UNL     1      41.594 -17.044   6.390  1.00  0.00     0.035 C 
HETATM   11  C   UNL     1      42.610 -17.157   7.523  1.00  0.00     0.002 C 
HETATM   12  C   UNL     1      43.935 -16.510   7.135  1.00  0.00     0.002 C 
HETATM   13  C   UNL     1      43.749 -15.040   6.759  1.00  0.00     0.027 C 
HETATM   14  H   UNL     1      44.185 -14.831   4.117  1.00  0.00     0.163 HD
ENDROOT
BRANCH   1  15
HETATM   15  C   UNL     1      40.981 -17.298   3.029  1.00  0.00     0.146 C 
BRANCH  15  16
HETATM   16  C   UNL     1      41.721 -17.624   1.766  1.00  0.00     0.224 C 
HETATM   17  N   UNL     1      42.839 -18.392   1.762  1.00  0.00    -0.325 N 
HETATM   18  H   UNL     1      43.202 -18.540   0.819  1.00  0.00     0.169 HD
HETATM   19  O   UNL     1      41.262 -17.231   0.685  1.00  0.00    -0.273 OA
BRANCH  17  20
HETATM   20  C   UNL     1      43.589 -19.063   2.754  1.00  0.00     0.073 A 
HETATM   21  C   UNL     1      44.016 -18.538   3.972  1.00  0.00     0.033 A 
HETATM   22  C   UNL     1      44.743 -19.336   4.869  1.00  0.00     0.002 A 
HETATM   23  C   UNL     1      45.051 -20.660   4.561  1.00  0.00     0.003 A 
HETATM   24  C   UNL     1      44.638 -21.195   3.347  1.00  0.00     0.044 A 
HETATM   25  C   UNL     1      43.920 -20.398   2.462  1.00  0.00     0.143 A 
HETATM   26  F   UNL     1      43.519 -20.927   1.295  1.00  0.00    -0.204 F 
ENDBRANCH  17  20
ENDBRANCH  15  16
ENDBRANCH   1  15
TORSDOF 3
ENDMDL
MODEL 6
REMARK VINA RESULT:      -7.6      1.719      2.365
REMARK  3 active torsions:
REMARK  status: ('A' for Active; 'I' for Inactive)
REMARK    1  A    between atoms: C_3  and  N_4 
REMARK       I    between atoms: N_4  and  C_5 
REMARK    2  A    between atoms: C_5  and  C_6 
REMARK    3  A    between atoms: C_6  and  C_7 
ROOT
HETATM    1  C   UNL     1      41.761 -17.208   4.632  1.00  0.00     0.286 C 
HETATM    2  N   UNL     1      41.398 -16.516   5.945  1.00  0.00    -0.056 N 
HETATM    3  H   UNL     1      40.581 -17.011   6.327  1.00  0.00     0.278 HD
HETATM    4  H   UNL     1      42.154 -16.724   6.632  1.00  0.00     0.278 HD
HETATM    5  C   UNL     1      41.085 -15.050   5.905  1.00  0.00     0.209 C 
HETATM    6  C   UNL     1      40.087 -14.766   4.758  1.00  0.00     0.115 C 
HETATM    7  N   UNL     1      40.472 -15.400   3.499  1.00  0.00    -0.353 N 
HETATM    8  C   UNL     1      40.971 -16.676   3.427  1.00  0.00     0.249 C 
HETATM    9  O   UNL     1      40.879 -17.313   2.382  1.00  0.00    -0.271 OA
HETATM   10  C   UNL     1      42.368 -14.223   5.831  1.00  0.00     0.035 C 
HETATM   11  C   UNL     1      42.059 -12.735   5.692  1.00  0.00     0.002 C 
HETATM   12  C   UNL     1      41.169 -12.473   4.481  1.00  0.00     0.002 C 
HETATM   13  C   UNL     1      39.862 -13.261   4.569  1.00  0.00     0.027 C 
HETATM   14  H   UNL     1      39.942 -15.152   2.664  1.00  0.00     0.163 HD
ENDROOT
BRANCH   1  15
HETATM   15  C   UNL     1      43.255 -17.143   4.274  1.00  0.00     0.146 C 
BRANCH  15  16
HETATM   16  C   UNL     1      44.143 -17.868   5.242  1.00  0.00     0.224 C 
HETATM   17  N   UNL     1      44.586 -19.129   5.010  1.00  0.00    -0.325 N 
HETATM   18  H   UNL     1      45.201 -19.464   5.752  1.00  0.00     0.169 HD
HETATM   19  O   UNL     1      44.534 -17.274   6.256  1.00  0.00    -0.273 OA
BRANCH  17  20
HETATM   20  C   UNL     1      44.424 -20.063   3.962  1.00  0.00     0.073 A 
HETATM   21  C   UNL     1      44.023 -19.790   2.656  1.00  0.00     0.033 A 
HETATM   22  C   UNL     1      43.923 -20.826   1.715  1.00  0.00     0.002 A 
HETATM   23  C   UNL     1      44.220 -22.141   2.067  1.00  0.00     0.003 A 
HETATM   24  C   UNL     1      44.615 -22.432   3.367  1.00  0.00     0.044 A 
HETATM   25  C   UNL     1      44.709 -21.399   4.295  1.00  0.00     0.143 A 
HETATM   26  F   UNL     1      45.100 -21.689   5.546  1.00  0.00    -0.204 F 
ENDBRANCH  17  20
ENDBRANCH  15  16
ENDBRANCH   1  15
TORSDOF 3
ENDMDL
MODEL 7
REMARK VINA RESULT:      -7.2      2.463      6.160
REMARK  3 active torsions:
REMARK  status: ('A' for Active; 'I' for Inactive)
REMARK    1  A    between atoms: C_3  and  N_4 
REMARK       I    between atoms: N_4  and  C_5 
REMARK    2  A    between atoms: C_5  and  C_6 
REMARK    3  A    between atoms: C_6  and  C_7 
ROOT
HETATM    1  C   UNL     1      43.318 -17.959   4.195  1.00  0.00     0.286 C 
HETATM    2  N   UNL     1      44.711 -18.417   4.626  1.00  0.00    -0.056 N 
HETATM    3  H   UNL     1      45.387 -17.815   4.137  1.00  0.00     0.278 HD
HETATM    4  H   UNL     1      44.832 -18.161   5.629  1.00  0.00     0.278 HD
HETATM    5  C   UNL     1      45.088 -19.847   4.378  1.00  0.00     0.209 C 
HETATM    6  C   UNL     1      44.731 -20.231   2.923  1.00  0.00     0.115 C 
HETATM    7  N   UNL     1      43.381 -19.823   2.542  1.00  0.00    -0.353 N 
HETATM    8  C   UNL     1      42.840 -18.610   2.888  1.00  0.00     0.249 C 
HETATM    9  O   UNL     1      41.925 -18.134   2.226  1.00  0.00    -0.271 OA
HETATM   10  C   UNL     1      44.467 -20.763   5.432  1.00  0.00     0.035 C 
HETATM   11  C   UNL     1      44.765 -22.230   5.134  1.00  0.00     0.002 C 
HETATM   12  C   UNL     1      44.293 -22.609   3.734  1.00  0.00     0.002 C 
HETATM   13  C   UNL     1      44.945 -21.728   2.669  1.00  0.00     0.027 C 
HETATM   14  H   UNL     1      43.021 -20.157   1.648  1.00  0.00     0.163 HD
ENDROOT
BRANCH   1  15
HETATM   15  C   UNL     1      42.224 -18.181   5.253  1.00  0.00     0.146 C 
BRANCH  15  16
HETATM   16  C   UNL     1      42.481 -17.475   6.551  1.00  0.00     0.224 C 
HETATM   17  N   UNL     1      42.201 -16.160   6.726  1.00  0.00    -0.325 N 
HETATM   18  H   UNL     1      42.411 -15.843   7.674  1.00  0.00     0.169 HD
HETATM   19  O   UNL     1      42.907 -18.129   7.513  1.00  0.00    -0.273 OA
BRANCH  17  20
HETATM   20  C   UNL     1      41.652 -15.143   5.913  1.00  0.00     0.073 A 
HETATM   21  C   UNL     1      40.301 -14.842   5.753  1.00  0.00     0.033 A 
HETATM   22  C   UNL     1      39.905 -13.785   4.920  1.00  0.00     0.002 A 
HETATM   23  C   UNL     1      40.850 -13.021   4.237  1.00  0.00     0.003 A 
HETATM   24  C   UNL     1      42.201 -13.313   4.380  1.00  0.00     0.044 A 
HETATM   25  C   UNL     1      42.585 -14.363   5.207  1.00  0.00     0.143 A 
HETATM   26  F   UNL     1      43.894 -14.632   5.344  1.00  0.00    -0.204 F 
ENDBRANCH  17  20
ENDBRANCH  15  16
ENDBRANCH   1  15
TORSDOF 3
ENDMDL
MODEL 8
REMARK VINA RESULT:      -7.2      1.828      2.464
REMARK  3 active torsions:
REMARK  status: ('A' for Active; 'I' for Inactive)
REMARK    1  A    between atoms: C_3  and  N_4 
REMARK       I    between atoms: N_4  and  C_5 
REMARK    2  A    between atoms: C_5  and  C_6 
REMARK    3  A    between atoms: C_6  and  C_7 
ROOT
HETATM    1  C   UNL     1      43.894 -16.105   5.640  1.00  0.00     0.286 C 
HETATM    2  N   UNL     1      43.409 -15.616   4.276  1.00  0.00    -0.056 N 
HETATM    3  H   UNL     1      44.208 -15.151   3.825  1.00  0.00     0.278 HD
HETATM    4  H   UNL     1      43.243 -16.455   3.680  1.00  0.00     0.278 HD
HETATM    5  C   UNL     1      42.237 -14.681   4.240  1.00  0.00     0.209 C 
HETATM    6  C   UNL     1      42.452 -13.543   5.267  1.00  0.00     0.115 C 
HETATM    7  N   UNL     1      42.875 -14.033   6.577  1.00  0.00    -0.353 N 
HETATM    8  C   UNL     1      43.796 -15.036   6.739  1.00  0.00     0.249 C 
HETATM    9  O   UNL     1      44.428 -15.125   7.786  1.00  0.00    -0.271 OA
HETATM   10  C   UNL     1      40.927 -15.445   4.426  1.00  0.00     0.035 C 
HETATM   11  C   UNL     1      39.735 -14.493   4.488  1.00  0.00     0.002 C 
HETATM   12  C   UNL     1      39.924 -13.454   5.589  1.00  0.00     0.002 C 
HETATM   13  C   UNL     1      41.209 -12.654   5.387  1.00  0.00     0.027 C 
HETATM   14  H   UNL     1      42.907 -13.360   7.343  1.00  0.00     0.163 HD
ENDROOT
BRANCH   1  15
HETATM   15  C   UNL     1      43.177 -17.366   6.152  1.00  0.00     0.146 C 
BRANCH  15  16
HETATM   16  C   UNL     1      44.108 -18.439   6.635  1.00  0.00     0.224 C 
HETATM   17  N   UNL     1      44.507 -19.460   5.836  1.00  0.00    -0.325 N 
HETATM   18  H   UNL     1      45.160 -20.087   6.310  1.00  0.00     0.169 HD
HETATM   19  O   UNL     1      44.574 -18.356   7.779  1.00  0.00    -0.273 OA
BRANCH  17  20
HETATM   20  C   UNL     1      44.260 -19.831   4.496  1.00  0.00     0.073 A 
HETATM   21  C   UNL     1      43.658 -19.048   3.512  1.00  0.00     0.033 A 
HETATM   22  C   UNL     1      43.494 -19.549   2.212  1.00  0.00     0.002 A 
HETATM   23  C   UNL     1      43.925 -20.832   1.881  1.00  0.00     0.003 A 
HETATM   24  C   UNL     1      44.521 -21.628   2.852  1.00  0.00     0.044 A 
HETATM   25  C   UNL     1      44.678 -21.125   4.139  1.00  0.00     0.143 A 
HETATM   26  F   UNL     1      45.262 -21.899   5.068  1.00  0.00    -0.204 F 
ENDBRANCH  17  20
ENDBRANCH  15  16
ENDBRANCH   1  15
TORSDOF 3
ENDMDL
MODEL 9
REMARK VINA RESULT:      -7.2      2.979      4.230
REMARK  3 active torsions:
REMARK  status: ('A' for Active; 'I' for Inactive)
REMARK    1  A    between atoms: C_3  and  N_4 
REMARK       I    between atoms: N_4  and  C_5 
REMARK    2  A    between atoms: C_5  and  C_6 
REMARK    3  A    between atoms: C_6  and  C_7 
ROOT
HETATM    1  C   UNL     1      41.660 -13.968   3.132  1.00  0.00     0.286 C 
HETATM    2  N   UNL     1      42.116 -14.214   1.695  1.00  0.00    -0.056 N 
HETATM    3  H   UNL     1      41.443 -13.734   1.083  1.00  0.00     0.278 HD
HETATM    4  H   UNL     1      43.003 -13.685   1.549  1.00  0.00     0.278 HD
HETATM    5  C   UNL     1      42.246 -15.634   1.232  1.00  0.00     0.209 C 
HETATM    6  C   UNL     1      40.974 -16.423   1.623  1.00  0.00     0.115 C 
HETATM    7  N   UNL     1      40.577 -16.209   3.012  1.00  0.00    -0.353 N 
HETATM    8  C   UNL     1      40.611 -14.979   3.619  1.00  0.00     0.249 C 
HETATM    9  O   UNL     1      39.899 -14.754   4.591  1.00  0.00    -0.271 OA
HETATM   10  C   UNL     1      43.544 -16.256   1.744  1.00  0.00     0.035 C 
HETATM   11  C   UNL     1      43.641 -17.730   1.360  1.00  0.00     0.002 C 
HETATM   12  C   UNL     1      42.427 -18.505   1.863  1.00  0.00     0.002 C 
HETATM   13  C   UNL     1      41.126 -17.918   1.318  1.00  0.00     0.027 C 
HETATM   14  H   UNL     1      39.831 -16.796   3.385  1.00  0.00     0.163 HD
ENDROOT
BRANCH   1  15
HETATM   15  C   UNL     1      42.800 -13.948   4.164  1.00  0.00     0.146 C 
BRANCH  15  16
HETATM   16  C   UNL     1      42.330 -13.923   5.588  1.00  0.00     0.224 C 
HETATM   17  N   UNL     1      42.448 -14.998   6.407  1.00  0.00    -0.325 N 
HETATM   18  H   UNL     1      42.105 -14.805   7.349  1.00  0.00     0.169 HD
HETATM   19  O   UNL     1      41.876 -12.867   6.050  1.00  0.00    -0.273 OA
BRANCH  17  20
HETATM   20  C   UNL     1      42.970 -16.304   6.266  1.00  0.00     0.073 A 
HETATM   21  C   UNL     1      42.281 -17.434   5.830  1.00  0.00     0.033 A 
HETATM   22  C   UNL     1      42.942 -18.667   5.723  1.00  0.00     0.002 A 
HETATM   23  C   UNL     1      44.291 -18.786   6.051  1.00  0.00     0.003 A 
HETATM   24  C   UNL     1      44.990 -17.670   6.494  1.00  0.00     0.044 A 
HETATM   25  C   UNL     1      44.328 -16.451   6.599  1.00  0.00     0.143 A 
HETATM   26  F   UNL     1      45.015 -15.377   7.020  1.00  0.00    -0.204 F 
ENDBRANCH  17  20
ENDBRANCH  15  16
ENDBRANCH   1  15
TORSDOF 3
ENDMDL
MODEL 10
REMARK VINA RESULT:      -7.1      2.717      5.275
REMARK  3 active torsions:
REMARK  status: ('A' for Active; 'I' for Inactive)
REMARK    1  A    between atoms: C_3  and  N_4 
REMARK       I    between atoms: N_4  and  C_5 
REMARK    2  A    between atoms: C_5  and  C_6 
REMARK    3  A    between atoms: C_6  and  C_7 
ROOT
HETATM    1  C   UNL     1      42.210 -16.281   6.509  1.00  0.00     0.286 C 
HETATM    2  N   UNL     1      41.513 -17.400   5.738  1.00  0.00    -0.056 N 
HETATM    3  H   UNL     1      40.787 -17.782   6.358  1.00  0.00     0.278 HD
HETATM    4  H   UNL     1      40.970 -16.961   4.963  1.00  0.00     0.278 HD
HETATM    5  C   UNL     1      42.353 -18.538   5.238  1.00  0.00     0.209 C 
HETATM    6  C   UNL     1      43.266 -19.046   6.379  1.00  0.00     0.115 C 
HETATM    7  N   UNL     1      43.957 -17.964   7.078  1.00  0.00    -0.353 N 
HETATM    8  C   UNL     1      43.348 -16.781   7.411  1.00  0.00     0.249 C 
HETATM    9  O   UNL     1      43.789 -16.102   8.332  1.00  0.00    -0.271 OA
HETATM   10  C   UNL     1      43.106 -18.140   3.969  1.00  0.00     0.035 C 
HETATM   11  C   UNL     1      44.038 -19.257   3.507  1.00  0.00     0.002 C 
HETATM   12  C   UNL     1      45.006 -19.655   4.617  1.00  0.00     0.002 C 
HETATM   13  C   UNL     1      44.261 -20.098   5.875  1.00  0.00     0.027 C 
HETATM   14  H   UNL     1      44.678 -18.223   7.751  1.00  0.00     0.163 HD
ENDROOT
BRANCH   1  15
HETATM   15  C   UNL     1      42.777 -15.159   5.623  1.00  0.00     0.146 C 
BRANCH  15  16
HETATM   16  C   UNL     1      41.745 -14.176   5.153  1.00  0.00     0.224 C 
HETATM   17  N   UNL     1      41.115 -14.306   3.959  1.00  0.00    -0.325 N 
HETATM   18  H   UNL     1      40.424 -13.570   3.805  1.00  0.00     0.169 HD
HETATM   19  O   UNL     1      41.414 -13.250   5.906  1.00  0.00    -0.273 OA
BRANCH  17  20
HETATM   20  C   UNL     1      41.167 -15.244   2.904  1.00  0.00     0.073 A 
HETATM   21  C   UNL     1      40.279 -16.293   2.676  1.00  0.00     0.033 A 
HETATM   22  C   UNL     1      40.450 -17.137   1.568  1.00  0.00     0.002 A 
HETATM   23  C   UNL     1      41.507 -16.946   0.681  1.00  0.00     0.003 A 
HETATM   24  C   UNL     1      42.406 -15.909   0.898  1.00  0.00     0.044 A 
HETATM   25  C   UNL     1      42.231 -15.078   1.999  1.00  0.00     0.143 A 
HETATM   26  F   UNL     1      43.100 -14.073   2.195  1.00  0.00    -0.204 F 
ENDBRANCH  17  20
ENDBRANCH  15  16
ENDBRANCH   1  15
TORSDOF 3
ENDMDL
