MODEL 1
REMARK VINA RESULT:      -9.5      0.000      0.000
REMARK  7 active torsions:
REMARK  status: ('A' for Active; 'I' for Inactive)
REMARK    1  A    between atoms: C_2  and  O_3 
REMARK    2  A    between atoms: O_3  and  C_4 
REMARK    3  A    between atoms: C_5  and  C_6 
REMARK    4  A    between atoms: C_9  and  C_10 
REMARK       I    between atoms: C_10  and  N_11 
REMARK    5  A    between atoms: N_11  and  C_12 
REMARK    6  A    between atoms: C_25  and  C_26 
REMARK       I    between atoms: C_26  and  N_27 
REMARK    7  A    between atoms: N_27  and  C_28 
ROOT
HETATM    1  C   UNL     1      43.356 -15.635   5.157  1.00  0.00     0.188 A 
HETATM    2  N   UNL     1      43.622 -14.452   5.999  1.00  0.00    -0.239 N 
HETATM    3  C   UNL     1      43.887 -14.501   7.352  1.00  0.00     0.142 A 
HETATM    4  C   UNL     1      44.069 -13.191   7.748  1.00  0.00     0.097 A 
HETATM    5  C   UNL     1      43.876 -12.441   6.561  1.00  0.00     0.160 A 
HETATM    6  N   UNL     1      43.663 -13.202   5.487  1.00  0.00    -0.181 NA
HETATM    7  N   UNL     1      43.886 -15.705   7.981  1.00  0.00    -0.343 N 
HETATM    8  C   UNL     1      43.616 -16.903   7.315  1.00  0.00     0.021 A 
HETATM    9  C   UNL     1      43.640 -18.171   8.129  1.00  0.00     0.069 C 
HETATM   10  C   UNL     1      43.356 -16.901   5.987  1.00  0.00     0.061 A 
HETATM   11  H   UNL     1      43.911 -15.773   8.997  1.00  0.00     0.167 HD
ENDROOT
BRANCH   4  12
HETATM   12  C   UNL     1      44.381 -12.628   9.048  1.00  0.00     0.261 C 
HETATM   13  N   UNL     1      43.373 -11.837   9.569  1.00  0.00    -0.323 N 
HETATM   14  H   UNL     1      42.523 -11.789   9.019  1.00  0.00     0.169 HD
HETATM   15  O   UNL     1      45.429 -12.923   9.609  1.00  0.00    -0.267 OA
BRANCH  13  16
HETATM   16  C   UNL     1      43.326 -11.257  10.855  1.00  0.00     0.035 A 
HETATM   17  C   UNL     1      42.965 -11.954  12.014  1.00  0.00     0.032 A 
HETATM   18  C   UNL     1      42.904 -11.299  13.249  1.00  0.00     0.044 A 
HETATM   19  C   UNL     1      43.210  -9.948  13.325  1.00  0.00     0.116 A 
HETATM   20  F   UNL     1      43.144  -9.321  14.506  1.00  0.00    -0.206 F 
HETATM   21  C   UNL     1      43.582  -9.240  12.191  1.00  0.00     0.044 A 
HETATM   22  C   UNL     1      43.641  -9.894  10.956  1.00  0.00     0.032 A 
ENDBRANCH  13  16
ENDBRANCH   4  12
BRANCH   1  23
HETATM   23  C   UNL     1      42.099 -15.401   4.317  1.00  0.00     0.005 A 
HETATM   24  C   UNL     1      42.041 -15.631   2.931  1.00  0.00     0.077 A 
HETATM   25  C   UNL     1      40.862 -15.399   2.216  1.00  0.00     0.037 A 
HETATM   26  C   UNL     1      39.710 -14.983   2.881  1.00  0.00     0.003 A 
HETATM   27  C   UNL     1      39.739 -14.778   4.257  1.00  0.00     0.001 A 
HETATM   28  C   UNL     1      40.922 -14.982   4.968  1.00  0.00     0.012 A 
BRANCH  24  29
HETATM   29  O   UNL     1      43.202 -15.943   2.267  1.00  0.00    -0.351 OA
BRANCH  29  30
HETATM   30  C   UNL     1      42.963 -16.617   1.026  1.00  0.00     0.171 C 
HETATM   31  C   UNL     1      43.903 -17.808   0.963  1.00  0.00     0.034 C 
ENDBRANCH  29  30
ENDBRANCH  24  29
ENDBRANCH   1  23
BRANCH  10  32
HETATM   32  C   UNL     1      43.096 -18.154   5.241  1.00  0.00     0.256 C 
HETATM   33  N   UNL     1      44.266 -18.776   4.870  1.00  0.00    -0.323 N 
HETATM   34  H   UNL     1      45.126 -18.318   5.161  1.00  0.00     0.169 HD
HETATM   35  O   UNL     1      41.943 -18.523   5.064  1.00  0.00    -0.267 OA
BRANCH  33  36
HETATM   36  C   UNL     1      44.420 -20.069   4.335  1.00  0.00     0.035 A 
HETATM   37  C   UNL     1      44.300 -20.371   2.979  1.00  0.00     0.029 A 
HETATM   38  C   UNL     1      44.426 -21.693   2.538  1.00  0.00     0.002 A 
HETATM   39  C   UNL     1      44.669 -22.720   3.447  1.00  0.00     0.000 A 
HETATM   40  C   UNL     1      44.797 -22.426   4.803  1.00  0.00     0.002 A 
HETATM   41  C   UNL     1      44.678 -21.106   5.242  1.00  0.00     0.029 A 
ENDBRANCH  33  36
ENDBRANCH  10  32
TORSDOF 7
ENDMDL
MODEL 2
REMARK VINA RESULT:      -9.3      2.958      3.627
REMARK  7 active torsions:
REMARK  status: ('A' for Active; 'I' for Inactive)
REMARK    1  A    between atoms: C_2  and  O_3 
REMARK    2  A    between atoms: O_3  and  C_4 
REMARK    3  A    between atoms: C_5  and  C_6 
REMARK    4  A    between atoms: C_9  and  C_10 
REMARK       I    between atoms: C_10  and  N_11 
REMARK    5  A    between atoms: N_11  and  C_12 
REMARK    6  A    between atoms: C_25  and  C_26 
REMARK       I    between atoms: C_26  and  N_27 
REMARK    7  A    between atoms: N_27  and  C_28 
ROOT
HETATM    1  C   UNL     1      41.044 -13.981   3.423  1.00  0.00     0.188 A 
HETATM    2  N   UNL     1      40.721 -12.813   4.265  1.00  0.00    -0.239 N 
HETATM    3  C   UNL     1      40.443 -12.876   5.615  1.00  0.00     0.142 A 
HETATM    4  C   UNL     1      40.193 -11.577   6.010  1.00  0.00     0.097 A 
HETATM    5  C   UNL     1      40.330 -10.821   4.819  1.00  0.00     0.160 A 
HETATM    6  N   UNL     1      40.707 -11.554   3.770  1.00  0.00    -0.181 NA
HETATM    7  N   UNL     1      40.439 -14.087   6.231  1.00  0.00    -0.343 N 
HETATM    8  C   UNL     1      40.693 -15.280   5.550  1.00  0.00     0.021 A 
HETATM    9  C   UNL     1      40.652 -16.557   6.349  1.00  0.00     0.069 C 
HETATM   10  C   UNL     1      40.975 -15.263   4.227  1.00  0.00     0.061 A 
HETATM   11  H   UNL     1      40.080 -14.198   7.178  1.00  0.00     0.167 HD
ENDROOT
BRANCH   4  12
HETATM   12  C   UNL     1      39.857 -11.029   7.310  1.00  0.00     0.261 C 
HETATM   13  N   UNL     1      40.856 -11.182   8.254  1.00  0.00    -0.323 N 
HETATM   14  H   UNL     1      41.716 -11.601   7.920  1.00  0.00     0.169 HD
HETATM   15  O   UNL     1      38.798 -10.436   7.471  1.00  0.00    -0.267 OA
BRANCH  13  16
HETATM   16  C   UNL     1      40.879 -10.651   9.562  1.00  0.00     0.035 A 
HETATM   17  C   UNL     1      40.174 -11.200  10.639  1.00  0.00     0.032 A 
HETATM   18  C   UNL     1      40.216 -10.593  11.900  1.00  0.00     0.044 A 
HETATM   19  C   UNL     1      40.968  -9.441  12.082  1.00  0.00     0.116 A 
HETATM   20  F   UNL     1      41.000  -8.857  13.287  1.00  0.00    -0.206 F 
HETATM   21  C   UNL     1      41.684  -8.887  11.031  1.00  0.00     0.044 A 
HETATM   22  C   UNL     1      41.641  -9.492   9.771  1.00  0.00     0.032 A 
ENDBRANCH  13  16
ENDBRANCH   4  12
BRANCH   1  23
HETATM   23  C   UNL     1      40.193 -13.956   2.153  1.00  0.00     0.005 A 
HETATM   24  C   UNL     1      40.711 -13.656   0.880  1.00  0.00     0.077 A 
HETATM   25  C   UNL     1      39.882 -13.650  -0.246  1.00  0.00     0.037 A 
HETATM   26  C   UNL     1      38.536 -13.991  -0.127  1.00  0.00     0.003 A 
HETATM   27  C   UNL     1      38.011 -14.320   1.118  1.00  0.00     0.001 A 
HETATM   28  C   UNL     1      38.830 -14.300   2.248  1.00  0.00     0.012 A 
BRANCH  24  29
HETATM   29  O   UNL     1      42.011 -13.224   0.785  1.00  0.00    -0.351 OA
BRANCH  29  30
HETATM   30  C   UNL     1      42.106 -11.836   0.442  1.00  0.00     0.171 C 
HETATM   31  C   UNL     1      42.745 -11.747  -0.933  1.00  0.00     0.034 C 
ENDBRANCH  29  30
ENDBRANCH  24  29
ENDBRANCH   1  23
BRANCH  10  32
HETATM   32  C   UNL     1      41.280 -16.504   3.478  1.00  0.00     0.256 C 
HETATM   33  N   UNL     1      42.589 -16.893   3.653  1.00  0.00    -0.323 N 
HETATM   34  H   UNL     1      43.150 -16.306   4.265  1.00  0.00     0.169 HD
HETATM   35  O   UNL     1      40.394 -17.059   2.843  1.00  0.00    -0.267 OA
BRANCH  33  36
HETATM   36  C   UNL     1      43.181 -18.111   3.271  1.00  0.00     0.035 A 
HETATM   37  C   UNL     1      43.018 -18.698   2.016  1.00  0.00     0.029 A 
HETATM   38  C   UNL     1      43.609 -19.934   1.734  1.00  0.00     0.002 A 
HETATM   39  C   UNL     1      44.363 -20.593   2.703  1.00  0.00     0.000 A 
HETATM   40  C   UNL     1      44.535 -20.011   3.957  1.00  0.00     0.002 A 
HETATM   41  C   UNL     1      43.951 -18.774   4.236  1.00  0.00     0.029 A 
ENDBRANCH  33  36
ENDBRANCH  10  32
TORSDOF 7
ENDMDL
MODEL 3
REMARK VINA RESULT:      -9.1      2.329      3.127
REMARK  7 active torsions:
REMARK  status: ('A' for Active; 'I' for Inactive)
REMARK    1  A    between atoms: C_2  and  O_3 
REMARK    2  A    between atoms: O_3  and  C_4 
REMARK    3  A    between atoms: C_5  and  C_6 
REMARK    4  A    between atoms: C_9  and  C_10 
REMARK       I    between atoms: C_10  and  N_11 
REMARK    5  A    between atoms: N_11  and  C_12 
REMARK    6  A    between atoms: C_25  and  C_26 
REMARK       I    between atoms: C_26  and  N_27 
REMARK    7  A    between atoms: N_27  and  C_28 
ROOT
HETATM    1  C   UNL     1      42.453 -13.450   3.745  1.00  0.00     0.188 A 
HETATM    2  N   UNL     1      41.973 -12.438   4.706  1.00  0.00    -0.239 N 
HETATM    3  C   UNL     1      42.092 -12.546   6.077  1.00  0.00     0.142 A 
HETATM    4  C   UNL     1      41.516 -11.403   6.596  1.00  0.00     0.097 A 
HETATM    5  C   UNL     1      41.071 -10.690   5.454  1.00  0.00     0.160 A 
HETATM    6  N   UNL     1      41.397 -11.283   4.304  1.00  0.00    -0.181 NA
HETATM    7  N   UNL     1      42.666 -13.658   6.604  1.00  0.00    -0.343 N 
HETATM    8  C   UNL     1      43.135 -14.711   5.814  1.00  0.00     0.021 A 
HETATM    9  C   UNL     1      43.746 -15.892   6.523  1.00  0.00     0.069 C 
HETATM   10  C   UNL     1      43.042 -14.644   4.466  1.00  0.00     0.061 A 
HETATM   11  H   UNL     1      42.625 -13.853   7.603  1.00  0.00     0.167 HD
ENDROOT
BRANCH   4  12
HETATM   12  C   UNL     1      41.357 -10.960   7.968  1.00  0.00     0.261 C 
HETATM   13  N   UNL     1      42.520 -11.032   8.714  1.00  0.00    -0.323 N 
HETATM   14  H   UNL     1      43.348 -11.326   8.211  1.00  0.00     0.169 HD
HETATM   15  O   UNL     1      40.284 -10.510   8.347  1.00  0.00    -0.267 OA
BRANCH  13  16
HETATM   16  C   UNL     1      42.715 -10.562  10.031  1.00  0.00     0.035 A 
HETATM   17  C   UNL     1      42.351  -9.283  10.465  1.00  0.00     0.032 A 
HETATM   18  C   UNL     1      42.612  -8.876  11.779  1.00  0.00     0.044 A 
HETATM   19  C   UNL     1      43.234  -9.751  12.658  1.00  0.00     0.116 A 
HETATM   20  F   UNL     1      43.490  -9.358  13.911  1.00  0.00    -0.206 F 
HETATM   21  C   UNL     1      43.593 -11.029  12.252  1.00  0.00     0.044 A 
HETATM   22  C   UNL     1      43.332 -11.435  10.939  1.00  0.00     0.032 A 
ENDBRANCH  13  16
ENDBRANCH   4  12
BRANCH   1  23
HETATM   23  C   UNL     1      41.350 -13.771   2.735  1.00  0.00     0.005 A 
HETATM   24  C   UNL     1      41.409 -13.397   1.381  1.00  0.00     0.077 A 
HETATM   25  C   UNL     1      40.368 -13.720   0.504  1.00  0.00     0.037 A 
HETATM   26  C   UNL     1      39.278 -14.463   0.955  1.00  0.00     0.003 A 
HETATM   27  C   UNL     1      39.216 -14.868   2.284  1.00  0.00     0.001 A 
HETATM   28  C   UNL     1      40.240 -14.523   3.167  1.00  0.00     0.012 A 
BRANCH  24  29
HETATM   29  O   UNL     1      42.433 -12.580   0.968  1.00  0.00    -0.351 OA
BRANCH  29  30
HETATM   30  C   UNL     1      41.986 -11.530   0.103  1.00  0.00     0.171 C 
HETATM   31  C   UNL     1      42.803 -11.610  -1.175  1.00  0.00     0.034 C 
ENDBRANCH  29  30
ENDBRANCH  24  29
ENDBRANCH   1  23
BRANCH  10  32
HETATM   32  C   UNL     1      43.556 -15.727   3.594  1.00  0.00     0.256 C 
HETATM   33  N   UNL     1      43.320 -16.970   4.137  1.00  0.00    -0.323 N 
HETATM   34  H   UNL     1      42.827 -16.981   5.027  1.00  0.00     0.169 HD
HETATM   35  O   UNL     1      44.075 -15.445   2.524  1.00  0.00    -0.267 OA
BRANCH  33  36
HETATM   36  C   UNL     1      43.477 -18.223   3.515  1.00  0.00     0.035 A 
HETATM   37  C   UNL     1      44.382 -19.195   3.939  1.00  0.00     0.029 A 
HETATM   38  C   UNL     1      44.505 -20.399   3.237  1.00  0.00     0.002 A 
HETATM   39  C   UNL     1      43.727 -20.637   2.106  1.00  0.00     0.000 A 
HETATM   40  C   UNL     1      42.816 -19.673   1.679  1.00  0.00     0.002 A 
HETATM   41  C   UNL     1      42.689 -18.475   2.385  1.00  0.00     0.029 A 
ENDBRANCH  33  36
ENDBRANCH  10  32
TORSDOF 7
ENDMDL
MODEL 4
REMARK VINA RESULT:      -8.9      5.376      9.873
REMARK  7 active torsions:
REMARK  status: ('A' for Active; 'I' for Inactive)
REMARK    1  A    between atoms: C_2  and  O_3 
REMARK    2  A    between atoms: O_3  and  C_4 
REMARK    3  A    between atoms: C_5  and  C_6 
REMARK    4  A    between atoms: C_9  and  C_10 
REMARK       I    between atoms: C_10  and  N_11 
REMARK    5  A    between atoms: N_11  and  C_12 
REMARK    6  A    between atoms: C_25  and  C_26 
REMARK       I    between atoms: C_26  and  N_27 
REMARK    7  A    between atoms: N_27  and  C_28 
ROOT
HETATM    1  C   UNL     1      41.710 -12.613   1.696  1.00  0.00     0.188 A 
HETATM    2  N   UNL     1      41.955 -13.731   2.627  1.00  0.00    -0.239 N 
HETATM    3  C   UNL     1      41.892 -15.065   2.279  1.00  0.00     0.142 A 
HETATM    4  C   UNL     1      42.177 -15.770   3.432  1.00  0.00     0.097 A 
HETATM    5  C   UNL     1      42.378 -14.764   4.411  1.00  0.00     0.160 A 
HETATM    6  N   UNL     1      42.303 -13.527   3.918  1.00  0.00    -0.181 NA
HETATM    7  N   UNL     1      41.563 -15.399   1.004  1.00  0.00    -0.343 N 
HETATM    8  C   UNL     1      41.272 -14.445   0.026  1.00  0.00     0.021 A 
HETATM    9  C   UNL     1      40.915 -14.947  -1.349  1.00  0.00     0.069 C 
HETATM   10  C   UNL     1      41.327 -13.126   0.324  1.00  0.00     0.061 A 
HETATM   11  H   UNL     1      41.344 -16.361   0.748  1.00  0.00     0.167 HD
ENDROOT
BRANCH   4  12
HETATM   12  C   UNL     1      42.266 -17.197   3.674  1.00  0.00     0.261 C 
HETATM   13  N   UNL     1      43.278 -17.820   2.966  1.00  0.00    -0.323 N 
HETATM   14  H   UNL     1      43.867 -17.209   2.412  1.00  0.00     0.169 HD
HETATM   15  O   UNL     1      41.529 -17.727   4.495  1.00  0.00    -0.267 OA
BRANCH  13  16
HETATM   16  C   UNL     1      43.692 -19.164   3.079  1.00  0.00     0.035 A 
HETATM   17  C   UNL     1      44.360 -19.684   4.194  1.00  0.00     0.032 A 
HETATM   18  C   UNL     1      44.774 -21.020   4.217  1.00  0.00     0.044 A 
HETATM   19  C   UNL     1      44.515 -21.838   3.126  1.00  0.00     0.116 A 
HETATM   20  F   UNL     1      44.919 -23.114   3.146  1.00  0.00    -0.206 F 
HETATM   21  C   UNL     1      43.844 -21.347   2.015  1.00  0.00     0.044 A 
HETATM   22  C   UNL     1      43.432 -20.011   1.992  1.00  0.00     0.032 A 
ENDBRANCH  13  16
ENDBRANCH   4  12
BRANCH   1  23
HETATM   23  C   UNL     1      40.730 -11.621   2.323  1.00  0.00     0.005 A 
HETATM   24  C   UNL     1      39.391 -11.935   2.614  1.00  0.00     0.077 A 
HETATM   25  C   UNL     1      38.541 -10.984   3.189  1.00  0.00     0.037 A 
HETATM   26  C   UNL     1      39.029  -9.723   3.527  1.00  0.00     0.003 A 
HETATM   27  C   UNL     1      40.359  -9.402   3.274  1.00  0.00     0.001 A 
HETATM   28  C   UNL     1      41.201 -10.340   2.675  1.00  0.00     0.012 A 
BRANCH  24  29
HETATM   29  O   UNL     1      38.891 -13.141   2.188  1.00  0.00    -0.351 OA
BRANCH  29  30
HETATM   30  C   UNL     1      37.753 -12.994   1.331  1.00  0.00     0.171 C 
HETATM   31  C   UNL     1      37.569 -14.302   0.584  1.00  0.00     0.034 C 
ENDBRANCH  29  30
ENDBRANCH  24  29
ENDBRANCH   1  23
BRANCH  10  32
HETATM   32  C   UNL     1      41.055 -12.085  -0.695  1.00  0.00     0.256 C 
HETATM   33  N   UNL     1      42.207 -11.694  -1.340  1.00  0.00    -0.323 N 
HETATM   34  H   UNL     1      43.060 -12.166  -1.053  1.00  0.00     0.169 HD
HETATM   35  O   UNL     1      39.906 -11.715  -0.888  1.00  0.00    -0.267 OA
BRANCH  33  36
HETATM   36  C   UNL     1      42.316 -10.888  -2.489  1.00  0.00     0.035 A 
HETATM   37  C   UNL     1      42.408  -9.497  -2.459  1.00  0.00     0.029 A 
HETATM   38  C   UNL     1      42.472  -8.769  -3.653  1.00  0.00     0.002 A 
HETATM   39  C   UNL     1      42.440  -9.426  -4.881  1.00  0.00     0.000 A 
HETATM   40  C   UNL     1      42.354 -10.815  -4.919  1.00  0.00     0.002 A 
HETATM   41  C   UNL     1      42.298 -11.542  -3.728  1.00  0.00     0.029 A 
ENDBRANCH  33  36
ENDBRANCH  10  32
TORSDOF 7
ENDMDL
MODEL 5
REMARK VINA RESULT:      -8.8      5.618     10.058
REMARK  7 active torsions:
REMARK  status: ('A' for Active; 'I' for Inactive)
REMARK    1  A    between atoms: C_2  and  O_3 
REMARK    2  A    between atoms: O_3  and  C_4 
REMARK    3  A    between atoms: C_5  and  C_6 
REMARK    4  A    between atoms: C_9  and  C_10 
REMARK       I    between atoms: C_10  and  N_11 
REMARK    5  A    between atoms: N_11  and  C_12 
REMARK    6  A    between atoms: C_25  and  C_26 
REMARK       I    between atoms: C_26  and  N_27 
REMARK    7  A    between atoms: N_27  and  C_28 
ROOT
HETATM    1  C   UNL     1      41.562 -12.813   1.306  1.00  0.00     0.188 A 
HETATM    2  N   UNL     1      41.818 -13.878   2.296  1.00  0.00    -0.239 N 
HETATM    3  C   UNL     1      41.814 -15.228   2.010  1.00  0.00     0.142 A 
HETATM    4  C   UNL     1      42.088 -15.867   3.203  1.00  0.00     0.097 A 
HETATM    5  C   UNL     1      42.221 -14.811   4.139  1.00  0.00     0.160 A 
HETATM    6  N   UNL     1      42.117 -13.602   3.585  1.00  0.00    -0.181 NA
HETATM    7  N   UNL     1      41.538 -15.632   0.743  1.00  0.00    -0.343 N 
HETATM    8  C   UNL     1      41.244 -14.735  -0.288  1.00  0.00     0.021 A 
HETATM    9  C   UNL     1      40.949 -15.313  -1.648  1.00  0.00     0.069 C 
HETATM   10  C   UNL     1      41.241 -13.403  -0.051  1.00  0.00     0.061 A 
HETATM   11  H   UNL     1      41.362 -16.612   0.525  1.00  0.00     0.167 HD
ENDROOT
BRANCH   4  12
HETATM   12  C   UNL     1      42.220 -17.277   3.514  1.00  0.00     0.261 C 
HETATM   13  N   UNL     1      43.200 -17.920   2.778  1.00  0.00    -0.323 N 
HETATM   14  H   UNL     1      43.743 -17.330   2.158  1.00  0.00     0.169 HD
HETATM   15  O   UNL     1      41.545 -17.775   4.405  1.00  0.00    -0.267 OA
BRANCH  13  16
HETATM   16  C   UNL     1      43.648 -19.249   2.937  1.00  0.00     0.035 A 
HETATM   17  C   UNL     1      44.376 -19.701   4.045  1.00  0.00     0.032 A 
HETATM   18  C   UNL     1      44.819 -21.026   4.113  1.00  0.00     0.044 A 
HETATM   19  C   UNL     1      44.530 -21.901   3.075  1.00  0.00     0.116 A 
HETATM   20  F   UNL     1      44.962 -23.166   3.138  1.00  0.00    -0.206 F 
HETATM   21  C   UNL     1      43.800 -21.478   1.973  1.00  0.00     0.044 A 
HETATM   22  C   UNL     1      43.359 -20.152   1.905  1.00  0.00     0.032 A 
ENDBRANCH  13  16
ENDBRANCH   4  12
BRANCH   1  23
HETATM   23  C   UNL     1      40.528 -11.830   1.857  1.00  0.00     0.005 A 
HETATM   24  C   UNL     1      40.602 -10.440   1.662  1.00  0.00     0.077 A 
HETATM   25  C   UNL     1      39.624  -9.590   2.190  1.00  0.00     0.037 A 
HETATM   26  C   UNL     1      38.533 -10.121   2.876  1.00  0.00     0.003 A 
HETATM   27  C   UNL     1      38.426 -11.496   3.053  1.00  0.00     0.001 A 
HETATM   28  C   UNL     1      39.415 -12.343   2.552  1.00  0.00     0.012 A 
BRANCH  24  29
HETATM   29  O   UNL     1      41.728  -9.918   1.075  1.00  0.00    -0.351 OA
BRANCH  29  30
HETATM   30  C   UNL     1      41.534  -8.578   0.604  1.00  0.00     0.171 C 
HETATM   31  C   UNL     1      42.896  -7.912   0.542  1.00  0.00     0.034 C 
ENDBRANCH  29  30
ENDBRANCH  24  29
ENDBRANCH   1  23
BRANCH  10  32
HETATM   32  C   UNL     1      40.965 -12.420  -1.125  1.00  0.00     0.256 C 
HETATM   33  N   UNL     1      42.123 -11.847  -1.599  1.00  0.00    -0.323 N 
HETATM   34  H   UNL     1      42.988 -12.175  -1.175  1.00  0.00     0.169 HD
HETATM   35  O   UNL     1      39.814 -12.242  -1.498  1.00  0.00    -0.267 OA
BRANCH  33  36
HETATM   36  C   UNL     1      42.276 -11.035  -2.738  1.00  0.00     0.035 A 
HETATM   37  C   UNL     1      42.400  -9.647  -2.695  1.00  0.00     0.029 A 
HETATM   38  C   UNL     1      42.506  -8.911  -3.881  1.00  0.00     0.002 A 
HETATM   39  C   UNL     1      42.485  -9.557  -5.115  1.00  0.00     0.000 A 
HETATM   40  C   UNL     1      42.367 -10.944  -5.167  1.00  0.00     0.002 A 
HETATM   41  C   UNL     1      42.269 -11.679  -3.983  1.00  0.00     0.029 A 
ENDBRANCH  33  36
ENDBRANCH  10  32
TORSDOF 7
ENDMDL
MODEL 6
REMARK VINA RESULT:      -8.6      2.135      3.102
REMARK  7 active torsions:
REMARK  status: ('A' for Active; 'I' for Inactive)
REMARK    1  A    between atoms: C_2  and  O_3 
REMARK    2  A    between atoms: O_3  and  C_4 
REMARK    3  A    between atoms: C_5  and  C_6 
REMARK    4  A    between atoms: C_9  and  C_10 
REMARK       I    between atoms: C_10  and  N_11 
REMARK    5  A    between atoms: N_11  and  C_12 
REMARK    6  A    between atoms: C_25  and  C_26 
REMARK       I    between atoms: C_26  and  N_27 
REMARK    7  A    between atoms: N_27  and  C_28 
ROOT
HETATM    1  C   UNL     1      42.438 -13.207   3.860  1.00  0.00     0.188 A 
HETATM    2  N   UNL     1      41.933 -12.195   4.808  1.00  0.00    -0.239 N 
HETATM    3  C   UNL     1      42.159 -12.220   6.169  1.00  0.00     0.142 A 
HETATM    4  C   UNL     1      41.515 -11.109   6.678  1.00  0.00     0.097 A 
HETATM    5  C   UNL     1      40.923 -10.501   5.542  1.00  0.00     0.160 A 
HETATM    6  N   UNL     1      41.221 -11.121   4.399  1.00  0.00    -0.181 NA
HETATM    7  N   UNL     1      42.873 -13.246   6.701  1.00  0.00    -0.343 N 
HETATM    8  C   UNL     1      43.383 -14.291   5.926  1.00  0.00     0.021 A 
HETATM    9  C   UNL     1      44.153 -15.372   6.638  1.00  0.00     0.069 C 
HETATM   10  C   UNL     1      43.188 -14.303   4.587  1.00  0.00     0.061 A 
HETATM   11  H   UNL     1      42.922 -13.392   7.708  1.00  0.00     0.167 HD
ENDROOT
BRANCH   4  12
HETATM   12  C   UNL     1      41.412 -10.613   8.037  1.00  0.00     0.261 C 
HETATM   13  N   UNL     1      42.234 -11.271   8.934  1.00  0.00    -0.323 N 
HETATM   14  H   UNL     1      42.845 -11.975   8.536  1.00  0.00     0.169 HD
HETATM   15  O   UNL     1      40.699  -9.650   8.286  1.00  0.00    -0.267 OA
BRANCH  13  16
HETATM   16  C   UNL     1      42.451 -10.942  10.289  1.00  0.00     0.035 A 
HETATM   17  C   UNL     1      41.481 -11.075  11.290  1.00  0.00     0.032 A 
HETATM   18  C   UNL     1      41.758 -10.690  12.606  1.00  0.00     0.044 A 
HETATM   19  C   UNL     1      43.008 -10.177  12.922  1.00  0.00     0.116 A 
HETATM   20  F   UNL     1      43.269  -9.801  14.180  1.00  0.00    -0.206 F 
HETATM   21  C   UNL     1      43.988 -10.046  11.949  1.00  0.00     0.044 A 
HETATM   22  C   UNL     1      43.710 -10.430  10.633  1.00  0.00     0.032 A 
ENDBRANCH  13  16
ENDBRANCH   4  12
BRANCH   1  23
HETATM   23  C   UNL     1      41.301 -13.680   2.952  1.00  0.00     0.005 A 
HETATM   24  C   UNL     1      40.174 -14.376   3.423  1.00  0.00     0.077 A 
HETATM   25  C   UNL     1      39.166 -14.783   2.544  1.00  0.00     0.037 A 
HETATM   26  C   UNL     1      39.244 -14.458   1.190  1.00  0.00     0.003 A 
HETATM   27  C   UNL     1      40.336 -13.744   0.710  1.00  0.00     0.001 A 
HETATM   28  C   UNL     1      41.357 -13.361   1.581  1.00  0.00     0.012 A 
BRANCH  24  29
HETATM   29  O   UNL     1      40.152 -14.780   4.735  1.00  0.00    -0.351 OA
BRANCH  29  30
HETATM   30  C   UNL     1      40.298 -16.198   4.878  1.00  0.00     0.171 C 
HETATM   31  C   UNL     1      40.560 -16.487   6.345  1.00  0.00     0.034 C 
ENDBRANCH  29  30
ENDBRANCH  24  29
ENDBRANCH   1  23
BRANCH  10  32
HETATM   32  C   UNL     1      43.739 -15.378   3.728  1.00  0.00     0.256 C 
HETATM   33  N   UNL     1      43.429 -16.627   4.217  1.00  0.00    -0.323 N 
HETATM   34  H   UNL     1      42.868 -16.646   5.066  1.00  0.00     0.169 HD
HETATM   35  O   UNL     1      44.348 -15.084   2.709  1.00  0.00    -0.267 OA
BRANCH  33  36
HETATM   36  C   UNL     1      43.602 -17.868   3.576  1.00  0.00     0.035 A 
HETATM   37  C   UNL     1      43.056 -18.184   2.332  1.00  0.00     0.029 A 
HETATM   38  C   UNL     1      43.242 -19.458   1.785  1.00  0.00     0.002 A 
HETATM   39  C   UNL     1      43.970 -20.424   2.477  1.00  0.00     0.000 A 
HETATM   40  C   UNL     1      44.523 -20.113   3.717  1.00  0.00     0.002 A 
HETATM   41  C   UNL     1      44.343 -18.839   4.260  1.00  0.00     0.029 A 
ENDBRANCH  33  36
ENDBRANCH  10  32
TORSDOF 7
ENDMDL
MODEL 7
REMARK VINA RESULT:      -8.5      5.926     10.339
REMARK  7 active torsions:
REMARK  status: ('A' for Active; 'I' for Inactive)
REMARK    1  A    between atoms: C_2  and  O_3 
REMARK    2  A    between atoms: O_3  and  C_4 
REMARK    3  A    between atoms: C_5  and  C_6 
REMARK    4  A    between atoms: C_9  and  C_10 
REMARK       I    between atoms: C_10  and  N_11 
REMARK    5  A    between atoms: N_11  and  C_12 
REMARK    6  A    between atoms: C_25  and  C_26 
REMARK       I    between atoms: C_26  and  N_27 
REMARK    7  A    between atoms: N_27  and  C_28 
ROOT
HETATM    1  C   UNL     1      40.020 -13.969  -0.137  1.00  0.00     0.188 A 
HETATM    2  N   UNL     1      40.777 -15.153   0.314  1.00  0.00    -0.239 N 
HETATM    3  C   UNL     1      40.942 -15.517   1.634  1.00  0.00     0.142 A 
HETATM    4  C   UNL     1      41.710 -16.665   1.615  1.00  0.00     0.097 A 
HETATM    5  C   UNL     1      41.963 -16.890   0.238  1.00  0.00     0.160 A 
HETATM    6  N   UNL     1      41.352 -16.011  -0.559  1.00  0.00    -0.181 NA
HETATM    7  N   UNL     1      40.400 -14.739   2.606  1.00  0.00    -0.343 N 
HETATM    8  C   UNL     1      39.686 -13.571   2.326  1.00  0.00     0.021 A 
HETATM    9  C   UNL     1      39.140 -12.793   3.495  1.00  0.00     0.069 C 
HETATM   10  C   UNL     1      39.497 -13.179   1.045  1.00  0.00     0.061 A 
HETATM   11  H   UNL     1      40.634 -14.876   3.588  1.00  0.00     0.167 HD
ENDROOT
BRANCH   4  12
HETATM   12  C   UNL     1      42.193 -17.501   2.697  1.00  0.00     0.261 C 
HETATM   13  N   UNL     1      42.922 -18.597   2.272  1.00  0.00    -0.323 N 
HETATM   14  H   UNL     1      43.080 -18.659   1.273  1.00  0.00     0.169 HD
HETATM   15  O   UNL     1      41.999 -17.171   3.860  1.00  0.00    -0.267 OA
BRANCH  13  16
HETATM   16  C   UNL     1      43.621 -19.519   3.081  1.00  0.00     0.035 A 
HETATM   17  C   UNL     1      43.989 -19.271   4.408  1.00  0.00     0.032 A 
HETATM   18  C   UNL     1      44.716 -20.221   5.134  1.00  0.00     0.044 A 
HETATM   19  C   UNL     1      45.069 -21.421   4.533  1.00  0.00     0.116 A 
HETATM   20  F   UNL     1      45.772 -22.326   5.227  1.00  0.00    -0.206 F 
HETATM   21  C   UNL     1      44.704 -21.693   3.223  1.00  0.00     0.044 A 
HETATM   22  C   UNL     1      43.979 -20.743   2.496  1.00  0.00     0.032 A 
ENDBRANCH  13  16
ENDBRANCH   4  12
BRANCH   1  23
HETATM   23  C   UNL     1      40.852 -13.172  -1.142  1.00  0.00     0.005 A 
HETATM   24  C   UNL     1      40.514 -13.049  -2.502  1.00  0.00     0.077 A 
HETATM   25  C   UNL     1      41.316 -12.305  -3.374  1.00  0.00     0.037 A 
HETATM   26  C   UNL     1      42.438 -11.633  -2.892  1.00  0.00     0.003 A 
HETATM   27  C   UNL     1      42.773 -11.719  -1.545  1.00  0.00     0.001 A 
HETATM   28  C   UNL     1      41.990 -12.483  -0.678  1.00  0.00     0.012 A 
BRANCH  24  29
HETATM   29  O   UNL     1      39.468 -13.793  -2.989  1.00  0.00    -0.351 OA
BRANCH  29  30
HETATM   30  C   UNL     1      39.902 -14.883  -3.810  1.00  0.00     0.171 C 
HETATM   31  C   UNL     1      38.762 -15.882  -3.886  1.00  0.00     0.034 C 
ENDBRANCH  29  30
ENDBRANCH  24  29
ENDBRANCH   1  23
BRANCH  10  32
HETATM   32  C   UNL     1      38.720 -11.964   0.707  1.00  0.00     0.256 C 
HETATM   33  N   UNL     1      37.474 -12.279   0.213  1.00  0.00    -0.323 N 
HETATM   34  H   UNL     1      37.253 -13.270   0.162  1.00  0.00     0.169 HD
HETATM   35  O   UNL     1      39.204 -10.861   0.917  1.00  0.00    -0.267 OA
BRANCH  33  36
HETATM   36  C   UNL     1      36.396 -11.404  -0.020  1.00  0.00     0.035 A 
HETATM   37  C   UNL     1      35.595 -10.869   0.988  1.00  0.00     0.029 A 
HETATM   38  C   UNL     1      34.515 -10.039   0.665  1.00  0.00     0.002 A 
HETATM   39  C   UNL     1      34.228  -9.743  -0.666  1.00  0.00     0.000 A 
HETATM   40  C   UNL     1      35.027 -10.269  -1.678  1.00  0.00     0.002 A 
HETATM   41  C   UNL     1      36.109 -11.091  -1.355  1.00  0.00     0.029 A 
ENDBRANCH  33  36
ENDBRANCH  10  32
TORSDOF 7
ENDMDL
MODEL 8
REMARK VINA RESULT:      -8.3      5.754      9.057
REMARK  7 active torsions:
REMARK  status: ('A' for Active; 'I' for Inactive)
REMARK    1  A    between atoms: C_2  and  O_3 
REMARK    2  A    between atoms: O_3  and  C_4 
REMARK    3  A    between atoms: C_5  and  C_6 
REMARK    4  A    between atoms: C_9  and  C_10 
REMARK       I    between atoms: C_10  and  N_11 
REMARK    5  A    between atoms: N_11  and  C_12 
REMARK    6  A    between atoms: C_25  and  C_26 
REMARK       I    between atoms: C_26  and  N_27 
REMARK    7  A    between atoms: N_27  and  C_28 
ROOT
HETATM    1  C   UNL     1      41.043 -14.379   2.568  1.00  0.00     0.188 A 
HETATM    2  N   UNL     1      40.890 -13.023   2.007  1.00  0.00    -0.239 N 
HETATM    3  C   UNL     1      40.934 -12.726   0.660  1.00  0.00     0.142 A 
HETATM    4  C   UNL     1      40.756 -11.359   0.569  1.00  0.00     0.097 A 
HETATM    5  C   UNL     1      40.631 -10.936   1.917  1.00  0.00     0.160 A 
HETATM    6  N   UNL     1      40.653 -11.945   2.789  1.00  0.00    -0.181 NA
HETATM    7  N   UNL     1      41.155 -13.728  -0.230  1.00  0.00    -0.343 N 
HETATM    8  C   UNL     1      41.352 -15.054   0.163  1.00  0.00     0.021 A 
HETATM    9  C   UNL     1      41.593 -16.071  -0.922  1.00  0.00     0.069 C 
HETATM   10  C   UNL     1      41.311 -15.390   1.473  1.00  0.00     0.061 A 
HETATM   11  H   UNL     1      41.359 -13.533  -1.208  1.00  0.00     0.167 HD
ENDROOT
BRANCH   4  12
HETATM   12  C   UNL     1      40.701 -10.485  -0.587  1.00  0.00     0.261 C 
HETATM   13  N   UNL     1      41.880 -10.443  -1.309  1.00  0.00    -0.323 N 
HETATM   14  H   UNL     1      42.616 -11.060  -0.987  1.00  0.00     0.169 HD
HETATM   15  O   UNL     1      39.655  -9.920  -0.880  1.00  0.00    -0.267 OA
BRANCH  13  16
HETATM   16  C   UNL     1      42.100  -9.788  -2.540  1.00  0.00     0.035 A 
HETATM   17  C   UNL     1      42.177  -8.398  -2.683  1.00  0.00     0.032 A 
HETATM   18  C   UNL     1      42.359  -7.821  -3.945  1.00  0.00     0.044 A 
HETATM   19  C   UNL     1      42.468  -8.635  -5.063  1.00  0.00     0.116 A 
HETATM   20  F   UNL     1      42.633  -8.081  -6.270  1.00  0.00    -0.206 F 
HETATM   21  C   UNL     1      42.405 -10.016  -4.943  1.00  0.00     0.044 A 
HETATM   22  C   UNL     1      42.222 -10.593  -3.682  1.00  0.00     0.032 A 
ENDBRANCH  13  16
ENDBRANCH   4  12
BRANCH   1  23
HETATM   23  C   UNL     1      42.064 -14.357   3.706  1.00  0.00     0.005 A 
HETATM   24  C   UNL     1      41.798 -14.854   4.994  1.00  0.00     0.077 A 
HETATM   25  C   UNL     1      42.774 -14.807   5.995  1.00  0.00     0.037 A 
HETATM   26  C   UNL     1      44.045 -14.310   5.711  1.00  0.00     0.003 A 
HETATM   27  C   UNL     1      44.337 -13.840   4.435  1.00  0.00     0.001 A 
HETATM   28  C   UNL     1      43.356 -13.861   3.442  1.00  0.00     0.012 A 
BRANCH  24  29
HETATM   29  O   UNL     1      40.518 -15.249   5.295  1.00  0.00    -0.351 OA
BRANCH  29  30
HETATM   30  C   UNL     1      40.480 -16.315   6.251  1.00  0.00     0.171 C 
HETATM   31  C   UNL     1      40.831 -17.599   5.520  1.00  0.00     0.034 C 
ENDBRANCH  29  30
ENDBRANCH  24  29
ENDBRANCH   1  23
BRANCH  10  32
HETATM   32  C   UNL     1      41.484 -16.790   1.926  1.00  0.00     0.256 C 
HETATM   33  N   UNL     1      42.815 -17.132   2.020  1.00  0.00    -0.323 N 
HETATM   34  H   UNL     1      43.480 -16.398   1.790  1.00  0.00     0.169 HD
HETATM   35  O   UNL     1      40.500 -17.464   2.194  1.00  0.00    -0.267 OA
BRANCH  33  36
HETATM   36  C   UNL     1      43.365 -18.289   2.602  1.00  0.00     0.035 A 
HETATM   37  C   UNL     1      43.909 -18.333   3.885  1.00  0.00     0.029 A 
HETATM   38  C   UNL     1      44.475 -19.517   4.371  1.00  0.00     0.002 A 
HETATM   39  C   UNL     1      44.504 -20.662   3.577  1.00  0.00     0.000 A 
HETATM   40  C   UNL     1      43.959 -20.627   2.296  1.00  0.00     0.002 A 
HETATM   41  C   UNL     1      43.387 -19.447   1.814  1.00  0.00     0.029 A 
ENDBRANCH  33  36
ENDBRANCH  10  32
TORSDOF 7
ENDMDL
MODEL 9
REMARK VINA RESULT:      -8.2      3.647      6.132
REMARK  7 active torsions:
REMARK  status: ('A' for Active; 'I' for Inactive)
REMARK    1  A    between atoms: C_2  and  O_3 
REMARK    2  A    between atoms: O_3  and  C_4 
REMARK    3  A    between atoms: C_5  and  C_6 
REMARK    4  A    between atoms: C_9  and  C_10 
REMARK       I    between atoms: C_10  and  N_11 
REMARK    5  A    between atoms: N_11  and  C_12 
REMARK    6  A    between atoms: C_25  and  C_26 
REMARK       I    between atoms: C_26  and  N_27 
REMARK    7  A    between atoms: N_27  and  C_28 
ROOT
HETATM    1  C   UNL     1      39.884 -13.140   3.027  1.00  0.00     0.188 A 
HETATM    2  N   UNL     1      40.199 -12.798   4.428  1.00  0.00    -0.239 N 
HETATM    3  C   UNL     1      40.710 -11.584   4.839  1.00  0.00     0.142 A 
HETATM    4  C   UNL     1      40.862 -11.683   6.208  1.00  0.00     0.097 A 
HETATM    5  C   UNL     1      40.430 -13.000   6.510  1.00  0.00     0.160 A 
HETATM    6  N   UNL     1      39.973 -13.660   5.445  1.00  0.00    -0.181 NA
HETATM    7  N   UNL     1      40.969 -10.628   3.909  1.00  0.00    -0.343 N 
HETATM    8  C   UNL     1      40.751 -10.827   2.543  1.00  0.00     0.021 A 
HETATM    9  C   UNL     1      41.086  -9.689   1.614  1.00  0.00     0.069 C 
HETATM   10  C   UNL     1      40.248 -12.001   2.098  1.00  0.00     0.061 A 
HETATM   11  H   UNL     1      41.495  -9.788   4.145  1.00  0.00     0.167 HD
ENDROOT
BRANCH   4  12
HETATM   12  C   UNL     1      41.345 -10.722   7.181  1.00  0.00     0.261 C 
HETATM   13  N   UNL     1      41.221 -11.146   8.492  1.00  0.00    -0.323 N 
HETATM   14  H   UNL     1      40.865 -12.086   8.618  1.00  0.00     0.169 HD
HETATM   15  O   UNL     1      41.868  -9.681   6.806  1.00  0.00    -0.267 OA
BRANCH  13  16
HETATM   16  C   UNL     1      41.708 -10.495   9.645  1.00  0.00     0.035 A 
HETATM   17  C   UNL     1      40.985  -9.538  10.367  1.00  0.00     0.032 A 
HETATM   18  C   UNL     1      41.552  -8.907  11.480  1.00  0.00     0.044 A 
HETATM   19  C   UNL     1      42.841  -9.238  11.874  1.00  0.00     0.116 A 
HETATM   20  F   UNL     1      43.384  -8.627  12.934  1.00  0.00    -0.206 F 
HETATM   21  C   UNL     1      43.572 -10.191  11.180  1.00  0.00     0.044 A 
HETATM   22  C   UNL     1      43.006 -10.821  10.067  1.00  0.00     0.032 A 
ENDBRANCH  13  16
ENDBRANCH   4  12
BRANCH   1  23
HETATM   23  C   UNL     1      40.496 -14.496   2.674  1.00  0.00     0.005 A 
HETATM   24  C   UNL     1      41.880 -14.744   2.672  1.00  0.00     0.077 A 
HETATM   25  C   UNL     1      42.380 -16.007   2.340  1.00  0.00     0.037 A 
HETATM   26  C   UNL     1      41.505 -17.054   2.054  1.00  0.00     0.003 A 
HETATM   27  C   UNL     1      40.132 -16.837   2.079  1.00  0.00     0.001 A 
HETATM   28  C   UNL     1      39.631 -15.570   2.383  1.00  0.00     0.012 A 
BRANCH  24  29
HETATM   29  O   UNL     1      42.737 -13.687   2.856  1.00  0.00    -0.351 OA
BRANCH  29  30
HETATM   30  C   UNL     1      43.926 -14.058   3.563  1.00  0.00     0.171 C 
HETATM   31  C   UNL     1      43.642 -13.911   5.047  1.00  0.00     0.034 C 
ENDBRANCH  29  30
ENDBRANCH  24  29
ENDBRANCH   1  23
BRANCH  10  32
HETATM   32  C   UNL     1      39.975 -12.237   0.661  1.00  0.00     0.256 C 
HETATM   33  N   UNL     1      41.018 -12.893   0.047  1.00  0.00    -0.323 N 
HETATM   34  H   UNL     1      41.805 -13.135   0.645  1.00  0.00     0.169 HD
HETATM   35  O   UNL     1      38.904 -11.887   0.184  1.00  0.00    -0.267 OA
BRANCH  33  36
HETATM   36  C   UNL     1      41.037 -13.462  -1.240  1.00  0.00     0.035 A 
HETATM   37  C   UNL     1      41.113 -12.720  -2.418  1.00  0.00     0.029 A 
HETATM   38  C   UNL     1      41.084 -13.364  -3.660  1.00  0.00     0.002 A 
HETATM   39  C   UNL     1      40.976 -14.751  -3.732  1.00  0.00     0.000 A 
HETATM   40  C   UNL     1      40.906 -15.500  -2.560  1.00  0.00     0.002 A 
HETATM   41  C   UNL     1      40.942 -14.857  -1.320  1.00  0.00     0.029 A 
ENDBRANCH  33  36
ENDBRANCH  10  32
TORSDOF 7
ENDMDL
MODEL 10
REMARK VINA RESULT:      -8.2      6.234     10.591
REMARK  7 active torsions:
REMARK  status: ('A' for Active; 'I' for Inactive)
REMARK    1  A    between atoms: C_2  and  O_3 
REMARK    2  A    between atoms: O_3  and  C_4 
REMARK    3  A    between atoms: C_5  and  C_6 
REMARK    4  A    between atoms: C_9  and  C_10 
REMARK       I    between atoms: C_10  and  N_11 
REMARK    5  A    between atoms: N_11  and  C_12 
REMARK    6  A    between atoms: C_25  and  C_26 
REMARK       I    between atoms: C_26  and  N_27 
REMARK    7  A    between atoms: N_27  and  C_28 
ROOT
HETATM    1  C   UNL     1      40.725 -13.217  -0.769  1.00  0.00     0.188 A 
HETATM    2  N   UNL     1      41.280 -14.137   0.243  1.00  0.00    -0.239 N 
HETATM    3  C   UNL     1      41.408 -15.501   0.072  1.00  0.00     0.142 A 
HETATM    4  C   UNL     1      41.959 -15.978   1.245  1.00  0.00     0.097 A 
HETATM    5  C   UNL     1      42.104 -14.823   2.054  1.00  0.00     0.160 A 
HETATM    6  N   UNL     1      41.749 -13.697   1.432  1.00  0.00    -0.181 NA
HETATM    7  N   UNL     1      40.982 -16.062  -1.089  1.00  0.00    -0.343 N 
HETATM    8  C   UNL     1      40.405 -15.316  -2.120  1.00  0.00     0.021 A 
HETATM    9  C   UNL     1      39.968 -16.061  -3.355  1.00  0.00     0.069 C 
HETATM   10  C   UNL     1      40.265 -13.977  -1.995  1.00  0.00     0.061 A 
HETATM   11  H   UNL     1      40.905 -17.073  -1.192  1.00  0.00     0.167 HD
ENDROOT
BRANCH   4  12
HETATM   12  C   UNL     1      42.327 -17.323   1.641  1.00  0.00     0.261 C 
HETATM   13  N   UNL     1      43.402 -17.374   2.511  1.00  0.00    -0.323 N 
HETATM   14  H   UNL     1      43.766 -16.477   2.811  1.00  0.00     0.169 HD
HETATM   15  O   UNL     1      41.663 -18.278   1.260  1.00  0.00    -0.267 OA
BRANCH  13  16
HETATM   16  C   UNL     1      43.913 -18.515   3.165  1.00  0.00     0.035 A 
HETATM   17  C   UNL     1      44.307 -19.684   2.503  1.00  0.00     0.032 A 
HETATM   18  C   UNL     1      44.769 -20.790   3.226  1.00  0.00     0.044 A 
HETATM   19  C   UNL     1      44.842 -20.724   4.610  1.00  0.00     0.116 A 
HETATM   20  F   UNL     1      45.276 -21.785   5.300  1.00  0.00    -0.206 F 
HETATM   21  C   UNL     1      44.468 -19.571   5.286  1.00  0.00     0.044 A 
HETATM   22  C   UNL     1      44.004 -18.466   4.564  1.00  0.00     0.032 A 
ENDBRANCH  13  16
ENDBRANCH   4  12
BRANCH   1  23
HETATM   23  C   UNL     1      39.675 -12.311  -0.125  1.00  0.00     0.005 A 
HETATM   24  C   UNL     1      39.780 -10.909  -0.090  1.00  0.00     0.077 A 
HETATM   25  C   UNL     1      38.786 -10.132   0.513  1.00  0.00     0.037 A 
HETATM   26  C   UNL     1      37.649 -10.739   1.045  1.00  0.00     0.003 A 
HETATM   27  C   UNL     1      37.512 -12.122   0.993  1.00  0.00     0.001 A 
HETATM   28  C   UNL     1      38.516 -12.902   0.417  1.00  0.00     0.012 A 
BRANCH  24  29
HETATM   29  O   UNL     1      40.945 -10.326  -0.523  1.00  0.00    -0.351 OA
BRANCH  29  30
HETATM   30  C   UNL     1      40.815  -9.732  -1.820  1.00  0.00     0.171 C 
HETATM   31  C   UNL     1      42.140  -9.907  -2.540  1.00  0.00     0.034 C 
ENDBRANCH  29  30
ENDBRANCH  24  29
ENDBRANCH   1  23
BRANCH  10  32
HETATM   32  C   UNL     1      39.686 -13.149  -3.079  1.00  0.00     0.256 C 
HETATM   33  N   UNL     1      38.316 -13.057  -2.971  1.00  0.00    -0.323 N 
HETATM   34  H   UNL     1      37.899 -13.539  -2.179  1.00  0.00     0.169 HD
HETATM   35  O   UNL     1      40.426 -12.623  -3.898  1.00  0.00    -0.267 OA
BRANCH  33  36
HETATM   36  C   UNL     1      37.454 -12.204  -3.685  1.00  0.00     0.035 A 
HETATM   37  C   UNL     1      36.531 -12.645  -4.633  1.00  0.00     0.029 A 
HETATM   38  C   UNL     1      35.740 -11.724  -5.328  1.00  0.00     0.002 A 
HETATM   39  C   UNL     1      35.868 -10.358  -5.083  1.00  0.00     0.000 A 
HETATM   40  C   UNL     1      36.783  -9.910  -4.134  1.00  0.00     0.002 A 
HETATM   41  C   UNL     1      37.568 -10.830  -3.435  1.00  0.00     0.029 A 
ENDBRANCH  33  36
ENDBRANCH  10  32
TORSDOF 7
ENDMDL
