MODEL 1
REMARK VINA RESULT:      -8.8      0.000      0.000
REMARK  6 active torsions:
REMARK  status: ('A' for Active; 'I' for Inactive)
REMARK    1  A    between atoms: C_2  and  C_3 
REMARK    2  A    between atoms: C_7  and  C_8 
REMARK       I    between atoms: C_8  and  N_9 
REMARK    3  A    between atoms: N_9  and  C_10 
REMARK    4  A    between atoms: C_10  and  C_11 
REMARK    5  A    between atoms: C_11  and  N_12 
REMARK    6  A    between atoms: C_15  and  C_16 
ROOT
HETATM    1  C   UNL     1      44.864 -13.927   6.817  1.00  0.00     0.150 C 
ENDROOT
BRANCH   1   2
HETATM    2  N   UNL     1      44.377 -13.544   8.121  1.00  0.00    -0.354 N 
HETATM    3  C   UNL     1      44.957 -12.542   8.874  1.00  0.00     0.272 C 
HETATM    4  O   UNL     1      45.893 -11.869   8.450  1.00  0.00    -0.266 OA
HETATM    5  H   UNL     1      43.672 -14.087   8.624  1.00  0.00     0.162 HD
BRANCH   3   6
HETATM    6  C   UNL     1      44.316 -12.349  10.184  1.00  0.00     0.152 A 
HETATM    7  N   UNL     1      44.565 -13.201  11.200  1.00  0.00    -0.169 NA
HETATM    8  N   UNL     1      43.819 -12.726  12.212  1.00  0.00    -0.281 N 
HETATM    9  C   UNL     1      43.081 -11.625  11.885  1.00  0.00     0.036 A 
HETATM   10  H   UNL     1      43.853 -13.209  13.105  1.00  0.00     0.189 HD
HETATM   11  C   UNL     1      43.380 -11.341  10.565  1.00  0.00    -0.002 A 
HETATM   12  C   UNL     1      42.845 -10.243   9.721  1.00  0.00     0.053 C 
BRANCH   9  13
HETATM   13  C   UNL     1      42.170 -10.969  12.866  1.00  0.00     0.055 C 
HETATM   14  C   UNL     1      42.892  -9.899  13.669  1.00  0.00     0.011 C 
ENDBRANCH   9  13
ENDBRANCH   3   6
ENDBRANCH   1   2
BRANCH   1  15
HETATM   15  C   UNL     1      44.196 -15.208   6.282  1.00  0.00     0.254 C 
BRANCH  15  16
HETATM   16  N   UNL     1      42.862 -15.482   6.954  1.00  0.00    -0.069 N 
HETATM   17  H   UNL     1      42.808 -14.884   7.790  1.00  0.00     0.280 HD
HETATM   18  C   UNL     1      42.758 -16.929   7.428  1.00  0.00     0.244 C 
HETATM   19  C   UNL     1      41.862 -17.631   6.398  1.00  0.00     0.046 C 
HETATM   20  C   UNL     1      40.837 -16.518   6.150  1.00  0.00     0.039 C 
HETATM   21  C   UNL     1      41.656 -15.237   6.072  1.00  0.00     0.235 C 
BRANCH  19  22
HETATM   22  C   UNL     1      42.647 -18.165   5.201  1.00  0.00    -0.046 A 
HETATM   23  C   UNL     1      43.574 -19.228   5.348  1.00  0.00    -0.055 A 
HETATM   24  C   UNL     1      43.820 -19.960   6.644  1.00  0.00     0.049 C 
HETATM   25  C   UNL     1      44.346 -19.640   4.244  1.00  0.00     0.007 A 
HETATM   26  C   UNL     1      44.175 -19.064   2.990  1.00  0.00     0.001 A 
HETATM   27  C   UNL     1      43.221 -18.073   2.818  1.00  0.00     0.001 A 
HETATM   28  C   UNL     1      42.462 -17.635   3.907  1.00  0.00     0.008 A 
ENDBRANCH  19  22
ENDBRANCH  15  16
ENDBRANCH   1  15
TORSDOF 6
ENDMDL
MODEL 2
REMARK VINA RESULT:      -8.5      0.751      1.616
REMARK  6 active torsions:
REMARK  status: ('A' for Active; 'I' for Inactive)
REMARK    1  A    between atoms: C_2  and  C_3 
REMARK    2  A    between atoms: C_7  and  C_8 
REMARK       I    between atoms: C_8  and  N_9 
REMARK    3  A    between atoms: N_9  and  C_10 
REMARK    4  A    between atoms: C_10  and  C_11 
REMARK    5  A    between atoms: C_11  and  N_12 
REMARK    6  A    between atoms: C_15  and  C_16 
ROOT
HETATM    1  C   UNL     1      44.655 -14.158   6.894  1.00  0.00     0.150 C 
ENDROOT
BRANCH   1   2
HETATM    2  N   UNL     1      44.230 -13.690   8.191  1.00  0.00    -0.354 N 
HETATM    3  C   UNL     1      44.870 -12.670   8.868  1.00  0.00     0.272 C 
HETATM    4  O   UNL     1      45.812 -12.054   8.375  1.00  0.00    -0.266 OA
HETATM    5  H   UNL     1      43.526 -14.180   8.747  1.00  0.00     0.162 HD
BRANCH   3   6
HETATM    6  C   UNL     1      44.284 -12.385  10.186  1.00  0.00     0.152 A 
HETATM    7  N   UNL     1      44.529 -13.198  11.234  1.00  0.00    -0.169 NA
HETATM    8  N   UNL     1      43.841 -12.641  12.246  1.00  0.00    -0.281 N 
HETATM    9  C   UNL     1      43.143 -11.523  11.889  1.00  0.00     0.036 A 
HETATM   10  H   UNL     1      43.884 -13.082  13.160  1.00  0.00     0.189 HD
HETATM   11  C   UNL     1      43.409 -11.317  10.548  1.00  0.00    -0.002 A 
HETATM   12  C   UNL     1      42.895 -10.236   9.668  1.00  0.00     0.053 C 
BRANCH   9  13
HETATM   13  C   UNL     1      42.297 -10.779  12.865  1.00  0.00     0.055 C 
HETATM   14  C   UNL     1      43.093  -9.702  13.586  1.00  0.00     0.011 C 
ENDBRANCH   9  13
ENDBRANCH   3   6
ENDBRANCH   1   2
BRANCH   1  15
HETATM   15  C   UNL     1      43.950 -15.460   6.468  1.00  0.00     0.254 C 
BRANCH  15  16
HETATM   16  N   UNL     1      42.439 -15.313   6.446  1.00  0.00    -0.069 N 
HETATM   17  H   UNL     1      42.177 -14.700   7.231  1.00  0.00     0.280 HD
HETATM   18  C   UNL     1      41.741 -16.652   6.669  1.00  0.00     0.244 C 
HETATM   19  C   UNL     1      41.257 -17.093   5.280  1.00  0.00     0.046 C 
HETATM   20  C   UNL     1      40.804 -15.739   4.725  1.00  0.00     0.039 C 
HETATM   21  C   UNL     1      41.883 -14.754   5.154  1.00  0.00     0.235 C 
BRANCH  19  22
HETATM   22  C   UNL     1      42.320 -17.869   4.504  1.00  0.00    -0.046 A 
HETATM   23  C   UNL     1      42.302 -17.921   3.087  1.00  0.00    -0.055 A 
HETATM   24  C   UNL     1      41.304 -17.183   2.228  1.00  0.00     0.049 C 
HETATM   25  C   UNL     1      43.243 -18.715   2.404  1.00  0.00     0.007 A 
HETATM   26  C   UNL     1      44.235 -19.407   3.090  1.00  0.00     0.001 A 
HETATM   27  C   UNL     1      44.307 -19.307   4.471  1.00  0.00     0.001 A 
HETATM   28  C   UNL     1      43.367 -18.542   5.167  1.00  0.00     0.008 A 
ENDBRANCH  19  22
ENDBRANCH  15  16
ENDBRANCH   1  15
TORSDOF 6
ENDMDL
MODEL 3
REMARK VINA RESULT:      -7.8      5.310      8.173
REMARK  6 active torsions:
REMARK  status: ('A' for Active; 'I' for Inactive)
REMARK    1  A    between atoms: C_2  and  C_3 
REMARK    2  A    between atoms: C_7  and  C_8 
REMARK       I    between atoms: C_8  and  N_9 
REMARK    3  A    between atoms: N_9  and  C_10 
REMARK    4  A    between atoms: C_10  and  C_11 
REMARK    5  A    between atoms: C_11  and  N_12 
REMARK    6  A    between atoms: C_15  and  C_16 
ROOT
HETATM    1  C   UNL     1      41.663 -16.006   4.724  1.00  0.00     0.150 C 
ENDROOT
BRANCH   1   2
HETATM    2  N   UNL     1      41.374 -15.937   3.311  1.00  0.00    -0.354 N 
HETATM    3  C   UNL     1      42.306 -15.538   2.372  1.00  0.00     0.272 C 
HETATM    4  O   UNL     1      43.465 -15.273   2.679  1.00  0.00    -0.266 OA
HETATM    5  H   UNL     1      40.427 -16.037   2.940  1.00  0.00     0.162 HD
BRANCH   3   6
HETATM    6  C   UNL     1      41.778 -15.512   1.000  1.00  0.00     0.152 A 
HETATM    7  N   UNL     1      41.436 -16.658   0.376  1.00  0.00    -0.169 NA
HETATM    8  N   UNL     1      41.010 -16.255  -0.833  1.00  0.00    -0.281 N 
HETATM    9  C   UNL     1      41.089 -14.905  -1.025  1.00  0.00     0.036 A 
HETATM   10  H   UNL     1      40.684 -16.958  -1.490  1.00  0.00     0.189 HD
HETATM   11  C   UNL     1      41.583 -14.379   0.153  1.00  0.00    -0.002 A 
HETATM   12  C   UNL     1      41.863 -12.956   0.475  1.00  0.00     0.053 C 
BRANCH   9  13
HETATM   13  C   UNL     1      40.688 -14.269  -2.313  1.00  0.00     0.055 C 
HETATM   14  C   UNL     1      40.256 -15.307  -3.337  1.00  0.00     0.011 C 
ENDBRANCH   9  13
ENDBRANCH   3   6
ENDBRANCH   1   2
BRANCH   1  15
HETATM   15  C   UNL     1      41.824 -17.452   5.231  1.00  0.00     0.254 C 
BRANCH  15  16
HETATM   16  N   UNL     1      42.950 -17.583   6.241  1.00  0.00    -0.069 N 
HETATM   17  H   UNL     1      42.848 -16.816   6.919  1.00  0.00     0.280 HD
HETATM   18  C   UNL     1      44.318 -17.422   5.581  1.00  0.00     0.244 C 
HETATM   19  C   UNL     1      44.880 -18.846   5.459  1.00  0.00     0.046 C 
HETATM   20  C   UNL     1      44.407 -19.423   6.797  1.00  0.00     0.039 C 
HETATM   21  C   UNL     1      42.985 -18.909   6.970  1.00  0.00     0.235 C 
BRANCH  19  22
HETATM   22  C   UNL     1      44.435 -19.546   4.176  1.00  0.00    -0.046 A 
HETATM   23  C   UNL     1      44.574 -20.949   4.022  1.00  0.00    -0.055 A 
HETATM   24  C   UNL     1      45.094 -21.870   5.098  1.00  0.00     0.049 C 
HETATM   25  C   UNL     1      44.236 -21.554   2.795  1.00  0.00     0.007 A 
HETATM   26  C   UNL     1      43.708 -20.810   1.745  1.00  0.00     0.001 A 
HETATM   27  C   UNL     1      43.501 -19.449   1.910  1.00  0.00     0.001 A 
HETATM   28  C   UNL     1      43.852 -18.828   3.111  1.00  0.00     0.008 A 
ENDBRANCH  19  22
ENDBRANCH  15  16
ENDBRANCH   1  15
TORSDOF 6
ENDMDL
MODEL 4
REMARK VINA RESULT:      -7.8      4.490      7.799
REMARK  6 active torsions:
REMARK  status: ('A' for Active; 'I' for Inactive)
REMARK    1  A    between atoms: C_2  and  C_3 
REMARK    2  A    between atoms: C_7  and  C_8 
REMARK       I    between atoms: C_8  and  N_9 
REMARK    3  A    between atoms: N_9  and  C_10 
REMARK    4  A    between atoms: C_10  and  C_11 
REMARK    5  A    between atoms: C_11  and  N_12 
REMARK    6  A    between atoms: C_15  and  C_16 
ROOT
HETATM    1  C   UNL     1      42.702 -13.116   4.643  1.00  0.00     0.150 C 
ENDROOT
BRANCH   1   2
HETATM    2  N   UNL     1      42.730 -12.900   3.216  1.00  0.00    -0.354 N 
HETATM    3  C   UNL     1      41.657 -13.185   2.393  1.00  0.00     0.272 C 
HETATM    4  O   UNL     1      40.585 -13.587   2.839  1.00  0.00    -0.266 OA
HETATM    5  H   UNL     1      43.588 -12.665   2.713  1.00  0.00     0.162 HD
BRANCH   3   6
HETATM    6  C   UNL     1      41.923 -12.919   0.972  1.00  0.00     0.152 A 
HETATM    7  N   UNL     1      42.420 -11.727   0.580  1.00  0.00    -0.169 NA
HETATM    8  N   UNL     1      42.527 -11.842  -0.754  1.00  0.00    -0.281 N 
HETATM    9  C   UNL     1      42.095 -13.042  -1.241  1.00  0.00     0.036 A 
HETATM   10  H   UNL     1      42.897 -11.055  -1.279  1.00  0.00     0.189 HD
HETATM   11  C   UNL     1      41.695 -13.780  -0.143  1.00  0.00    -0.002 A 
HETATM   12  C   UNL     1      41.140 -15.157  -0.118  1.00  0.00     0.053 C 
BRANCH   9  13
HETATM   13  C   UNL     1      42.108 -13.349  -2.701  1.00  0.00     0.055 C 
HETATM   14  C   UNL     1      42.382 -12.105  -3.530  1.00  0.00     0.011 C 
ENDBRANCH   9  13
ENDBRANCH   3   6
ENDBRANCH   1   2
BRANCH   1  15
HETATM   15  C   UNL     1      43.194 -14.519   5.045  1.00  0.00     0.254 C 
BRANCH  15  16
HETATM   16  N   UNL     1      42.386 -15.102   6.191  1.00  0.00    -0.069 N 
HETATM   17  H   UNL     1      42.445 -14.442   6.978  1.00  0.00     0.280 HD
HETATM   18  C   UNL     1      42.971 -16.429   6.673  1.00  0.00     0.244 C 
HETATM   19  C   UNL     1      42.057 -17.513   6.084  1.00  0.00     0.046 C 
HETATM   20  C   UNL     1      40.699 -16.825   6.259  1.00  0.00     0.039 C 
HETATM   21  C   UNL     1      40.935 -15.375   5.859  1.00  0.00     0.235 C 
BRANCH  19  22
HETATM   22  C   UNL     1      42.473 -17.934   4.676  1.00  0.00    -0.046 A 
HETATM   23  C   UNL     1      43.606 -18.760   4.463  1.00  0.00    -0.055 A 
HETATM   24  C   UNL     1      44.445 -19.344   5.574  1.00  0.00     0.049 C 
HETATM   25  C   UNL     1      44.016 -19.060   3.150  1.00  0.00     0.007 A 
HETATM   26  C   UNL     1      43.295 -18.609   2.049  1.00  0.00     0.001 A 
HETATM   27  C   UNL     1      42.146 -17.861   2.247  1.00  0.00     0.001 A 
HETATM   28  C   UNL     1      41.736 -17.534   3.542  1.00  0.00     0.008 A 
ENDBRANCH  19  22
ENDBRANCH  15  16
ENDBRANCH   1  15
TORSDOF 6
ENDMDL
MODEL 5
REMARK VINA RESULT:      -7.6      4.567      7.622
REMARK  6 active torsions:
REMARK  status: ('A' for Active; 'I' for Inactive)
REMARK    1  A    between atoms: C_2  and  C_3 
REMARK    2  A    between atoms: C_7  and  C_8 
REMARK       I    between atoms: C_8  and  N_9 
REMARK    3  A    between atoms: N_9  and  C_10 
REMARK    4  A    between atoms: C_10  and  C_11 
REMARK    5  A    between atoms: C_11  and  N_12 
REMARK    6  A    between atoms: C_15  and  C_16 
ROOT
HETATM    1  C   UNL     1      40.315 -15.263   5.762  1.00  0.00     0.150 C 
ENDROOT
BRANCH   1   2
HETATM    2  N   UNL     1      40.131 -15.178   4.333  1.00  0.00    -0.354 N 
HETATM    3  C   UNL     1      39.821 -13.997   3.685  1.00  0.00     0.272 C 
HETATM    4  O   UNL     1      39.742 -12.928   4.285  1.00  0.00    -0.266 OA
HETATM    5  H   UNL     1      40.074 -16.006   3.737  1.00  0.00     0.162 HD
BRANCH   3   6
HETATM    6  C   UNL     1      39.647 -14.156   2.233  1.00  0.00     0.152 A 
HETATM    7  N   UNL     1      38.441 -14.473   1.719  1.00  0.00    -0.169 NA
HETATM    8  N   UNL     1      38.658 -14.537   0.395  1.00  0.00    -0.281 N 
HETATM    9  C   UNL     1      39.956 -14.303   0.037  1.00  0.00     0.036 A 
HETATM   10  H   UNL     1      37.875 -14.755  -0.214  1.00  0.00     0.189 HD
HETATM   11  C   UNL     1      40.637 -14.044   1.211  1.00  0.00    -0.002 A 
HETATM   12  C   UNL     1      42.078 -13.731   1.384  1.00  0.00     0.053 C 
BRANCH   9  13
HETATM   13  C   UNL     1      40.401 -14.357  -1.386  1.00  0.00     0.055 C 
HETATM   14  C   UNL     1      41.084 -15.677  -1.707  1.00  0.00     0.011 C 
ENDBRANCH   9  13
ENDBRANCH   3   6
ENDBRANCH   1   2
BRANCH   1  15
HETATM   15  C   UNL     1      40.913 -16.610   6.208  1.00  0.00     0.254 C 
BRANCH  15  16
HETATM   16  N   UNL     1      42.226 -16.436   6.951  1.00  0.00    -0.069 N 
HETATM   17  H   UNL     1      42.051 -15.805   7.745  1.00  0.00     0.280 HD
HETATM   18  C   UNL     1      43.285 -15.772   6.073  1.00  0.00     0.244 C 
HETATM   19  C   UNL     1      44.216 -16.909   5.630  1.00  0.00     0.046 C 
HETATM   20  C   UNL     1      44.270 -17.717   6.931  1.00  0.00     0.039 C 
HETATM   21  C   UNL     1      42.839 -17.727   7.451  1.00  0.00     0.235 C 
BRANCH  19  22
HETATM   22  C   UNL     1      43.727 -17.613   4.366  1.00  0.00    -0.046 A 
HETATM   23  C   UNL     1      44.084 -18.958   4.091  1.00  0.00    -0.055 A 
HETATM   24  C   UNL     1      44.899 -19.822   5.022  1.00  0.00     0.049 C 
HETATM   25  C   UNL     1      43.690 -19.551   2.876  1.00  0.00     0.007 A 
HETATM   26  C   UNL     1      42.902 -18.863   1.960  1.00  0.00     0.001 A 
HETATM   27  C   UNL     1      42.488 -17.573   2.250  1.00  0.00     0.001 A 
HETATM   28  C   UNL     1      42.888 -16.959   3.440  1.00  0.00     0.008 A 
ENDBRANCH  19  22
ENDBRANCH  15  16
ENDBRANCH   1  15
TORSDOF 6
ENDMDL
MODEL 6
REMARK VINA RESULT:      -7.5      5.787      7.699
REMARK  6 active torsions:
REMARK  status: ('A' for Active; 'I' for Inactive)
REMARK    1  A    between atoms: C_2  and  C_3 
REMARK    2  A    between atoms: C_7  and  C_8 
REMARK       I    between atoms: C_8  and  N_9 
REMARK    3  A    between atoms: N_9  and  C_10 
REMARK    4  A    between atoms: C_10  and  C_11 
REMARK    5  A    between atoms: C_11  and  N_12 
REMARK    6  A    between atoms: C_15  and  C_16 
ROOT
HETATM    1  C   UNL     1      40.978 -16.482   4.879  1.00  0.00     0.150 C 
ENDROOT
BRANCH   1   2
HETATM    2  N   UNL     1      40.400 -15.578   3.912  1.00  0.00    -0.354 N 
HETATM    3  C   UNL     1      40.797 -14.261   3.785  1.00  0.00     0.272 C 
HETATM    4  O   UNL     1      41.716 -13.792   4.453  1.00  0.00    -0.266 OA
HETATM    5  H   UNL     1      39.568 -15.816   3.369  1.00  0.00     0.162 HD
BRANCH   3   6
HETATM    6  C   UNL     1      40.047 -13.521   2.759  1.00  0.00     0.152 A 
HETATM    7  N   UNL     1      39.080 -12.650   3.113  1.00  0.00    -0.169 NA
HETATM    8  N   UNL     1      38.622 -12.178   1.942  1.00  0.00    -0.281 N 
HETATM    9  C   UNL     1      39.232 -12.727   0.850  1.00  0.00     0.036 A 
HETATM   10  H   UNL     1      37.880 -11.485   1.956  1.00  0.00     0.189 HD
HETATM   11  C   UNL     1      40.176 -13.609   1.341  1.00  0.00    -0.002 A 
HETATM   12  C   UNL     1      41.113 -14.468   0.573  1.00  0.00     0.053 C 
BRANCH   9  13
HETATM   13  C   UNL     1      38.843 -12.351  -0.540  1.00  0.00     0.055 C 
HETATM   14  C   UNL     1      38.005 -13.437  -1.197  1.00  0.00     0.011 C 
ENDBRANCH   9  13
ENDBRANCH   3   6
ENDBRANCH   1   2
BRANCH   1  15
HETATM   15  C   UNL     1      41.795 -17.613   4.226  1.00  0.00     0.254 C 
BRANCH  15  16
HETATM   16  N   UNL     1      42.196 -17.280   2.800  1.00  0.00    -0.069 N 
HETATM   17  H   UNL     1      41.501 -16.616   2.430  1.00  0.00     0.280 HD
HETATM   18  C   UNL     1      42.159 -18.515   1.903  1.00  0.00     0.244 C 
HETATM   19  C   UNL     1      43.626 -18.934   1.729  1.00  0.00     0.046 C 
HETATM   20  C   UNL     1      44.274 -17.551   1.606  1.00  0.00     0.039 C 
HETATM   21  C   UNL     1      43.585 -16.695   2.660  1.00  0.00     0.235 C 
BRANCH  19  22
HETATM   22  C   UNL     1      44.111 -19.859   2.845  1.00  0.00    -0.046 A 
HETATM   23  C   UNL     1      44.235 -21.256   2.636  1.00  0.00    -0.055 A 
HETATM   24  C   UNL     1      43.977 -21.938   1.315  1.00  0.00     0.049 C 
HETATM   25  C   UNL     1      44.601 -22.093   3.708  1.00  0.00     0.007 A 
HETATM   26  C   UNL     1      44.902 -21.570   4.961  1.00  0.00     0.001 A 
HETATM   27  C   UNL     1      44.852 -20.199   5.157  1.00  0.00     0.001 A 
HETATM   28  C   UNL     1      44.470 -19.355   4.112  1.00  0.00     0.008 A 
ENDBRANCH  19  22
ENDBRANCH  15  16
ENDBRANCH   1  15
TORSDOF 6
ENDMDL
MODEL 7
REMARK VINA RESULT:      -7.4      4.330      8.121
REMARK  6 active torsions:
REMARK  status: ('A' for Active; 'I' for Inactive)
REMARK    1  A    between atoms: C_2  and  C_3 
REMARK    2  A    between atoms: C_7  and  C_8 
REMARK       I    between atoms: C_8  and  N_9 
REMARK    3  A    between atoms: N_9  and  C_10 
REMARK    4  A    between atoms: C_10  and  C_11 
REMARK    5  A    between atoms: C_11  and  N_12 
REMARK    6  A    between atoms: C_15  and  C_16 
ROOT
HETATM    1  C   UNL     1      42.575 -16.677   6.609  1.00  0.00     0.150 C 
ENDROOT
BRANCH   1   2
HETATM    2  N   UNL     1      42.952 -17.882   5.909  1.00  0.00    -0.354 N 
HETATM    3  C   UNL     1      44.250 -18.353   5.872  1.00  0.00     0.272 C 
HETATM    4  O   UNL     1      45.160 -17.801   6.486  1.00  0.00    -0.266 OA
HETATM    5  H   UNL     1      42.313 -18.375   5.283  1.00  0.00     0.162 HD
BRANCH   3   6
HETATM    6  C   UNL     1      44.405 -19.577   5.072  1.00  0.00     0.152 A 
HETATM    7  N   UNL     1      44.626 -20.764   5.673  1.00  0.00    -0.169 NA
HETATM    8  N   UNL     1      44.717 -21.634   4.654  1.00  0.00    -0.281 N 
HETATM    9  C   UNL     1      44.593 -21.056   3.422  1.00  0.00     0.036 A 
HETATM   10  H   UNL     1      44.876 -22.615   4.866  1.00  0.00     0.189 HD
HETATM   11  C   UNL     1      44.382 -19.709   3.651  1.00  0.00    -0.002 A 
HETATM   12  C   UNL     1      44.186 -18.630   2.649  1.00  0.00     0.053 C 
BRANCH   9  13
HETATM   13  C   UNL     1      44.693 -21.852   2.166  1.00  0.00     0.055 C 
HETATM   14  C   UNL     1      43.354 -21.935   1.450  1.00  0.00     0.011 C 
ENDBRANCH   9  13
ENDBRANCH   3   6
ENDBRANCH   1   2
BRANCH   1  15
HETATM   15  C   UNL     1      42.765 -15.407   5.758  1.00  0.00     0.254 C 
BRANCH  15  16
HETATM   16  N   UNL     1      41.720 -14.349   6.065  1.00  0.00    -0.069 N 
HETATM   17  H   UNL     1      41.752 -14.169   7.077  1.00  0.00     0.280 HD
HETATM   18  C   UNL     1      40.312 -14.839   5.738  1.00  0.00     0.244 C 
HETATM   19  C   UNL     1      39.943 -14.161   4.411  1.00  0.00     0.046 C 
HETATM   20  C   UNL     1      40.557 -12.778   4.652  1.00  0.00     0.039 C 
HETATM   21  C   UNL     1      41.904 -13.051   5.309  1.00  0.00     0.235 C 
BRANCH  19  22
HETATM   22  C   UNL     1      40.414 -14.954   3.193  1.00  0.00    -0.046 A 
HETATM   23  C   UNL     1      40.594 -14.325   1.934  1.00  0.00    -0.055 A 
HETATM   24  C   UNL     1      40.412 -12.846   1.695  1.00  0.00     0.049 C 
HETATM   25  C   UNL     1      40.944 -15.098   0.810  1.00  0.00     0.007 A 
HETATM   26  C   UNL     1      41.177 -16.465   0.920  1.00  0.00     0.001 A 
HETATM   27  C   UNL     1      41.074 -17.077   2.159  1.00  0.00     0.001 A 
HETATM   28  C   UNL     1      40.705 -16.331   3.281  1.00  0.00     0.008 A 
ENDBRANCH  19  22
ENDBRANCH  15  16
ENDBRANCH   1  15
TORSDOF 6
ENDMDL
MODEL 8
REMARK VINA RESULT:      -7.3      2.123      2.549
REMARK  6 active torsions:
REMARK  status: ('A' for Active; 'I' for Inactive)
REMARK    1  A    between atoms: C_2  and  C_3 
REMARK    2  A    between atoms: C_7  and  C_8 
REMARK       I    between atoms: C_8  and  N_9 
REMARK    3  A    between atoms: N_9  and  C_10 
REMARK    4  A    between atoms: C_10  and  C_11 
REMARK    5  A    between atoms: C_11  and  N_12 
REMARK    6  A    between atoms: C_15  and  C_16 
ROOT
HETATM    1  C   UNL     1      42.377 -13.206   5.678  1.00  0.00     0.150 C 
ENDROOT
BRANCH   1   2
HETATM    2  N   UNL     1      42.367 -12.513   6.945  1.00  0.00    -0.354 N 
HETATM    3  C   UNL     1      42.006 -11.185   7.071  1.00  0.00     0.272 C 
HETATM    4  O   UNL     1      41.612 -10.525   6.113  1.00  0.00    -0.266 OA
HETATM    5  H   UNL     1      42.764 -12.919   7.794  1.00  0.00     0.162 HD
BRANCH   3   6
HETATM    6  C   UNL     1      42.104 -10.682   8.449  1.00  0.00     0.152 A 
HETATM    7  N   UNL     1      41.100  -9.959   8.986  1.00  0.00    -0.169 NA
HETATM    8  N   UNL     1      41.531  -9.674  10.226  1.00  0.00    -0.281 N 
HETATM    9  C   UNL     1      42.778 -10.158  10.502  1.00  0.00     0.036 A 
HETATM   10  H   UNL     1      40.925  -9.135  10.837  1.00  0.00     0.189 HD
HETATM   11  C   UNL     1      43.188 -10.829   9.365  1.00  0.00    -0.002 A 
HETATM   12  C   UNL     1      44.473 -11.538   9.134  1.00  0.00     0.053 C 
BRANCH   9  13
HETATM   13  C   UNL     1      43.441  -9.922  11.816  1.00  0.00     0.055 C 
HETATM   14  C   UNL     1      43.011 -10.951  12.850  1.00  0.00     0.011 C 
ENDBRANCH   9  13
ENDBRANCH   3   6
ENDBRANCH   1   2
BRANCH   1  15
HETATM   15  C   UNL     1      43.064 -14.582   5.755  1.00  0.00     0.254 C 
BRANCH  15  16
HETATM   16  N   UNL     1      42.253 -15.584   6.558  1.00  0.00    -0.069 N 
HETATM   17  H   UNL     1      42.265 -15.276   7.539  1.00  0.00     0.280 HD
HETATM   18  C   UNL     1      42.878 -16.976   6.515  1.00  0.00     0.244 C 
HETATM   19  C   UNL     1      42.023 -17.775   5.521  1.00  0.00     0.046 C 
HETATM   20  C   UNL     1      40.635 -17.245   5.894  1.00  0.00     0.039 C 
HETATM   21  C   UNL     1      40.822 -15.747   6.091  1.00  0.00     0.235 C 
BRANCH  19  22
HETATM   22  C   UNL     1      42.491 -17.610   4.076  1.00  0.00    -0.046 A 
HETATM   23  C   UNL     1      43.613 -18.325   3.583  1.00  0.00    -0.055 A 
HETATM   24  C   UNL     1      44.389 -19.338   4.389  1.00  0.00     0.049 C 
HETATM   25  C   UNL     1      44.073 -18.086   2.273  1.00  0.00     0.007 A 
HETATM   26  C   UNL     1      43.412 -17.203   1.426  1.00  0.00     0.001 A 
HETATM   27  C   UNL     1      42.273 -16.553   1.874  1.00  0.00     0.001 A 
HETATM   28  C   UNL     1      41.815 -16.759   3.178  1.00  0.00     0.008 A 
ENDBRANCH  19  22
ENDBRANCH  15  16
ENDBRANCH   1  15
TORSDOF 6
ENDMDL
MODEL 9
REMARK VINA RESULT:      -7.3      6.189      9.797
REMARK  6 active torsions:
REMARK  status: ('A' for Active; 'I' for Inactive)
REMARK    1  A    between atoms: C_2  and  C_3 
REMARK    2  A    between atoms: C_7  and  C_8 
REMARK       I    between atoms: C_8  and  N_9 
REMARK    3  A    between atoms: N_9  and  C_10 
REMARK    4  A    between atoms: C_10  and  C_11 
REMARK    5  A    between atoms: C_11  and  N_12 
REMARK    6  A    between atoms: C_15  and  C_16 
ROOT
HETATM    1  C   UNL     1      41.942 -16.695   0.363  1.00  0.00     0.150 C 
ENDROOT
BRANCH   1   2
HETATM    2  N   UNL     1      41.059 -16.128  -0.629  1.00  0.00    -0.354 N 
HETATM    3  C   UNL     1      41.105 -14.799  -1.003  1.00  0.00     0.272 C 
HETATM    4  O   UNL     1      41.948 -14.026  -0.553  1.00  0.00    -0.266 OA
HETATM    5  H   UNL     1      40.256 -16.637  -1.003  1.00  0.00     0.162 HD
BRANCH   3   6
HETATM    6  C   UNL     1      40.090 -14.438  -2.003  1.00  0.00     0.152 A 
HETATM    7  N   UNL     1      40.377 -14.495  -3.320  1.00  0.00    -0.169 NA
HETATM    8  N   UNL     1      39.240 -14.100  -3.918  1.00  0.00    -0.281 N 
HETATM    9  C   UNL     1      38.245 -13.765  -3.045  1.00  0.00     0.036 A 
HETATM   10  H   UNL     1      39.211 -14.073  -4.933  1.00  0.00     0.189 HD
HETATM   11  C   UNL     1      38.758 -13.976  -1.779  1.00  0.00    -0.002 A 
HETATM   12  C   UNL     1      38.088 -13.762  -0.471  1.00  0.00     0.053 C 
BRANCH   9  13
HETATM   13  C   UNL     1      36.917 -13.276  -3.515  1.00  0.00     0.055 C 
HETATM   14  C   UNL     1      37.020 -11.892  -4.136  1.00  0.00     0.011 C 
ENDBRANCH   9  13
ENDBRANCH   3   6
ENDBRANCH   1   2
BRANCH   1  15
HETATM   15  C   UNL     1      41.195 -17.184   1.619  1.00  0.00     0.254 C 
BRANCH  15  16
HETATM   16  N   UNL     1      41.557 -16.375   2.852  1.00  0.00    -0.069 N 
HETATM   17  H   UNL     1      41.172 -15.429   2.725  1.00  0.00     0.280 HD
HETATM   18  C   UNL     1      43.069 -16.230   3.005  1.00  0.00     0.244 C 
HETATM   19  C   UNL     1      43.463 -17.226   4.106  1.00  0.00     0.046 C 
HETATM   20  C   UNL     1      42.276 -17.037   5.057  1.00  0.00     0.039 C 
HETATM   21  C   UNL     1      41.053 -16.961   4.154  1.00  0.00     0.235 C 
BRANCH  19  22
HETATM   22  C   UNL     1      43.734 -18.628   3.563  1.00  0.00    -0.046 A 
HETATM   23  C   UNL     1      44.251 -19.650   4.400  1.00  0.00    -0.055 A 
HETATM   24  C   UNL     1      44.512 -19.481   5.877  1.00  0.00     0.049 C 
HETATM   25  C   UNL     1      44.573 -20.906   3.851  1.00  0.00     0.007 A 
HETATM   26  C   UNL     1      44.337 -21.189   2.509  1.00  0.00     0.001 A 
HETATM   27  C   UNL     1      43.765 -20.220   1.699  1.00  0.00     0.001 A 
HETATM   28  C   UNL     1      43.461 -18.961   2.220  1.00  0.00     0.008 A 
ENDBRANCH  19  22
ENDBRANCH  15  16
ENDBRANCH   1  15
TORSDOF 6
ENDMDL
MODEL 10
REMARK VINA RESULT:      -7.2      6.382      9.672
REMARK  6 active torsions:
REMARK  status: ('A' for Active; 'I' for Inactive)
REMARK    1  A    between atoms: C_2  and  C_3 
REMARK    2  A    between atoms: C_7  and  C_8 
REMARK       I    between atoms: C_8  and  N_9 
REMARK    3  A    between atoms: N_9  and  C_10 
REMARK    4  A    between atoms: C_10  and  C_11 
REMARK    5  A    between atoms: C_11  and  N_12 
REMARK    6  A    between atoms: C_15  and  C_16 
ROOT
HETATM    1  C   UNL     1      39.276 -14.988   2.246  1.00  0.00     0.150 C 
ENDROOT
BRANCH   1   2
HETATM    2  N   UNL     1      40.158 -16.067   2.624  1.00  0.00    -0.354 N 
HETATM    3  C   UNL     1      41.442 -15.858   3.089  1.00  0.00     0.272 C 
HETATM    4  O   UNL     1      41.893 -14.730   3.267  1.00  0.00    -0.266 OA
HETATM    5  H   UNL     1      39.939 -17.046   2.432  1.00  0.00     0.162 HD
BRANCH   3   6
HETATM    6  C   UNL     1      42.168 -17.104   3.380  1.00  0.00     0.152 A 
HETATM    7  N   UNL     1      42.017 -17.722   4.570  1.00  0.00    -0.169 NA
HETATM    8  N   UNL     1      42.817 -18.798   4.481  1.00  0.00    -0.281 N 
HETATM    9  C   UNL     1      43.496 -18.885   3.299  1.00  0.00     0.036 A 
HETATM   10  H   UNL     1      42.861 -19.434   5.271  1.00  0.00     0.189 HD
HETATM   11  C   UNL     1      43.096 -17.797   2.546  1.00  0.00    -0.002 A 
HETATM   12  C   UNL     1      43.536 -17.417   1.179  1.00  0.00     0.053 C 
BRANCH   9  13
HETATM   13  C   UNL     1      44.453 -19.994   3.021  1.00  0.00     0.055 C 
HETATM   14  C   UNL     1      45.030 -20.567   4.306  1.00  0.00     0.011 C 
ENDBRANCH   9  13
ENDBRANCH   3   6
ENDBRANCH   1   2
BRANCH   1  15
HETATM   15  C   UNL     1      39.364 -14.641   0.748  1.00  0.00     0.254 C 
BRANCH  15  16
HETATM   16  N   UNL     1      40.342 -13.511   0.479  1.00  0.00    -0.069 N 
HETATM   17  H   UNL     1      40.464 -12.992   1.359  1.00  0.00     0.280 HD
HETATM   18  C   UNL     1      39.794 -12.527  -0.552  1.00  0.00     0.244 C 
HETATM   19  C   UNL     1      40.528 -12.858  -1.859  1.00  0.00     0.046 C 
HETATM   20  C   UNL     1      41.927 -13.142  -1.302  1.00  0.00     0.039 C 
HETATM   21  C   UNL     1      41.691 -13.961  -0.040  1.00  0.00     0.235 C 
BRANCH  19  22
HETATM   22  C   UNL     1      39.836 -13.958  -2.662  1.00  0.00    -0.046 A 
HETATM   23  C   UNL     1      38.530 -13.773  -3.184  1.00  0.00    -0.055 A 
HETATM   24  C   UNL     1      37.747 -12.489  -3.064  1.00  0.00     0.049 C 
HETATM   25  C   UNL     1      37.884 -14.837  -3.844  1.00  0.00     0.007 A 
HETATM   26  C   UNL     1      38.526 -16.054  -4.049  1.00  0.00     0.001 A 
HETATM   27  C   UNL     1      39.828 -16.222  -3.606  1.00  0.00     0.001 A 
HETATM   28  C   UNL     1      40.476 -15.186  -2.928  1.00  0.00     0.008 A 
ENDBRANCH  19  22
ENDBRANCH  15  16
ENDBRANCH   1  15
TORSDOF 6
ENDMDL
