MODEL 1
REMARK VINA RESULT:      -8.7      0.000      0.000
REMARK  3 active torsions:
REMARK  status: ('A' for Active; 'I' for Inactive)
REMARK    1  A    between atoms: C_3  and  N_4 
REMARK       I    between atoms: N_7  and  C_8 
REMARK    2  A    between atoms: C_8  and  C_9 
REMARK    3  A    between atoms: C_23  and  O_24 
ROOT
HETATM    1  N   UNL     1      43.668 -18.470   2.977  1.00  0.00    -0.278 NA
HETATM    2  C   UNL     1      42.371 -18.034   3.559  1.00  0.00     0.115 C 
HETATM    3  C   UNL     1      42.149 -16.530   3.320  1.00  0.00     0.141 C 
HETATM    4  N   UNL     1      42.271 -16.192   1.895  1.00  0.00    -0.346 N 
HETATM    5  C   UNL     1      41.464 -15.172   1.396  1.00  0.00     0.256 C 
HETATM    6  O   UNL     1      40.712 -14.512   2.111  1.00  0.00    -0.267 OA
HETATM    7  C   UNL     1      43.538 -16.642   1.296  1.00  0.00     0.141 C 
HETATM    8  C   UNL     1      43.763 -18.151   1.523  1.00  0.00     0.115 C 
ENDROOT
BRANCH   5   9
HETATM    9  C   UNL     1      41.458 -14.877  -0.053  1.00  0.00     0.064 A 
HETATM   10  C   UNL     1      41.809 -13.622  -0.515  1.00  0.00     0.077 A 
HETATM   11  C   UNL     1      41.788 -13.305  -1.875  1.00  0.00     0.065 A 
HETATM   12  N   UNL     1      42.206 -12.475   0.179  1.00  0.00    -0.330 N 
HETATM   13  N   UNL     1      42.179 -11.974  -2.017  1.00  0.00    -0.331 N 
HETATM   14  C   UNL     1      41.404 -14.208  -2.836  1.00  0.00     0.074 A 
HETATM   15  C   UNL     1      42.418 -11.446  -0.742  1.00  0.00     0.176 A 
HETATM   16  H   UNL     1      42.234 -11.447  -2.875  1.00  0.00     0.168 HD
HETATM   17  S   UNL     1      42.851  -9.895  -0.400  1.00  0.00    -0.041 SA
HETATM   18  C   UNL     1      41.007 -15.463  -2.377  1.00  0.00     0.119 A 
HETATM   19  F   UNL     1      40.599 -16.380  -3.263  1.00  0.00    -0.206 F 
HETATM   20  C   UNL     1      41.012 -15.800  -1.010  1.00  0.00     0.061 A 
HETATM   21  H   UNL     1      42.233 -12.392   1.189  1.00  0.00     0.168 HD
ENDBRANCH   5   9
BRANCH   1  22
HETATM   22  C   UNL     1      43.996 -19.833   3.200  1.00  0.00     0.044 A 
HETATM   23  C   UNL     1      43.834 -20.855   2.258  1.00  0.00     0.026 A 
HETATM   24  C   UNL     1      44.227 -22.166   2.553  1.00  0.00     0.002 A 
HETATM   25  C   UNL     1      44.793 -22.476   3.792  1.00  0.00     0.003 A 
HETATM   26  C   UNL     1      44.959 -21.477   4.747  1.00  0.00     0.038 A 
HETATM   27  C   UNL     1      44.555 -20.183   4.445  1.00  0.00     0.087 A 
BRANCH  27  28
HETATM   28  O   UNL     1      44.674 -19.214   5.407  1.00  0.00    -0.359 OA
HETATM   29  H   UNL     1      43.925 -19.414   6.005  1.00  0.00     0.218 HD
ENDBRANCH  27  28
ENDBRANCH   1  22
TORSDOF 3
ENDMDL
MODEL 2
REMARK VINA RESULT:      -8.6      2.498      2.928
REMARK  3 active torsions:
REMARK  status: ('A' for Active; 'I' for Inactive)
REMARK    1  A    between atoms: C_3  and  N_4 
REMARK       I    between atoms: N_7  and  C_8 
REMARK    2  A    between atoms: C_8  and  C_9 
REMARK    3  A    between atoms: C_23  and  O_24 
ROOT
HETATM    1  N   UNL     1      42.802 -17.563   2.769  1.00  0.00    -0.278 NA
HETATM    2  C   UNL     1      41.317 -17.501   2.775  1.00  0.00     0.115 C 
HETATM    3  C   UNL     1      40.835 -16.039   2.758  1.00  0.00     0.141 C 
HETATM    4  N   UNL     1      41.427 -15.295   1.636  1.00  0.00    -0.346 N 
HETATM    5  C   UNL     1      40.658 -14.303   1.035  1.00  0.00     0.256 C 
HETATM    6  O   UNL     1      39.542 -13.988   1.446  1.00  0.00    -0.267 OA
HETATM    7  C   UNL     1      42.897 -15.370   1.599  1.00  0.00     0.141 C 
HETATM    8  C   UNL     1      43.387 -16.832   1.608  1.00  0.00     0.115 C 
ENDROOT
BRANCH   5   9
HETATM    9  C   UNL     1      41.157 -13.611  -0.173  1.00  0.00     0.064 A 
HETATM   10  C   UNL     1      40.738 -14.004  -1.430  1.00  0.00     0.077 A 
HETATM   11  C   UNL     1      41.211 -13.387  -2.591  1.00  0.00     0.065 A 
HETATM   12  N   UNL     1      39.856 -15.017  -1.821  1.00  0.00    -0.330 N 
HETATM   13  N   UNL     1      40.616 -14.010  -3.687  1.00  0.00    -0.331 N 
HETATM   14  C   UNL     1      42.129 -12.366  -2.561  1.00  0.00     0.074 A 
HETATM   15  C   UNL     1      39.790 -15.039  -3.215  1.00  0.00     0.176 A 
HETATM   16  H   UNL     1      40.779 -13.808  -4.662  1.00  0.00     0.168 HD
HETATM   17  S   UNL     1      38.921 -16.087  -4.142  1.00  0.00    -0.041 SA
HETATM   18  C   UNL     1      42.590 -11.991  -1.300  1.00  0.00     0.119 A 
HETATM   19  F   UNL     1      43.504 -11.017  -1.205  1.00  0.00    -0.206 F 
HETATM   20  C   UNL     1      42.134 -12.605  -0.118  1.00  0.00     0.061 A 
HETATM   21  H   UNL     1      39.423 -15.680  -1.188  1.00  0.00     0.168 HD
ENDBRANCH   5   9
BRANCH   1  22
HETATM   22  C   UNL     1      43.347 -18.870   2.848  1.00  0.00     0.044 A 
HETATM   23  C   UNL     1      43.154 -19.873   1.891  1.00  0.00     0.026 A 
HETATM   24  C   UNL     1      43.768 -21.123   2.033  1.00  0.00     0.002 A 
HETATM   25  C   UNL     1      44.590 -21.390   3.130  1.00  0.00     0.003 A 
HETATM   26  C   UNL     1      44.793 -20.410   4.097  1.00  0.00     0.038 A 
HETATM   27  C   UNL     1      44.169 -19.179   3.950  1.00  0.00     0.087 A 
BRANCH  27  28
HETATM   28  O   UNL     1      44.333 -18.236   4.932  1.00  0.00    -0.359 OA
HETATM   29  H   UNL     1      44.596 -17.442   4.423  1.00  0.00     0.218 HD
ENDBRANCH  27  28
ENDBRANCH   1  22
TORSDOF 3
ENDMDL
MODEL 3
REMARK VINA RESULT:      -8.0      3.075      3.339
REMARK  3 active torsions:
REMARK  status: ('A' for Active; 'I' for Inactive)
REMARK    1  A    between atoms: C_3  and  N_4 
REMARK       I    between atoms: N_7  and  C_8 
REMARK    2  A    between atoms: C_8  and  C_9 
REMARK    3  A    between atoms: C_23  and  O_24 
ROOT
HETATM    1  N   UNL     1      43.070 -18.055   3.744  1.00  0.00    -0.278 NA
HETATM    2  C   UNL     1      42.016 -18.102   4.792  1.00  0.00     0.115 C 
HETATM    3  C   UNL     1      41.664 -16.682   5.270  1.00  0.00     0.141 C 
HETATM    4  N   UNL     1      41.299 -15.814   4.141  1.00  0.00    -0.346 N 
HETATM    5  C   UNL     1      40.332 -14.837   4.357  1.00  0.00     0.256 C 
HETATM    6  O   UNL     1      39.826 -14.636   5.460  1.00  0.00    -0.267 OA
HETATM    7  C   UNL     1      42.320 -15.779   3.080  1.00  0.00     0.141 C 
HETATM    8  C   UNL     1      42.672 -17.197   2.590  1.00  0.00     0.115 C 
ENDROOT
BRANCH   5   9
HETATM    9  C   UNL     1      39.840 -14.020   3.226  1.00  0.00     0.064 A 
HETATM   10  C   UNL     1      40.021 -12.650   3.219  1.00  0.00     0.077 A 
HETATM   11  C   UNL     1      39.545 -11.849   2.178  1.00  0.00     0.065 A 
HETATM   12  N   UNL     1      40.632 -11.808   4.153  1.00  0.00    -0.330 N 
HETATM   13  N   UNL     1      39.871 -10.525   2.466  1.00  0.00    -0.331 N 
HETATM   14  C   UNL     1      38.857 -12.365   1.107  1.00  0.00     0.074 A 
HETATM   15  C   UNL     1      40.527 -10.490   3.703  1.00  0.00     0.176 A 
HETATM   16  H   UNL     1      39.637  -9.710   1.918  1.00  0.00     0.168 HD
HETATM   17  S   UNL     1      41.056  -9.139   4.483  1.00  0.00    -0.041 SA
HETATM   18  C   UNL     1      38.633 -13.741   1.125  1.00  0.00     0.119 A 
HETATM   19  F   UNL     1      37.947 -14.301   0.121  1.00  0.00    -0.206 F 
HETATM   20  C   UNL     1      39.095 -14.565   2.169  1.00  0.00     0.061 A 
HETATM   21  H   UNL     1      40.997 -12.109   5.049  1.00  0.00     0.168 HD
ENDBRANCH   5   9
BRANCH   1  22
HETATM   22  C   UNL     1      43.511 -19.322   3.281  1.00  0.00     0.044 A 
HETATM   23  C   UNL     1      43.094 -19.923   2.088  1.00  0.00     0.026 A 
HETATM   24  C   UNL     1      43.618 -21.159   1.691  1.00  0.00     0.002 A 
HETATM   25  C   UNL     1      44.570 -21.812   2.476  1.00  0.00     0.003 A 
HETATM   26  C   UNL     1      44.996 -21.236   3.670  1.00  0.00     0.038 A 
HETATM   27  C   UNL     1      44.460 -20.015   4.057  1.00  0.00     0.087 A 
BRANCH  27  28
HETATM   28  O   UNL     1      44.846 -19.478   5.258  1.00  0.00    -0.359 OA
HETATM   29  H   UNL     1      45.115 -20.269   5.769  1.00  0.00     0.218 HD
ENDBRANCH  27  28
ENDBRANCH   1  22
TORSDOF 3
ENDMDL
MODEL 4
REMARK VINA RESULT:      -8.0      3.397      8.147
REMARK  3 active torsions:
REMARK  status: ('A' for Active; 'I' for Inactive)
REMARK    1  A    between atoms: C_3  and  N_4 
REMARK       I    between atoms: N_7  and  C_8 
REMARK    2  A    between atoms: C_8  and  C_9 
REMARK    3  A    between atoms: C_23  and  O_24 
ROOT
HETATM    1  N   UNL     1      40.703 -14.896  -0.139  1.00  0.00    -0.278 NA
HETATM    2  C   UNL     1      40.821 -14.216   1.178  1.00  0.00     0.115 C 
HETATM    3  C   UNL     1      40.463 -15.184   2.321  1.00  0.00     0.141 C 
HETATM    4  N   UNL     1      41.262 -16.415   2.248  1.00  0.00    -0.346 N 
HETATM    5  C   UNL     1      41.622 -17.029   3.444  1.00  0.00     0.256 C 
HETATM    6  O   UNL     1      41.246 -16.618   4.540  1.00  0.00    -0.267 OA
HETATM    7  C   UNL     1      41.179 -17.086   0.940  1.00  0.00     0.141 C 
HETATM    8  C   UNL     1      41.545 -16.125  -0.209  1.00  0.00     0.115 C 
ENDROOT
BRANCH   5   9
HETATM    9  C   UNL     1      42.527 -18.199   3.431  1.00  0.00     0.064 A 
HETATM   10  C   UNL     1      43.178 -18.595   4.585  1.00  0.00     0.077 A 
HETATM   11  C   UNL     1      44.058 -19.680   4.598  1.00  0.00     0.065 A 
HETATM   12  N   UNL     1      43.146 -18.063   5.877  1.00  0.00    -0.330 N 
HETATM   13  N   UNL     1      44.557 -19.818   5.892  1.00  0.00    -0.331 N 
HETATM   14  C   UNL     1      44.346 -20.409   3.470  1.00  0.00     0.074 A 
HETATM   15  C   UNL     1      44.011 -18.802   6.687  1.00  0.00     0.176 A 
HETATM   16  H   UNL     1      45.236 -20.493   6.212  1.00  0.00     0.168 HD
HETATM   17  S   UNL     1      44.346 -18.526   8.275  1.00  0.00    -0.041 SA
HETATM   18  C   UNL     1      43.727 -19.991   2.293  1.00  0.00     0.119 A 
HETATM   19  F   UNL     1      43.985 -20.648   1.155  1.00  0.00    -0.206 F 
HETATM   20  C   UNL     1      42.844 -18.895   2.255  1.00  0.00     0.061 A 
HETATM   21  H   UNL     1      42.650 -17.219   6.141  1.00  0.00     0.168 HD
ENDBRANCH   5   9
BRANCH   1  22
HETATM   22  C   UNL     1      40.952 -14.068  -1.264  1.00  0.00     0.044 A 
HETATM   23  C   UNL     1      42.096 -13.281  -1.435  1.00  0.00     0.026 A 
HETATM   24  C   UNL     1      42.276 -12.527  -2.602  1.00  0.00     0.002 A 
HETATM   25  C   UNL     1      41.318 -12.552  -3.618  1.00  0.00     0.003 A 
HETATM   26  C   UNL     1      40.169 -13.324  -3.467  1.00  0.00     0.038 A 
HETATM   27  C   UNL     1      39.999 -14.058  -2.301  1.00  0.00     0.087 A 
BRANCH  27  28
HETATM   28  O   UNL     1      38.842 -14.776  -2.138  1.00  0.00    -0.359 OA
HETATM   29  H   UNL     1      38.210 -14.094  -1.833  1.00  0.00     0.218 HD
ENDBRANCH  27  28
ENDBRANCH   1  22
TORSDOF 3
ENDMDL
MODEL 5
REMARK VINA RESULT:      -7.9      3.034      3.714
REMARK  3 active torsions:
REMARK  status: ('A' for Active; 'I' for Inactive)
REMARK    1  A    between atoms: C_3  and  N_4 
REMARK       I    between atoms: N_7  and  C_8 
REMARK    2  A    between atoms: C_8  and  C_9 
REMARK    3  A    between atoms: C_23  and  O_24 
ROOT
HETATM    1  N   UNL     1      42.518 -15.774   4.081  1.00  0.00    -0.278 NA
HETATM    2  C   UNL     1      41.107 -16.104   3.748  1.00  0.00     0.115 C 
HETATM    3  C   UNL     1      40.382 -14.870   3.181  1.00  0.00     0.141 C 
HETATM    4  N   UNL     1      41.113 -14.298   2.041  1.00  0.00    -0.346 N 
HETATM    5  C   UNL     1      40.370 -13.721   1.014  1.00  0.00     0.256 C 
HETATM    6  O   UNL     1      39.145 -13.619   1.059  1.00  0.00    -0.267 OA
HETATM    7  C   UNL     1      42.520 -13.992   2.347  1.00  0.00     0.141 C 
HETATM    8  C   UNL     1      43.256 -15.225   2.907  1.00  0.00     0.115 C 
ENDROOT
BRANCH   5   9
HETATM    9  C   UNL     1      41.048 -13.243  -0.210  1.00  0.00     0.064 A 
HETATM   10  C   UNL     1      40.728 -13.778  -1.443  1.00  0.00     0.077 A 
HETATM   11  C   UNL     1      41.369 -13.365  -2.614  1.00  0.00     0.065 A 
HETATM   12  N   UNL     1      39.808 -14.770  -1.795  1.00  0.00    -0.330 N 
HETATM   13  N   UNL     1      40.839 -14.092  -3.679  1.00  0.00    -0.331 N 
HETATM   14  C   UNL     1      42.363 -12.417  -2.615  1.00  0.00     0.074 A 
HETATM   15  C   UNL     1      39.884 -14.983  -3.173  1.00  0.00     0.176 A 
HETATM   16  H   UNL     1      41.118 -14.040  -4.647  1.00  0.00     0.168 HD
HETATM   17  S   UNL     1      39.028 -16.086  -4.046  1.00  0.00    -0.041 SA
HETATM   18  C   UNL     1      42.722 -11.902  -1.370  1.00  0.00     0.119 A 
HETATM   19  F   UNL     1      43.702 -10.991  -1.302  1.00  0.00    -0.206 F 
HETATM   20  C   UNL     1      42.096 -12.311  -0.177  1.00  0.00     0.061 A 
HETATM   21  H   UNL     1      39.257 -15.306  -1.134  1.00  0.00     0.168 HD
ENDBRANCH   5   9
BRANCH   1  22
HETATM   22  C   UNL     1      43.257 -16.832   4.672  1.00  0.00     0.044 A 
HETATM   23  C   UNL     1      43.445 -18.091   4.092  1.00  0.00     0.026 A 
HETATM   24  C   UNL     1      44.227 -19.061   4.731  1.00  0.00     0.002 A 
HETATM   25  C   UNL     1      44.839 -18.786   5.956  1.00  0.00     0.003 A 
HETATM   26  C   UNL     1      44.661 -17.542   6.554  1.00  0.00     0.038 A 
HETATM   27  C   UNL     1      43.874 -16.593   5.915  1.00  0.00     0.087 A 
BRANCH  27  28
HETATM   28  O   UNL     1      43.663 -15.388   6.534  1.00  0.00    -0.359 OA
HETATM   29  H   UNL     1      44.007 -14.749   5.878  1.00  0.00     0.218 HD
ENDBRANCH  27  28
ENDBRANCH   1  22
TORSDOF 3
ENDMDL
MODEL 6
REMARK VINA RESULT:      -7.8      1.985      2.450
REMARK  3 active torsions:
REMARK  status: ('A' for Active; 'I' for Inactive)
REMARK    1  A    between atoms: C_3  and  N_4 
REMARK       I    between atoms: N_7  and  C_8 
REMARK    2  A    between atoms: C_8  and  C_9 
REMARK    3  A    between atoms: C_23  and  O_24 
ROOT
HETATM    1  N   UNL     1      42.371 -17.416   2.779  1.00  0.00    -0.278 NA
HETATM    2  C   UNL     1      41.022 -17.516   2.162  1.00  0.00     0.115 C 
HETATM    3  C   UNL     1      40.322 -16.144   2.166  1.00  0.00     0.141 C 
HETATM    4  N   UNL     1      41.159 -15.116   1.530  1.00  0.00    -0.346 N 
HETATM    5  C   UNL     1      40.519 -14.105   0.819  1.00  0.00     0.256 C 
HETATM    6  O   UNL     1      39.295 -14.008   0.760  1.00  0.00    -0.267 OA
HETATM    7  C   UNL     1      42.509 -15.024   2.110  1.00  0.00     0.141 C 
HETATM    8  C   UNL     1      43.219 -16.392   2.103  1.00  0.00     0.115 C 
ENDROOT
BRANCH   5   9
HETATM    9  C   UNL     1      41.317 -13.118   0.059  1.00  0.00     0.064 A 
HETATM   10  C   UNL     1      41.406 -11.808   0.489  1.00  0.00     0.077 A 
HETATM   11  C   UNL     1      42.130 -10.847  -0.222  1.00  0.00     0.065 A 
HETATM   12  N   UNL     1      40.843 -11.174   1.600  1.00  0.00    -0.330 N 
HETATM   13  N   UNL     1      42.020  -9.633   0.455  1.00  0.00    -0.331 N 
HETATM   14  C   UNL     1      42.783 -11.135  -1.395  1.00  0.00     0.074 A 
HETATM   15  C   UNL     1      41.202  -9.824   1.575  1.00  0.00     0.176 A 
HETATM   16  H   UNL     1      42.408  -8.745   0.173  1.00  0.00     0.168 HD
HETATM   17  S   UNL     1      40.741  -8.664   2.649  1.00  0.00    -0.041 SA
HETATM   18  C   UNL     1      42.664 -12.444  -1.859  1.00  0.00     0.119 A 
HETATM   19  F   UNL     1      43.259 -12.783  -3.010  1.00  0.00    -0.206 F 
HETATM   20  C   UNL     1      41.932 -13.426  -1.164  1.00  0.00     0.061 A 
HETATM   21  H   UNL     1      40.201 -11.612   2.250  1.00  0.00     0.168 HD
ENDBRANCH   5   9
BRANCH   1  22
HETATM   22  C   UNL     1      43.075 -18.644   2.881  1.00  0.00     0.044 A 
HETATM   23  C   UNL     1      43.076 -19.644   1.903  1.00  0.00     0.026 A 
HETATM   24  C   UNL     1      43.837 -20.807   2.073  1.00  0.00     0.002 A 
HETATM   25  C   UNL     1      44.613 -20.987   3.220  1.00  0.00     0.003 A 
HETATM   26  C   UNL     1      44.623 -20.008   4.209  1.00  0.00     0.038 A 
HETATM   27  C   UNL     1      43.855 -18.864   4.033  1.00  0.00     0.087 A 
BRANCH  27  28
HETATM   28  O   UNL     1      43.830 -17.927   5.033  1.00  0.00    -0.359 OA
HETATM   29  H   UNL     1      43.354 -17.181   4.614  1.00  0.00     0.218 HD
ENDBRANCH  27  28
ENDBRANCH   1  22
TORSDOF 3
ENDMDL
MODEL 7
REMARK VINA RESULT:      -7.8      3.610      4.806
REMARK  3 active torsions:
REMARK  status: ('A' for Active; 'I' for Inactive)
REMARK    1  A    between atoms: C_3  and  N_4 
REMARK       I    between atoms: N_7  and  C_8 
REMARK    2  A    between atoms: C_8  and  C_9 
REMARK    3  A    between atoms: C_23  and  O_24 
ROOT
HETATM    1  N   UNL     1      43.123 -18.884   2.805  1.00  0.00    -0.278 NA
HETATM    2  C   UNL     1      43.977 -18.018   1.950  1.00  0.00     0.115 C 
HETATM    3  C   UNL     1      43.134 -16.917   1.281  1.00  0.00     0.141 C 
HETATM    4  N   UNL     1      42.370 -16.151   2.276  1.00  0.00    -0.346 N 
HETATM    5  C   UNL     1      42.158 -14.796   2.033  1.00  0.00     0.256 C 
HETATM    6  O   UNL     1      42.528 -14.243   0.998  1.00  0.00    -0.267 OA
HETATM    7  C   UNL     1      41.541 -16.996   3.150  1.00  0.00     0.141 C 
HETATM    8  C   UNL     1      42.380 -18.096   3.831  1.00  0.00     0.115 C 
ENDROOT
BRANCH   5   9
HETATM    9  C   UNL     1      41.504 -13.954   3.058  1.00  0.00     0.064 A 
HETATM   10  C   UNL     1      42.107 -13.746   4.283  1.00  0.00     0.077 A 
HETATM   11  C   UNL     1      41.502 -12.977   5.280  1.00  0.00     0.065 A 
HETATM   12  N   UNL     1      43.322 -14.214   4.792  1.00  0.00    -0.330 N 
HETATM   13  N   UNL     1      42.345 -12.965   6.391  1.00  0.00    -0.331 N 
HETATM   14  C   UNL     1      40.269 -12.394   5.115  1.00  0.00     0.074 A 
HETATM   15  C   UNL     1      43.468 -13.751   6.101  1.00  0.00     0.176 A 
HETATM   16  H   UNL     1      42.171 -12.519   7.279  1.00  0.00     0.168 HD
HETATM   17  S   UNL     1      44.714 -14.078   7.127  1.00  0.00    -0.041 SA
HETATM   18  C   UNL     1      39.634 -12.634   3.898  1.00  0.00     0.119 A 
HETATM   19  F   UNL     1      38.419 -12.112   3.685  1.00  0.00    -0.206 F 
HETATM   20  C   UNL     1      40.221 -13.413   2.883  1.00  0.00     0.061 A 
HETATM   21  H   UNL     1      43.936 -14.863   4.313  1.00  0.00     0.168 HD
ENDBRANCH   5   9
BRANCH   1  22
HETATM   22  C   UNL     1      43.798 -19.971   3.419  1.00  0.00     0.044 A 
HETATM   23  C   UNL     1      44.335 -19.947   4.710  1.00  0.00     0.026 A 
HETATM   24  C   UNL     1      44.947 -21.085   5.250  1.00  0.00     0.002 A 
HETATM   25  C   UNL     1      45.027 -22.267   4.509  1.00  0.00     0.003 A 
HETATM   26  C   UNL     1      44.504 -22.312   3.220  1.00  0.00     0.038 A 
HETATM   27  C   UNL     1      43.910 -21.173   2.693  1.00  0.00     0.087 A 
BRANCH  27  28
HETATM   28  O   UNL     1      43.442 -21.210   1.405  1.00  0.00    -0.359 OA
HETATM   29  H   UNL     1      44.005 -21.896   0.993  1.00  0.00     0.218 HD
ENDBRANCH  27  28
ENDBRANCH   1  22
TORSDOF 3
ENDMDL
MODEL 8
REMARK VINA RESULT:      -7.7      3.482      7.745
REMARK  3 active torsions:
REMARK  status: ('A' for Active; 'I' for Inactive)
REMARK    1  A    between atoms: C_3  and  N_4 
REMARK       I    between atoms: N_7  and  C_8 
REMARK    2  A    between atoms: C_8  and  C_9 
REMARK    3  A    between atoms: C_23  and  O_24 
ROOT
HETATM    1  N   UNL     1      41.100 -15.695   0.125  1.00  0.00    -0.278 NA
HETATM    2  C   UNL     1      40.271 -15.173   1.244  1.00  0.00     0.115 C 
HETATM    3  C   UNL     1      40.003 -16.279   2.281  1.00  0.00     0.141 C 
HETATM    4  N   UNL     1      41.256 -16.891   2.745  1.00  0.00    -0.346 N 
HETATM    5  C   UNL     1      41.320 -17.323   4.066  1.00  0.00     0.256 C 
HETATM    6  O   UNL     1      40.356 -17.270   4.829  1.00  0.00    -0.267 OA
HETATM    7  C   UNL     1      42.102 -17.387   1.647  1.00  0.00     0.141 C 
HETATM    8  C   UNL     1      42.382 -16.283   0.608  1.00  0.00     0.115 C 
ENDROOT
BRANCH   5   9
HETATM    9  C   UNL     1      42.594 -17.832   4.618  1.00  0.00     0.064 A 
HETATM   10  C   UNL     1      43.359 -17.045   5.457  1.00  0.00     0.077 A 
HETATM   11  C   UNL     1      44.580 -17.488   5.972  1.00  0.00     0.065 A 
HETATM   12  N   UNL     1      43.148 -15.747   5.931  1.00  0.00    -0.330 N 
HETATM   13  N   UNL     1      45.110 -16.472   6.766  1.00  0.00    -0.331 N 
HETATM   14  C   UNL     1      45.104 -18.721   5.669  1.00  0.00     0.074 A 
HETATM   15  C   UNL     1      44.235 -15.379   6.726  1.00  0.00     0.176 A 
HETATM   16  H   UNL     1      45.995 -16.481   7.251  1.00  0.00     0.168 HD
HETATM   17  S   UNL     1      44.464 -13.926   7.468  1.00  0.00    -0.041 SA
HETATM   18  C   UNL     1      44.359 -19.506   4.790  1.00  0.00     0.119 A 
HETATM   19  F   UNL     1      44.828 -20.709   4.437  1.00  0.00    -0.206 F 
HETATM   20  C   UNL     1      43.132 -19.075   4.251  1.00  0.00     0.061 A 
HETATM   21  H   UNL     1      42.378 -15.150   5.654  1.00  0.00     0.168 HD
ENDBRANCH   5   9
BRANCH   1  22
HETATM   22  C   UNL     1      41.350 -14.767  -0.918  1.00  0.00     0.044 A 
HETATM   23  C   UNL     1      42.011 -13.545  -0.755  1.00  0.00     0.026 A 
HETATM   24  C   UNL     1      42.252 -12.710  -1.853  1.00  0.00     0.002 A 
HETATM   25  C   UNL     1      41.841 -13.086  -3.134  1.00  0.00     0.003 A 
HETATM   26  C   UNL     1      41.176 -14.295  -3.320  1.00  0.00     0.038 A 
HETATM   27  C   UNL     1      40.935 -15.108  -2.220  1.00  0.00     0.087 A 
BRANCH  27  28
HETATM   28  O   UNL     1      40.236 -16.273  -2.403  1.00  0.00    -0.359 OA
HETATM   29  H   UNL     1      39.728 -16.350  -1.570  1.00  0.00     0.218 HD
ENDBRANCH  27  28
ENDBRANCH   1  22
TORSDOF 3
ENDMDL
MODEL 9
REMARK VINA RESULT:      -7.7      1.775      1.926
REMARK  3 active torsions:
REMARK  status: ('A' for Active; 'I' for Inactive)
REMARK    1  A    between atoms: C_3  and  N_4 
REMARK       I    between atoms: N_7  and  C_8 
REMARK    2  A    between atoms: C_8  and  C_9 
REMARK    3  A    between atoms: C_23  and  O_24 
ROOT
HETATM    1  N   UNL     1      42.804 -17.219   3.123  1.00  0.00    -0.278 NA
HETATM    2  C   UNL     1      41.331 -17.334   3.283  1.00  0.00     0.115 C 
HETATM    3  C   UNL     1      40.647 -15.987   2.986  1.00  0.00     0.141 C 
HETATM    4  N   UNL     1      41.033 -15.472   1.665  1.00  0.00    -0.346 N 
HETATM    5  C   UNL     1      40.084 -14.753   0.944  1.00  0.00     0.256 C 
HETATM    6  O   UNL     1      38.973 -14.482   1.396  1.00  0.00    -0.267 OA
HETATM    7  C   UNL     1      42.491 -15.379   1.479  1.00  0.00     0.141 C 
HETATM    8  C   UNL     1      43.182 -16.727   1.767  1.00  0.00     0.115 C 
ENDROOT
BRANCH   5   9
HETATM    9  C   UNL     1      40.379 -14.319  -0.439  1.00  0.00     0.064 A 
HETATM   10  C   UNL     1      40.043 -13.047  -0.862  1.00  0.00     0.077 A 
HETATM   11  C   UNL     1      40.285 -12.618  -2.170  1.00  0.00     0.065 A 
HETATM   12  N   UNL     1      39.425 -11.995  -0.181  1.00  0.00    -0.330 N 
HETATM   13  N   UNL     1      39.828 -11.307  -2.287  1.00  0.00    -0.331 N 
HETATM   14  C   UNL     1      40.855 -13.431  -3.119  1.00  0.00     0.074 A 
HETATM   15  C   UNL     1      39.271 -10.921  -1.061  1.00  0.00     0.176 A 
HETATM   16  H   UNL     1      39.836 -10.734  -3.118  1.00  0.00     0.168 HD
HETATM   17  S   UNL     1      38.555  -9.475  -0.732  1.00  0.00    -0.041 SA
HETATM   18  C   UNL     1      41.159 -14.729  -2.713  1.00  0.00     0.119 A 
HETATM   19  F   UNL     1      41.696 -15.578  -3.599  1.00  0.00    -0.206 F 
HETATM   20  C   UNL     1      40.915 -15.186  -1.404  1.00  0.00     0.061 A 
HETATM   21  H   UNL     1      39.065 -12.053   0.764  1.00  0.00     0.168 HD
ENDBRANCH   5   9
BRANCH   1  22
HETATM   22  C   UNL     1      43.535 -18.395   3.437  1.00  0.00     0.044 A 
HETATM   23  C   UNL     1      43.729 -19.468   2.561  1.00  0.00     0.026 A 
HETATM   24  C   UNL     1      44.502 -20.571   2.944  1.00  0.00     0.002 A 
HETATM   25  C   UNL     1      45.097 -20.617   4.206  1.00  0.00     0.003 A 
HETATM   26  C   UNL     1      44.913 -19.563   5.097  1.00  0.00     0.038 A 
HETATM   27  C   UNL     1      44.135 -18.481   4.708  1.00  0.00     0.087 A 
BRANCH  27  28
HETATM   28  O   UNL     1      43.916 -17.470   5.608  1.00  0.00    -0.359 OA
HETATM   29  H   UNL     1      44.399 -17.782   6.400  1.00  0.00     0.218 HD
ENDBRANCH  27  28
ENDBRANCH   1  22
TORSDOF 3
ENDMDL
MODEL 10
REMARK VINA RESULT:      -7.7      4.686      8.636
REMARK  3 active torsions:
REMARK  status: ('A' for Active; 'I' for Inactive)
REMARK    1  A    between atoms: C_3  and  N_4 
REMARK       I    between atoms: N_7  and  C_8 
REMARK    2  A    between atoms: C_8  and  C_9 
REMARK    3  A    between atoms: C_23  and  O_24 
ROOT
HETATM    1  N   UNL     1      40.540 -13.178   4.846  1.00  0.00    -0.278 NA
HETATM    2  C   UNL     1      41.933 -12.661   4.893  1.00  0.00     0.115 C 
HETATM    3  C   UNL     1      42.711 -13.306   6.055  1.00  0.00     0.141 C 
HETATM    4  N   UNL     1      42.655 -14.773   5.986  1.00  0.00    -0.346 N 
HETATM    5  C   UNL     1      43.767 -15.488   6.421  1.00  0.00     0.256 C 
HETATM    6  O   UNL     1      44.754 -14.944   6.914  1.00  0.00    -0.267 OA
HETATM    7  C   UNL     1      41.282 -15.300   5.910  1.00  0.00     0.141 C 
HETATM    8  C   UNL     1      40.499 -14.666   4.743  1.00  0.00     0.115 C 
ENDROOT
BRANCH   5   9
HETATM    9  C   UNL     1      43.811 -16.958   6.259  1.00  0.00     0.064 A 
HETATM   10  C   UNL     1      43.814 -17.524   4.999  1.00  0.00     0.077 A 
HETATM   11  C   UNL     1      43.829 -18.909   4.814  1.00  0.00     0.065 A 
HETATM   12  N   UNL     1      43.781 -16.931   3.733  1.00  0.00    -0.330 N 
HETATM   13  N   UNL     1      43.815 -19.164   3.444  1.00  0.00    -0.331 N 
HETATM   14  C   UNL     1      43.827 -19.793   5.865  1.00  0.00     0.074 A 
HETATM   15  C   UNL     1      43.762 -17.939   2.767  1.00  0.00     0.176 A 
HETATM   16  H   UNL     1      43.792 -20.068   2.995  1.00  0.00     0.168 HD
HETATM   17  S   UNL     1      43.676 -17.735   1.135  1.00  0.00    -0.041 SA
HETATM   18  C   UNL     1      43.782 -19.231   7.140  1.00  0.00     0.119 A 
HETATM   19  F   UNL     1      43.754 -20.041   8.207  1.00  0.00    -0.206 F 
HETATM   20  C   UNL     1      43.756 -17.839   7.349  1.00  0.00     0.061 A 
HETATM   21  H   UNL     1      43.685 -15.936   3.565  1.00  0.00     0.168 HD
ENDBRANCH   5   9
BRANCH   1  22
HETATM   22  C   UNL     1      39.718 -12.597   3.846  1.00  0.00     0.044 A 
HETATM   23  C   UNL     1      39.656 -13.030   2.516  1.00  0.00     0.026 A 
HETATM   24  C   UNL     1      38.782 -12.421   1.607  1.00  0.00     0.002 A 
HETATM   25  C   UNL     1      37.953 -11.374   2.013  1.00  0.00     0.003 A 
HETATM   26  C   UNL     1      38.001 -10.922   3.329  1.00  0.00     0.038 A 
HETATM   27  C   UNL     1      38.880 -11.528   4.217  1.00  0.00     0.087 A 
BRANCH  27  28
HETATM   28  O   UNL     1      38.959 -11.045   5.498  1.00  0.00    -0.359 OA
HETATM   29  H   UNL     1      38.061 -10.685   5.645  1.00  0.00     0.218 HD
ENDBRANCH  27  28
ENDBRANCH   1  22
TORSDOF 3
ENDMDL
