MODEL 1
REMARK VINA RESULT:      -8.0      0.000      0.000
REMARK  4 active torsions:
REMARK  status: ('A' for Active; 'I' for Inactive)
REMARK    1  A    between atoms: O_2  and  C_3 
REMARK    2  A    between atoms: N_9  and  N_10 
REMARK       I    between atoms: N_10  and  C_11 
REMARK    3  A    between atoms: C_11  and  C_12 
REMARK    4  A    between atoms: C_13  and  O_14 
ROOT
HETATM    1  C   UNL     1      43.931 -18.305   2.345  1.00  0.00     0.069 A 
HETATM    2  C   UNL     1      43.629 -17.690   3.564  1.00  0.00     0.053 A 
HETATM    3  C   UNL     1      43.712 -18.457   4.716  1.00  0.00     0.029 A 
HETATM    4  C   UNL     1      43.474 -18.155   6.136  1.00  0.00     0.157 A 
HETATM    5  C   UNL     1      43.924 -19.414   6.909  1.00  0.00     0.277 A 
HETATM    6  O   UNL     1      43.943 -19.561   8.111  1.00  0.00    -0.266 OA
HETATM    7  N   UNL     1      42.980 -17.131   6.756  1.00  0.00    -0.166 NA
HETATM    8  C   UNL     1      44.156 -19.781   4.671  1.00  0.00     0.048 A 
HETATM    9  N   UNL     1      44.270 -20.329   5.942  1.00  0.00    -0.321 N 
HETATM   10  C   UNL     1      44.469 -20.406   3.484  1.00  0.00     0.033 A 
HETATM   11  C   UNL     1      44.338 -19.655   2.313  1.00  0.00     0.039 A 
HETATM   12  H   UNL     1      44.604 -21.255   6.167  1.00  0.00     0.169 HD
ENDROOT
BRANCH   7  13
HETATM   13  N   UNL     1      42.416 -16.122   6.040  1.00  0.00    -0.242 N 
HETATM   14  C   UNL     1      41.036 -16.047   5.921  1.00  0.00     0.274 C 
HETATM   15  O   UNL     1      40.232 -16.744   6.539  1.00  0.00    -0.266 OA
HETATM   16  H   UNL     1      43.021 -15.541   5.483  1.00  0.00     0.192 HD
BRANCH  14  17
HETATM   17  C   UNL     1      40.497 -14.979   5.030  1.00  0.00     0.068 A 
HETATM   18  C   UNL     1      39.936 -13.827   5.607  1.00  0.00     0.081 A 
HETATM   19  C   UNL     1      39.466 -12.784   4.810  1.00  0.00     0.039 A 
HETATM   20  C   UNL     1      39.537 -12.882   3.422  1.00  0.00     0.022 A 
HETATM   21  C   UNL     1      40.066 -14.033   2.841  1.00  0.00     0.012 A 
HETATM   22 BR   UNL     1      40.154 -14.174   0.958  1.00  0.00    -0.051 Br
HETATM   23  C   UNL     1      40.537 -15.084   3.632  1.00  0.00     0.039 A 
BRANCH  18  24
HETATM   24  O   UNL     1      39.819 -13.645   6.959  1.00  0.00    -0.360 OA
HETATM   25  H   UNL     1      40.617 -13.159   7.273  1.00  0.00     0.217 HD
ENDBRANCH  18  24
ENDBRANCH  14  17
ENDBRANCH   7  13
BRANCH   1  26
HETATM   26  O   UNL     1      43.882 -17.706   1.115  1.00  0.00    -0.356 OA
HETATM   27  C   UNL     1      42.692 -17.003   0.777  1.00  0.00     0.210 C 
ENDBRANCH   1  26
TORSDOF 4
ENDMDL
MODEL 2
REMARK VINA RESULT:      -7.8      2.096      3.285
REMARK  4 active torsions:
REMARK  status: ('A' for Active; 'I' for Inactive)
REMARK    1  A    between atoms: O_2  and  C_3 
REMARK    2  A    between atoms: N_9  and  N_10 
REMARK       I    between atoms: N_10  and  C_11 
REMARK    3  A    between atoms: C_11  and  C_12 
REMARK    4  A    between atoms: C_13  and  O_14 
ROOT
HETATM    1  C   UNL     1      44.582 -20.375   3.762  1.00  0.00     0.069 A 
HETATM    2  C   UNL     1      44.251 -19.061   4.107  1.00  0.00     0.053 A 
HETATM    3  C   UNL     1      43.921 -18.801   5.429  1.00  0.00     0.029 A 
HETATM    4  C   UNL     1      43.529 -17.572   6.138  1.00  0.00     0.157 A 
HETATM    5  C   UNL     1      43.481 -17.954   7.633  1.00  0.00     0.277 A 
HETATM    6  O   UNL     1      43.250 -17.216   8.565  1.00  0.00    -0.266 OA
HETATM    7  N   UNL     1      43.231 -16.376   5.743  1.00  0.00    -0.166 NA
HETATM    8  C   UNL     1      43.991 -19.802   6.401  1.00  0.00     0.048 A 
HETATM    9  N   UNL     1      43.729 -19.307   7.671  1.00  0.00    -0.321 N 
HETATM   10  C   UNL     1      44.325 -21.102   6.086  1.00  0.00     0.033 A 
HETATM   11  C   UNL     1      44.608 -21.383   4.748  1.00  0.00     0.039 A 
HETATM   12  H   UNL     1      43.756 -19.829   8.535  1.00  0.00     0.169 HD
ENDROOT
BRANCH   7  13
HETATM   13  N   UNL     1      43.095 -16.123   4.414  1.00  0.00    -0.242 N 
HETATM   14  C   UNL     1      41.956 -15.484   3.946  1.00  0.00     0.274 C 
HETATM   15  O   UNL     1      41.088 -14.974   4.653  1.00  0.00    -0.266 OA
HETATM   16  H   UNL     1      43.755 -16.546   3.782  1.00  0.00     0.192 HD
BRANCH  14  17
HETATM   17  C   UNL     1      41.829 -15.341   2.467  1.00  0.00     0.068 A 
HETATM   18  C   UNL     1      41.637 -16.491   1.683  1.00  0.00     0.081 A 
HETATM   19  C   UNL     1      41.464 -16.397   0.303  1.00  0.00     0.039 A 
HETATM   20  C   UNL     1      41.495 -15.150  -0.319  1.00  0.00     0.022 A 
HETATM   21  C   UNL     1      41.713 -14.006   0.447  1.00  0.00     0.012 A 
HETATM   22 BR   UNL     1      41.765 -12.314  -0.394  1.00  0.00    -0.051 Br
HETATM   23  C   UNL     1      41.889 -14.092   1.831  1.00  0.00     0.039 A 
BRANCH  18  24
HETATM   24  O   UNL     1      41.600 -17.757   2.204  1.00  0.00    -0.360 OA
HETATM   25  H   UNL     1      42.527 -18.083   2.283  1.00  0.00     0.217 HD
ENDBRANCH  18  24
ENDBRANCH  14  17
ENDBRANCH   7  13
BRANCH   1  26
HETATM   26  O   UNL     1      44.912 -20.810   2.507  1.00  0.00    -0.356 OA
HETATM   27  C   UNL     1      44.117 -21.846   1.943  1.00  0.00     0.210 C 
ENDBRANCH   1  26
TORSDOF 4
ENDMDL
MODEL 3
REMARK VINA RESULT:      -7.7      2.830      4.267
REMARK  4 active torsions:
REMARK  status: ('A' for Active; 'I' for Inactive)
REMARK    1  A    between atoms: O_2  and  C_3 
REMARK    2  A    between atoms: N_9  and  N_10 
REMARK       I    between atoms: N_10  and  C_11 
REMARK    3  A    between atoms: C_11  and  C_12 
REMARK    4  A    between atoms: C_13  and  O_14 
ROOT
HETATM    1  C   UNL     1      43.575 -16.489   5.751  1.00  0.00     0.069 A 
HETATM    2  C   UNL     1      43.292 -16.945   4.459  1.00  0.00     0.053 A 
HETATM    3  C   UNL     1      43.863 -18.142   4.054  1.00  0.00     0.029 A 
HETATM    4  C   UNL     1      43.792 -18.909   2.800  1.00  0.00     0.157 A 
HETATM    5  C   UNL     1      44.520 -20.240   3.086  1.00  0.00     0.277 A 
HETATM    6  O   UNL     1      44.642 -21.179   2.331  1.00  0.00    -0.266 OA
HETATM    7  N   UNL     1      43.295 -18.656   1.631  1.00  0.00    -0.166 NA
HETATM    8  C   UNL     1      44.635 -18.907   4.932  1.00  0.00     0.048 A 
HETATM    9  N   UNL     1      45.017 -20.115   4.363  1.00  0.00    -0.321 N 
HETATM   10  C   UNL     1      44.919 -18.484   6.212  1.00  0.00     0.033 A 
HETATM   11  C   UNL     1      44.390 -17.254   6.611  1.00  0.00     0.039 A 
HETATM   12  H   UNL     1      45.545 -20.848   4.813  1.00  0.00     0.169 HD
ENDROOT
BRANCH   7  13
HETATM   13  N   UNL     1      42.835 -17.407   1.354  1.00  0.00    -0.242 N 
HETATM   14  C   UNL     1      41.486 -17.210   1.095  1.00  0.00     0.274 C 
HETATM   15  O   UNL     1      40.606 -18.058   1.236  1.00  0.00    -0.266 OA
HETATM   16  H   UNL     1      43.511 -16.679   1.191  1.00  0.00     0.192 HD
BRANCH  14  17
HETATM   17  C   UNL     1      41.076 -15.834   0.692  1.00  0.00     0.068 A 
HETATM   18  C   UNL     1      39.984 -15.230   1.338  1.00  0.00     0.081 A 
HETATM   19  C   UNL     1      39.598 -13.927   1.025  1.00  0.00     0.039 A 
HETATM   20  C   UNL     1      40.290 -13.211   0.050  1.00  0.00     0.022 A 
HETATM   21  C   UNL     1      41.357 -13.812  -0.615  1.00  0.00     0.012 A 
HETATM   22 BR   UNL     1      42.292 -12.848  -1.945  1.00  0.00    -0.051 Br
HETATM   23  C   UNL     1      41.749 -15.119  -0.310  1.00  0.00     0.039 A 
BRANCH  18  24
HETATM   24  O   UNL     1      39.240 -15.858   2.302  1.00  0.00    -0.360 OA
HETATM   25  H   UNL     1      38.780 -16.623   1.883  1.00  0.00     0.217 HD
ENDBRANCH  18  24
ENDBRANCH  14  17
ENDBRANCH   7  13
BRANCH   1  26
HETATM   26  O   UNL     1      43.114 -15.326   6.304  1.00  0.00    -0.356 OA
HETATM   27  C   UNL     1      43.737 -14.114   5.894  1.00  0.00     0.210 C 
ENDBRANCH   1  26
TORSDOF 4
ENDMDL
MODEL 4
REMARK VINA RESULT:      -7.6      2.417      3.157
REMARK  4 active torsions:
REMARK  status: ('A' for Active; 'I' for Inactive)
REMARK    1  A    between atoms: O_2  and  C_3 
REMARK    2  A    between atoms: N_9  and  N_10 
REMARK       I    between atoms: N_10  and  C_11 
REMARK    3  A    between atoms: C_11  and  C_12 
REMARK    4  A    between atoms: C_13  and  O_14 
ROOT
HETATM    1  C   UNL     1      43.849 -19.543   2.984  1.00  0.00     0.069 A 
HETATM    2  C   UNL     1      43.504 -18.230   3.322  1.00  0.00     0.053 A 
HETATM    3  C   UNL     1      43.796 -17.792   4.604  1.00  0.00     0.029 A 
HETATM    4  C   UNL     1      43.584 -16.510   5.294  1.00  0.00     0.157 A 
HETATM    5  C   UNL     1      44.309 -16.644   6.651  1.00  0.00     0.277 A 
HETATM    6  O   UNL     1      44.424 -15.790   7.502  1.00  0.00    -0.266 OA
HETATM    7  N   UNL     1      42.939 -15.430   4.985  1.00  0.00    -0.166 NA
HETATM    8  C   UNL     1      44.482 -18.608   5.507  1.00  0.00     0.048 A 
HETATM    9  N   UNL     1      44.769 -17.940   6.690  1.00  0.00    -0.321 N 
HETATM   10  C   UNL     1      44.841 -19.901   5.194  1.00  0.00     0.033 A 
HETATM   11  C   UNL     1      44.504 -20.368   3.921  1.00  0.00     0.039 A 
HETATM   12  H   UNL     1      45.286 -18.308   7.475  1.00  0.00     0.169 HD
ENDROOT
BRANCH   7  13
HETATM   13  N   UNL     1      42.154 -15.413   3.875  1.00  0.00    -0.242 N 
HETATM   14  C   UNL     1      42.325 -14.419   2.923  1.00  0.00     0.274 C 
HETATM   15  O   UNL     1      43.245 -13.603   2.908  1.00  0.00    -0.266 OA
HETATM   16  H   UNL     1      41.361 -16.034   3.848  1.00  0.00     0.192 HD
BRANCH  14  17
HETATM   17  C   UNL     1      41.355 -14.403   1.791  1.00  0.00     0.068 A 
HETATM   18  C   UNL     1      39.984 -14.556   2.062  1.00  0.00     0.081 A 
HETATM   19  C   UNL     1      39.040 -14.497   1.038  1.00  0.00     0.039 A 
HETATM   20  C   UNL     1      39.453 -14.299  -0.279  1.00  0.00     0.022 A 
HETATM   21  C   UNL     1      40.812 -14.174  -0.560  1.00  0.00     0.012 A 
HETATM   22 BR   UNL     1      41.376 -13.915  -2.346  1.00  0.00    -0.051 Br
HETATM   23  C   UNL     1      41.765 -14.234   0.459  1.00  0.00     0.039 A 
BRANCH  18  24
HETATM   24  O   UNL     1      39.487 -14.762   3.322  1.00  0.00    -0.360 OA
HETATM   25  H   UNL     1      39.925 -14.123   3.932  1.00  0.00     0.217 HD
ENDBRANCH  18  24
ENDBRANCH  14  17
ENDBRANCH   7  13
BRANCH   1  26
HETATM   26  O   UNL     1      43.617 -20.142   1.775  1.00  0.00    -0.356 OA
HETATM   27  C   UNL     1      43.757 -21.556   1.708  1.00  0.00     0.210 C 
ENDBRANCH   1  26
TORSDOF 4
ENDMDL
MODEL 5
REMARK VINA RESULT:      -7.5      1.611      2.254
REMARK  4 active torsions:
REMARK  status: ('A' for Active; 'I' for Inactive)
REMARK    1  A    between atoms: O_2  and  C_3 
REMARK    2  A    between atoms: N_9  and  N_10 
REMARK       I    between atoms: N_10  and  C_11 
REMARK    3  A    between atoms: C_11  and  C_12 
REMARK    4  A    between atoms: C_13  and  O_14 
ROOT
HETATM    1  C   UNL     1      43.923 -18.830   3.159  1.00  0.00     0.069 A 
HETATM    2  C   UNL     1      43.463 -17.724   3.881  1.00  0.00     0.053 A 
HETATM    3  C   UNL     1      43.498 -17.793   5.265  1.00  0.00     0.029 A 
HETATM    4  C   UNL     1      43.105 -16.847   6.322  1.00  0.00     0.157 A 
HETATM    5  C   UNL     1      43.578 -17.486   7.647  1.00  0.00     0.277 A 
HETATM    6  O   UNL     1      43.497 -17.006   8.755  1.00  0.00    -0.266 OA
HETATM    7  N   UNL     1      42.479 -15.714   6.313  1.00  0.00    -0.166 NA
HETATM    8  C   UNL     1      44.045 -18.899   5.920  1.00  0.00     0.048 A 
HETATM    9  N   UNL     1      44.082 -18.717   7.296  1.00  0.00    -0.321 N 
HETATM   10  C   UNL     1      44.514 -19.996   5.230  1.00  0.00     0.033 A 
HETATM   11  C   UNL     1      44.435 -19.957   3.836  1.00  0.00     0.039 A 
HETATM   12  H   UNL     1      44.465 -19.359   7.975  1.00  0.00     0.169 HD
ENDROOT
BRANCH   7  13
HETATM   13  N   UNL     1      41.907 -15.273   5.161  1.00  0.00    -0.242 N 
HETATM   14  C   UNL     1      40.676 -14.636   5.200  1.00  0.00     0.274 C 
HETATM   15  O   UNL     1      40.091 -14.286   6.224  1.00  0.00    -0.266 OA
HETATM   16  H   UNL     1      42.321 -15.560   4.288  1.00  0.00     0.192 HD
BRANCH  14  17
HETATM   17  C   UNL     1      40.064 -14.281   3.888  1.00  0.00     0.068 A 
HETATM   18  C   UNL     1      39.895 -15.285   2.918  1.00  0.00     0.081 A 
HETATM   19  C   UNL     1      39.283 -15.005   1.697  1.00  0.00     0.039 A 
HETATM   20  C   UNL     1      38.840 -13.713   1.419  1.00  0.00     0.022 A 
HETATM   21  C   UNL     1      39.029 -12.706   2.364  1.00  0.00     0.012 A 
HETATM   22 BR   UNL     1      38.439 -10.949   1.986  1.00  0.00    -0.051 Br
HETATM   23  C   UNL     1      39.644 -12.976   3.589  1.00  0.00     0.039 A 
BRANCH  18  24
HETATM   24  O   UNL     1      40.304 -16.579   3.099  1.00  0.00    -0.360 OA
HETATM   25  H   UNL     1      40.685 -16.901   2.249  1.00  0.00     0.217 HD
ENDBRANCH  18  24
ENDBRANCH  14  17
ENDBRANCH   7  13
BRANCH   1  26
HETATM   26  O   UNL     1      43.943 -18.939   1.795  1.00  0.00    -0.356 OA
HETATM   27  C   UNL     1      43.662 -17.767   1.040  1.00  0.00     0.210 C 
ENDBRANCH   1  26
TORSDOF 4
ENDMDL
MODEL 6
REMARK VINA RESULT:      -7.4      1.574      2.124
REMARK  4 active torsions:
REMARK  status: ('A' for Active; 'I' for Inactive)
REMARK    1  A    between atoms: O_2  and  C_3 
REMARK    2  A    between atoms: N_9  and  N_10 
REMARK       I    between atoms: N_10  and  C_11 
REMARK    3  A    between atoms: C_11  and  C_12 
REMARK    4  A    between atoms: C_13  and  O_14 
ROOT
HETATM    1  C   UNL     1      44.066 -19.204   3.760  1.00  0.00     0.069 A 
HETATM    2  C   UNL     1      43.721 -17.997   4.378  1.00  0.00     0.053 A 
HETATM    3  C   UNL     1      43.635 -17.978   5.762  1.00  0.00     0.029 A 
HETATM    4  C   UNL     1      43.306 -16.918   6.728  1.00  0.00     0.157 A 
HETATM    5  C   UNL     1      43.572 -17.529   8.121  1.00  0.00     0.277 A 
HETATM    6  O   UNL     1      43.476 -16.970   9.190  1.00  0.00    -0.266 OA
HETATM    7  N   UNL     1      42.858 -15.709   6.602  1.00  0.00    -0.166 NA
HETATM    8  C   UNL     1      43.958 -19.106   6.520  1.00  0.00     0.048 A 
HETATM    9  N   UNL     1      43.912 -18.841   7.883  1.00  0.00    -0.321 N 
HETATM   10  C   UNL     1      44.311 -20.303   5.935  1.00  0.00     0.033 A 
HETATM   11  C   UNL     1      44.349 -20.345   4.539  1.00  0.00     0.039 A 
HETATM   12  H   UNL     1      44.140 -19.485   8.626  1.00  0.00     0.169 HD
ENDROOT
BRANCH   7  13
HETATM   13  N   UNL     1      42.452 -15.268   5.382  1.00  0.00    -0.242 N 
HETATM   14  C   UNL     1      41.100 -15.226   5.078  1.00  0.00     0.274 C 
HETATM   15  O   UNL     1      40.186 -15.418   5.880  1.00  0.00    -0.266 OA
HETATM   16  H   UNL     1      43.153 -15.130   4.672  1.00  0.00     0.192 HD
BRANCH  14  17
HETATM   17  C   UNL     1      40.738 -14.837   3.685  1.00  0.00     0.068 A 
HETATM   18  C   UNL     1      39.969 -13.680   3.476  1.00  0.00     0.081 A 
HETATM   19  C   UNL     1      39.651 -13.254   2.187  1.00  0.00     0.039 A 
HETATM   20  C   UNL     1      40.085 -13.988   1.084  1.00  0.00     0.022 A 
HETATM   21  C   UNL     1      40.824 -15.152   1.283  1.00  0.00     0.012 A 
HETATM   22 BR   UNL     1      41.406 -16.156  -0.210  1.00  0.00    -0.051 Br
HETATM   23  C   UNL     1      41.145 -15.588   2.571  1.00  0.00     0.039 A 
BRANCH  18  24
HETATM   24  O   UNL     1      39.493 -12.900   4.497  1.00  0.00    -0.360 OA
HETATM   25  H   UNL     1      38.890 -13.453   5.048  1.00  0.00     0.217 HD
ENDBRANCH  18  24
ENDBRANCH  14  17
ENDBRANCH   7  13
BRANCH   1  26
HETATM   26  O   UNL     1      44.177 -19.405   2.411  1.00  0.00    -0.356 OA
HETATM   27  C   UNL     1      43.628 -20.606   1.881  1.00  0.00     0.210 C 
ENDBRANCH   1  26
TORSDOF 4
ENDMDL
MODEL 7
REMARK VINA RESULT:      -7.3      2.364      6.111
REMARK  4 active torsions:
REMARK  status: ('A' for Active; 'I' for Inactive)
REMARK    1  A    between atoms: O_2  and  C_3 
REMARK    2  A    between atoms: N_9  and  N_10 
REMARK       I    between atoms: N_10  and  C_11 
REMARK    3  A    between atoms: C_11  and  C_12 
REMARK    4  A    between atoms: C_13  and  O_14 
ROOT
HETATM    1  C   UNL     1      40.609 -15.273   1.533  1.00  0.00     0.069 A 
HETATM    2  C   UNL     1      40.508 -15.470   2.914  1.00  0.00     0.053 A 
HETATM    3  C   UNL     1      40.129 -14.391   3.698  1.00  0.00     0.029 A 
HETATM    4  C   UNL     1      39.926 -14.232   5.147  1.00  0.00     0.157 A 
HETATM    5  C   UNL     1      39.332 -12.818   5.329  1.00  0.00     0.277 A 
HETATM    6  O   UNL     1      38.968 -12.310   6.366  1.00  0.00    -0.266 OA
HETATM    7  N   UNL     1      40.164 -14.993   6.167  1.00  0.00    -0.166 NA
HETATM    8  C   UNL     1      39.784 -13.166   3.122  1.00  0.00     0.048 A 
HETATM    9  N   UNL     1      39.331 -12.260   4.071  1.00  0.00    -0.321 N 
HETATM   10  C   UNL     1      39.866 -12.950   1.763  1.00  0.00     0.033 A 
HETATM   11  C   UNL     1      40.296 -14.017   0.971  1.00  0.00     0.039 A 
HETATM   12  H   UNL     1      38.991 -11.326   3.893  1.00  0.00     0.169 HD
ENDROOT
BRANCH   7  13
HETATM   13  N   UNL     1      40.863 -16.147   5.993  1.00  0.00    -0.242 N 
HETATM   14  C   UNL     1      42.235 -16.159   6.191  1.00  0.00     0.274 C 
HETATM   15  O   UNL     1      42.892 -15.232   6.664  1.00  0.00    -0.266 OA
HETATM   16  H   UNL     1      40.387 -16.928   5.574  1.00  0.00     0.192 HD
BRANCH  14  17
HETATM   17  C   UNL     1      42.946 -17.431   5.874  1.00  0.00     0.068 A 
HETATM   18  C   UNL     1      43.409 -18.236   6.929  1.00  0.00     0.081 A 
HETATM   19  C   UNL     1      44.034 -19.456   6.678  1.00  0.00     0.039 A 
HETATM   20  C   UNL     1      44.220 -19.887   5.365  1.00  0.00     0.022 A 
HETATM   21  C   UNL     1      43.789 -19.082   4.312  1.00  0.00     0.012 A 
HETATM   22 BR   UNL     1      44.049 -19.656   2.530  1.00  0.00    -0.051 Br
HETATM   23  C   UNL     1      43.164 -17.856   4.555  1.00  0.00     0.039 A 
BRANCH  18  24
HETATM   24  O   UNL     1      43.277 -17.893   8.249  1.00  0.00    -0.360 OA
HETATM   25  H   UNL     1      42.373 -17.522   8.380  1.00  0.00     0.217 HD
ENDBRANCH  18  24
ENDBRANCH  14  17
ENDBRANCH   7  13
BRANCH   1  26
HETATM   26  O   UNL     1      40.986 -16.218   0.618  1.00  0.00    -0.356 OA
HETATM   27  C   UNL     1      41.177 -17.547   1.091  1.00  0.00     0.210 C 
ENDBRANCH   1  26
TORSDOF 4
ENDMDL
MODEL 8
REMARK VINA RESULT:      -7.3      3.241      7.519
REMARK  4 active torsions:
REMARK  status: ('A' for Active; 'I' for Inactive)
REMARK    1  A    between atoms: O_2  and  C_3 
REMARK    2  A    between atoms: N_9  and  N_10 
REMARK       I    between atoms: N_10  and  C_11 
REMARK    3  A    between atoms: C_11  and  C_12 
REMARK    4  A    between atoms: C_13  and  O_14 
ROOT
HETATM    1  C   UNL     1      40.268 -14.359   3.683  1.00  0.00     0.069 A 
HETATM    2  C   UNL     1      40.970 -15.244   2.858  1.00  0.00     0.053 A 
HETATM    3  C   UNL     1      40.722 -15.196   1.495  1.00  0.00     0.029 A 
HETATM    4  C   UNL     1      41.259 -15.955   0.354  1.00  0.00     0.157 A 
HETATM    5  C   UNL     1      40.685 -15.271  -0.906  1.00  0.00     0.277 A 
HETATM    6  O   UNL     1      40.923 -15.555  -2.059  1.00  0.00    -0.266 OA
HETATM    7  N   UNL     1      42.023 -16.996   0.260  1.00  0.00    -0.166 NA
HETATM    8  C   UNL     1      39.855 -14.244   0.952  1.00  0.00     0.048 A 
HETATM    9  N   UNL     1      39.834 -14.298  -0.435  1.00  0.00    -0.321 N 
HETATM   10  C   UNL     1      39.159 -13.356   1.743  1.00  0.00     0.033 A 
HETATM   11  C   UNL     1      39.365 -13.431   3.123  1.00  0.00     0.039 A 
HETATM   12  H   UNL     1      39.314 -13.689  -1.051  1.00  0.00     0.169 HD
ENDROOT
BRANCH   7  13
HETATM   13  N   UNL     1      42.353 -17.689   1.383  1.00  0.00    -0.242 N 
HETATM   14  C   UNL     1      43.674 -17.733   1.804  1.00  0.00     0.274 C 
HETATM   15  O   UNL     1      44.593 -17.066   1.329  1.00  0.00    -0.266 OA
HETATM   16  H   UNL     1      41.652 -18.282   1.796  1.00  0.00     0.192 HD
BRANCH  14  17
HETATM   17  C   UNL     1      43.974 -18.601   2.979  1.00  0.00     0.068 A 
HETATM   18  C   UNL     1      44.074 -19.991   2.793  1.00  0.00     0.081 A 
HETATM   19  C   UNL     1      44.400 -20.833   3.855  1.00  0.00     0.039 A 
HETATM   20  C   UNL     1      44.620 -20.301   5.125  1.00  0.00     0.022 A 
HETATM   21  C   UNL     1      44.495 -18.927   5.323  1.00  0.00     0.012 A 
HETATM   22 BR   UNL     1      44.781 -18.202   7.046  1.00  0.00    -0.051 Br
HETATM   23  C   UNL     1      44.165 -18.075   4.266  1.00  0.00     0.039 A 
BRANCH  18  24
HETATM   24  O   UNL     1      43.869 -20.604   1.586  1.00  0.00    -0.360 OA
HETATM   25  H   UNL     1      43.254 -21.362   1.728  1.00  0.00     0.217 HD
ENDBRANCH  18  24
ENDBRANCH  14  17
ENDBRANCH   7  13
BRANCH   1  26
HETATM   26  O   UNL     1      40.375 -14.284   5.045  1.00  0.00    -0.356 OA
HETATM   27  C   UNL     1      40.808 -15.452   5.733  1.00  0.00     0.210 C 
ENDBRANCH   1  26
TORSDOF 4
ENDMDL
MODEL 9
REMARK VINA RESULT:      -7.3      5.850      8.361
REMARK  4 active torsions:
REMARK  status: ('A' for Active; 'I' for Inactive)
REMARK    1  A    between atoms: O_2  and  C_3 
REMARK    2  A    between atoms: N_9  and  N_10 
REMARK       I    between atoms: N_10  and  C_11 
REMARK    3  A    between atoms: C_11  and  C_12 
REMARK    4  A    between atoms: C_13  and  O_14 
ROOT
HETATM    1  C   UNL     1      44.355 -10.932   9.799  1.00  0.00     0.069 A 
HETATM    2  C   UNL     1      43.016 -10.943   9.395  1.00  0.00     0.053 A 
HETATM    3  C   UNL     1      42.044 -10.755  10.365  1.00  0.00     0.029 A 
HETATM    4  C   UNL     1      40.574 -10.708  10.310  1.00  0.00     0.157 A 
HETATM    5  C   UNL     1      40.120 -10.284  11.724  1.00  0.00     0.277 A 
HETATM    6  O   UNL     1      38.985 -10.076  12.091  1.00  0.00    -0.266 OA
HETATM    7  N   UNL     1      39.711 -10.961   9.379  1.00  0.00    -0.166 NA
HETATM    8  C   UNL     1      42.390 -10.487  11.691  1.00  0.00     0.048 A 
HETATM    9  N   UNL     1      41.273 -10.222  12.472  1.00  0.00    -0.321 N 
HETATM   10  C   UNL     1      43.702 -10.460  12.112  1.00  0.00     0.033 A 
HETATM   11  C   UNL     1      44.687 -10.700  11.150  1.00  0.00     0.039 A 
HETATM   12  H   UNL     1      41.271  -9.967  13.449  1.00  0.00     0.169 HD
ENDROOT
BRANCH   7  13
HETATM   13  N   UNL     1      40.130 -11.516   8.210  1.00  0.00    -0.242 N 
HETATM   14  C   UNL     1      39.666 -11.014   7.003  1.00  0.00     0.274 C 
HETATM   15  O   UNL     1      39.001  -9.988   6.869  1.00  0.00    -0.266 OA
HETATM   16  H   UNL     1      40.646 -12.379   8.254  1.00  0.00     0.192 HD
BRANCH  14  17
HETATM   17  C   UNL     1      40.083 -11.743   5.770  1.00  0.00     0.068 A 
HETATM   18  C   UNL     1      39.199 -11.805   4.680  1.00  0.00     0.081 A 
HETATM   19  C   UNL     1      39.568 -12.434   3.492  1.00  0.00     0.039 A 
HETATM   20  C   UNL     1      40.825 -13.026   3.379  1.00  0.00     0.022 A 
HETATM   21  C   UNL     1      41.698 -12.994   4.465  1.00  0.00     0.012 A 
HETATM   22 BR   UNL     1      43.400 -13.805   4.320  1.00  0.00    -0.051 Br
HETATM   23  C   UNL     1      41.335 -12.368   5.660  1.00  0.00     0.039 A 
BRANCH  18  24
HETATM   24  O   UNL     1      37.942 -11.259   4.701  1.00  0.00    -0.360 OA
HETATM   25  H   UNL     1      37.378 -11.766   4.071  1.00  0.00     0.217 HD
ENDBRANCH  18  24
ENDBRANCH  14  17
ENDBRANCH   7  13
BRANCH   1  26
HETATM   26  O   UNL     1      45.436 -11.120   8.981  1.00  0.00    -0.356 OA
HETATM   27  C   UNL     1      45.745 -12.456   8.600  1.00  0.00     0.210 C 
ENDBRANCH   1  26
TORSDOF 4
ENDMDL
MODEL 10
REMARK VINA RESULT:      -7.2      2.248      2.530
REMARK  4 active torsions:
REMARK  status: ('A' for Active; 'I' for Inactive)
REMARK    1  A    between atoms: O_2  and  C_3 
REMARK    2  A    between atoms: N_9  and  N_10 
REMARK       I    between atoms: N_10  and  C_11 
REMARK    3  A    between atoms: C_11  and  C_12 
REMARK    4  A    between atoms: C_13  and  O_14 
ROOT
HETATM    1  C   UNL     1      43.779 -18.279   2.396  1.00  0.00     0.069 A 
HETATM    2  C   UNL     1      43.590 -17.517   3.553  1.00  0.00     0.053 A 
HETATM    3  C   UNL     1      43.756 -18.145   4.778  1.00  0.00     0.029 A 
HETATM    4  C   UNL     1      43.641 -17.672   6.167  1.00  0.00     0.157 A 
HETATM    5  C   UNL     1      44.133 -18.842   7.046  1.00  0.00     0.277 A 
HETATM    6  O   UNL     1      44.250 -18.847   8.251  1.00  0.00    -0.266 OA
HETATM    7  N   UNL     1      43.217 -16.569   6.698  1.00  0.00    -0.166 NA
HETATM    8  C   UNL     1      44.173 -19.476   4.856  1.00  0.00     0.048 A 
HETATM    9  N   UNL     1      44.383 -19.874   6.170  1.00  0.00    -0.321 N 
HETATM   10  C   UNL     1      44.376 -20.244   3.730  1.00  0.00     0.033 A 
HETATM   11  C   UNL     1      44.161 -19.634   2.492  1.00  0.00     0.039 A 
HETATM   12  H   UNL     1      44.720 -20.775   6.476  1.00  0.00     0.169 HD
ENDROOT
BRANCH   7  13
HETATM   13  N   UNL     1      42.612 -15.637   5.914  1.00  0.00    -0.242 N 
HETATM   14  C   UNL     1      43.224 -14.411   5.702  1.00  0.00     0.274 C 
HETATM   15  O   UNL     1      44.369 -14.121   6.045  1.00  0.00    -0.266 OA
HETATM   16  H   UNL     1      41.659 -15.802   5.633  1.00  0.00     0.192 HD
BRANCH  14  17
HETATM   17  C   UNL     1      42.450 -13.402   4.923  1.00  0.00     0.068 A 
HETATM   18  C   UNL     1      42.669 -13.291   3.540  1.00  0.00     0.081 A 
HETATM   19  C   UNL     1      41.932 -12.394   2.767  1.00  0.00     0.039 A 
HETATM   20  C   UNL     1      40.971 -11.583   3.369  1.00  0.00     0.022 A 
HETATM   21  C   UNL     1      40.766 -11.667   4.744  1.00  0.00     0.012 A 
HETATM   22 BR   UNL     1      39.471 -10.562   5.566  1.00  0.00    -0.051 Br
HETATM   23  C   UNL     1      41.502 -12.561   5.527  1.00  0.00     0.039 A 
BRANCH  18  24
HETATM   24  O   UNL     1      43.596 -14.039   2.864  1.00  0.00    -0.360 OA
HETATM   25  H   UNL     1      43.344 -14.989   2.950  1.00  0.00     0.217 HD
ENDBRANCH  18  24
ENDBRANCH  14  17
ENDBRANCH   7  13
BRANCH   1  26
HETATM   26  O   UNL     1      43.638 -17.827   1.112  1.00  0.00    -0.356 OA
HETATM   27  C   UNL     1      42.665 -16.815   0.877  1.00  0.00     0.210 C 
ENDBRANCH   1  26
TORSDOF 4
ENDMDL
