MODEL 1
REMARK VINA RESULT:      -9.5      0.000      0.000
REMARK  6 active torsions:
REMARK  status: ('A' for Active; 'I' for Inactive)
REMARK    1  A    between atoms: C_3  and  C_4 
REMARK    2  A    between atoms: C_4  and  C_5 
REMARK       I    between atoms: C_5  and  N_6 
REMARK    3  A    between atoms: N_6  and  C_7 
REMARK    4  A    between atoms: C_7  and  C_8 
REMARK    5  A    between atoms: C_8  and  C_9 
REMARK    6  A    between atoms: C_27  and  O_28 
ROOT
HETATM    1  C   UNL     1      43.877 -14.118   6.114  1.00  0.00     0.222 C 
HETATM    2  N   UNL     1      43.853 -13.848   7.470  1.00  0.00    -0.360 N 
HETATM    3  O   UNL     1      44.717 -13.682   5.335  1.00  0.00    -0.273 OA
HETATM    4  H   UNL     1      43.375 -14.545   8.029  1.00  0.00     0.162 HD
ENDROOT
BRANCH   1   5
HETATM    5  C   UNL     1      42.736 -15.035   5.661  1.00  0.00     0.148 C 
BRANCH   5   6
HETATM    6  C   UNL     1      43.133 -16.486   5.498  1.00  0.00     0.033 C 
HETATM    7  C   UNL     1      43.374 -17.090   4.311  1.00  0.00    -0.036 C 
HETATM    8  C   UNL     1      43.237 -16.410   2.973  1.00  0.00     0.050 C 
HETATM    9  C   UNL     1      43.781 -18.511   4.311  1.00  0.00     0.006 A 
HETATM   10  C   UNL     1      44.118 -19.107   5.527  1.00  0.00     0.093 A 
HETATM   11  C   UNL     1      43.879 -19.299   3.156  1.00  0.00     0.041 A 
HETATM   12  O   UNL     1      43.954 -18.426   6.739  1.00  0.00    -0.274 OA
HETATM   13  C   UNL     1      44.581 -20.422   5.618  1.00  0.00     0.076 A 
HETATM   14  C   UNL     1      43.167 -17.293   6.749  1.00  0.00     0.295 C 
HETATM   15  O   UNL     1      42.532 -16.966   7.746  1.00  0.00    -0.259 OA
HETATM   16  C   UNL     1      44.676 -21.184   4.461  1.00  0.00     0.090 A 
HETATM   17  C   UNL     1      44.313 -20.629   3.231  1.00  0.00     0.068 A 
HETATM   18 CL   UNL     1      44.381 -21.553   1.774  1.00  0.00    -0.081 Cl
BRANCH  16  19
HETATM   19  O   UNL     1      45.110 -22.478   4.528  1.00  0.00    -0.359 OA
HETATM   20  H   UNL     1      44.800 -22.885   5.355  1.00  0.00     0.218 HD
ENDBRANCH  16  19
ENDBRANCH   5   6
ENDBRANCH   1   5
BRANCH   2  21
HETATM   21  C   UNL     1      44.990 -13.238   8.134  1.00  0.00     0.127 C 
BRANCH  21  22
HETATM   22  C   UNL     1      44.708 -11.860   8.737  1.00  0.00     0.060 C 
BRANCH  22  23
HETATM   23  C   UNL     1      44.242 -11.987  10.157  1.00  0.00    -0.029 A 
HETATM   24  C   UNL     1      43.365 -11.096  10.858  1.00  0.00    -0.000 A 
HETATM   25  C   UNL     1      43.146 -11.636  12.126  1.00  0.00     0.043 A 
HETATM   26  C   UNL     1      42.724  -9.885  10.523  1.00  0.00     0.038 A 
HETATM   27  C   UNL     1      42.312 -11.034  13.077  1.00  0.00     0.032 A 
HETATM   28  N   UNL     1      43.876 -12.800  12.201  1.00  0.00    -0.365 N 
HETATM   29  C   UNL     1      41.689  -9.833  12.722  1.00  0.00     0.026 A 
HETATM   30  C   UNL     1      41.895  -9.270  11.466  1.00  0.00     0.035 A 
HETATM   31 CL   UNL     1      41.114  -7.787  11.064  1.00  0.00    -0.084 Cl
HETATM   32  H   UNL     1      43.905 -13.408  13.007  1.00  0.00     0.165 HD
HETATM   33  C   UNL     1      44.539 -13.019  11.026  1.00  0.00     0.096 A 
ENDBRANCH  22  23
ENDBRANCH  21  22
ENDBRANCH   2  21
TORSDOF 6
ENDMDL
MODEL 2
REMARK VINA RESULT:      -9.5      5.393      8.118
REMARK  6 active torsions:
REMARK  status: ('A' for Active; 'I' for Inactive)
REMARK    1  A    between atoms: C_3  and  C_4 
REMARK    2  A    between atoms: C_4  and  C_5 
REMARK       I    between atoms: C_5  and  N_6 
REMARK    3  A    between atoms: N_6  and  C_7 
REMARK    4  A    between atoms: C_7  and  C_8 
REMARK    5  A    between atoms: C_8  and  C_9 
REMARK    6  A    between atoms: C_27  and  O_28 
ROOT
HETATM    1  C   UNL     1      42.096 -15.219   4.979  1.00  0.00     0.222 C 
HETATM    2  N   UNL     1      42.314 -14.006   4.353  1.00  0.00    -0.360 N 
HETATM    3  O   UNL     1      41.023 -15.810   4.990  1.00  0.00    -0.273 OA
HETATM    4  H   UNL     1      43.278 -13.833   4.095  1.00  0.00     0.162 HD
ENDROOT
BRANCH   1   5
HETATM    5  C   UNL     1      43.345 -15.774   5.670  1.00  0.00     0.148 C 
BRANCH   5   6
HETATM    6  C   UNL     1      43.599 -17.243   5.408  1.00  0.00     0.033 C 
HETATM    7  C   UNL     1      43.795 -17.784   4.183  1.00  0.00    -0.036 C 
HETATM    8  C   UNL     1      43.743 -17.003   2.895  1.00  0.00     0.050 C 
HETATM    9  C   UNL     1      44.060 -19.235   4.086  1.00  0.00     0.006 A 
HETATM   10  C   UNL     1      44.320 -19.944   5.259  1.00  0.00     0.093 A 
HETATM   11  C   UNL     1      44.094 -19.947   2.879  1.00  0.00     0.041 A 
HETATM   12  O   UNL     1      44.209 -19.337   6.515  1.00  0.00    -0.274 OA
HETATM   13  C   UNL     1      44.650 -21.302   5.261  1.00  0.00     0.076 A 
HETATM   14  C   UNL     1      43.537 -18.134   6.599  1.00  0.00     0.295 C 
HETATM   15  O   UNL     1      42.925 -17.815   7.613  1.00  0.00    -0.259 OA
HETATM   16  C   UNL     1      44.684 -21.988   4.053  1.00  0.00     0.090 A 
HETATM   17  C   UNL     1      44.394 -21.316   2.863  1.00  0.00     0.068 A 
HETATM   18 CL   UNL     1      44.390 -22.139   1.345  1.00  0.00    -0.081 Cl
BRANCH  16  19
HETATM   19  O   UNL     1      44.988 -23.321   4.032  1.00  0.00    -0.359 OA
HETATM   20  H   UNL     1      45.509 -23.525   3.238  1.00  0.00     0.218 HD
ENDBRANCH  16  19
ENDBRANCH   5   6
ENDBRANCH   1   5
BRANCH   2  21
HETATM   21  C   UNL     1      41.346 -13.459   3.419  1.00  0.00     0.127 C 
BRANCH  21  22
HETATM   22  C   UNL     1      41.915 -13.128   2.038  1.00  0.00     0.060 C 
BRANCH  22  23
HETATM   23  C   UNL     1      41.443 -14.120   1.016  1.00  0.00    -0.029 A 
HETATM   24  C   UNL     1      41.522 -13.992  -0.409  1.00  0.00    -0.000 A 
HETATM   25  C   UNL     1      41.032 -15.176  -0.963  1.00  0.00     0.043 A 
HETATM   26  C   UNL     1      41.981 -12.981  -1.280  1.00  0.00     0.038 A 
HETATM   27  C   UNL     1      40.984 -15.407  -2.344  1.00  0.00     0.032 A 
HETATM   28  N   UNL     1      40.651 -15.983   0.083  1.00  0.00    -0.365 N 
HETATM   29  C   UNL     1      41.443 -14.390  -3.186  1.00  0.00     0.026 A 
HETATM   30  C   UNL     1      41.931 -13.198  -2.660  1.00  0.00     0.035 A 
HETATM   31 CL   UNL     1      42.486 -11.964  -3.728  1.00  0.00    -0.084 Cl
HETATM   32  H   UNL     1      40.262 -16.910  -0.021  1.00  0.00     0.165 HD
HETATM   33  C   UNL     1      40.892 -15.359   1.275  1.00  0.00     0.096 A 
ENDBRANCH  22  23
ENDBRANCH  21  22
ENDBRANCH   2  21
TORSDOF 6
ENDMDL
MODEL 3
REMARK VINA RESULT:      -9.5      4.635      6.748
REMARK  6 active torsions:
REMARK  status: ('A' for Active; 'I' for Inactive)
REMARK    1  A    between atoms: C_3  and  C_4 
REMARK    2  A    between atoms: C_4  and  C_5 
REMARK       I    between atoms: C_5  and  N_6 
REMARK    3  A    between atoms: N_6  and  C_7 
REMARK    4  A    between atoms: C_7  and  C_8 
REMARK    5  A    between atoms: C_8  and  C_9 
REMARK    6  A    between atoms: C_27  and  O_28 
ROOT
HETATM    1  C   UNL     1      42.116 -15.574   5.990  1.00  0.00     0.222 C 
HETATM    2  N   UNL     1      42.007 -14.196   5.965  1.00  0.00    -0.360 N 
HETATM    3  O   UNL     1      41.169 -16.347   5.901  1.00  0.00    -0.273 OA
HETATM    4  H   UNL     1      42.845 -13.713   5.664  1.00  0.00     0.162 HD
ENDROOT
BRANCH   1   5
HETATM    5  C   UNL     1      43.560 -16.063   6.140  1.00  0.00     0.148 C 
BRANCH   5   6
HETATM    6  C   UNL     1      43.775 -17.502   5.725  1.00  0.00     0.033 C 
HETATM    7  C   UNL     1      43.840 -17.932   4.444  1.00  0.00    -0.036 C 
HETATM    8  C   UNL     1      43.660 -17.041   3.242  1.00  0.00     0.050 C 
HETATM    9  C   UNL     1      44.083 -19.369   4.192  1.00  0.00     0.006 A 
HETATM   10  C   UNL     1      44.459 -20.178   5.265  1.00  0.00     0.093 A 
HETATM   11  C   UNL     1      43.988 -19.971   2.930  1.00  0.00     0.041 A 
HETATM   12  O   UNL     1      44.482 -19.684   6.574  1.00  0.00    -0.274 OA
HETATM   13  C   UNL     1      44.778 -21.530   5.113  1.00  0.00     0.076 A 
HETATM   14  C   UNL     1      43.831 -18.494   6.833  1.00  0.00     0.295 C 
HETATM   15  O   UNL     1      43.329 -18.268   7.929  1.00  0.00    -0.259 OA
HETATM   16  C   UNL     1      44.682 -22.106   3.852  1.00  0.00     0.090 A 
HETATM   17  C   UNL     1      44.275 -21.333   2.763  1.00  0.00     0.068 A 
HETATM   18 CL   UNL     1      44.108 -22.019   1.187  1.00  0.00    -0.081 Cl
BRANCH  16  19
HETATM   19  O   UNL     1      44.972 -23.431   3.683  1.00  0.00    -0.359 OA
HETATM   20  H   UNL     1      45.907 -23.591   3.897  1.00  0.00     0.218 HD
ENDBRANCH  16  19
ENDBRANCH   5   6
ENDBRANCH   1   5
BRANCH   2  21
HETATM   21  C   UNL     1      40.774 -13.549   5.555  1.00  0.00     0.127 C 
BRANCH  21  22
HETATM   22  C   UNL     1      40.819 -12.928   4.156  1.00  0.00     0.060 C 
BRANCH  22  23
HETATM   23  C   UNL     1      39.961 -13.704   3.202  1.00  0.00    -0.029 A 
HETATM   24  C   UNL     1      38.938 -13.182   2.344  1.00  0.00    -0.000 A 
HETATM   25  C   UNL     1      38.450 -14.244   1.581  1.00  0.00     0.043 A 
HETATM   26  C   UNL     1      38.394 -11.897   2.135  1.00  0.00     0.038 A 
HETATM   27  C   UNL     1      37.450 -14.088   0.613  1.00  0.00     0.032 A 
HETATM   28  N   UNL     1      39.134 -15.371   1.974  1.00  0.00    -0.365 N 
HETATM   29  C   UNL     1      36.925 -12.806   0.425  1.00  0.00     0.026 A 
HETATM   30  C   UNL     1      37.391 -11.731   1.176  1.00  0.00     0.035 A 
HETATM   31 CL   UNL     1      36.719 -10.164   0.920  1.00  0.00    -0.084 Cl
HETATM   32  H   UNL     1      38.990 -16.293   1.586  1.00  0.00     0.165 HD
HETATM   33  C   UNL     1      40.041 -15.059   2.948  1.00  0.00     0.096 A 
ENDBRANCH  22  23
ENDBRANCH  21  22
ENDBRANCH   2  21
TORSDOF 6
ENDMDL
MODEL 4
REMARK VINA RESULT:      -9.4      5.355      8.768
REMARK  6 active torsions:
REMARK  status: ('A' for Active; 'I' for Inactive)
REMARK    1  A    between atoms: C_3  and  C_4 
REMARK    2  A    between atoms: C_4  and  C_5 
REMARK       I    between atoms: C_5  and  N_6 
REMARK    3  A    between atoms: N_6  and  C_7 
REMARK    4  A    between atoms: C_7  and  C_8 
REMARK    5  A    between atoms: C_8  and  C_9 
REMARK    6  A    between atoms: C_27  and  O_28 
ROOT
HETATM    1  C   UNL     1      41.228 -15.293   4.867  1.00  0.00     0.222 C 
HETATM    2  N   UNL     1      42.332 -15.057   5.666  1.00  0.00    -0.360 N 
HETATM    3  O   UNL     1      40.712 -16.393   4.706  1.00  0.00    -0.273 OA
HETATM    4  H   UNL     1      42.408 -14.106   6.007  1.00  0.00     0.162 HD
ENDROOT
BRANCH   1   5
HETATM    5  C   UNL     1      40.693 -14.029   4.188  1.00  0.00     0.148 C 
BRANCH   5   6
HETATM    6  C   UNL     1      41.073 -13.898   2.730  1.00  0.00     0.033 C 
HETATM    7  C   UNL     1      40.345 -14.383   1.697  1.00  0.00    -0.036 C 
HETATM    8  C   UNL     1      39.066 -15.165   1.858  1.00  0.00     0.050 C 
HETATM    9  C   UNL     1      40.830 -14.155   0.320  1.00  0.00     0.006 A 
HETATM   10  C   UNL     1      41.887 -13.265   0.126  1.00  0.00     0.093 A 
HETATM   11  C   UNL     1      40.276 -14.757  -0.818  1.00  0.00     0.041 A 
HETATM   12  O   UNL     1      42.566 -12.695   1.211  1.00  0.00    -0.274 OA
HETATM   13  C   UNL     1      42.368 -12.931  -1.143  1.00  0.00     0.076 A 
HETATM   14  C   UNL     1      42.391 -13.260   2.457  1.00  0.00     0.295 C 
HETATM   15  O   UNL     1      43.280 -13.230   3.301  1.00  0.00    -0.259 OA
HETATM   16  C   UNL     1      41.801 -13.535  -2.258  1.00  0.00     0.090 A 
HETATM   17  C   UNL     1      40.764 -14.458  -2.097  1.00  0.00     0.068 A 
HETATM   18 CL   UNL     1      40.057 -15.259  -3.453  1.00  0.00    -0.081 Cl
BRANCH  16  19
HETATM   19  O   UNL     1      42.267 -13.237  -3.507  1.00  0.00    -0.359 OA
HETATM   20  H   UNL     1      42.596 -14.045  -3.935  1.00  0.00     0.218 HD
ENDBRANCH  16  19
ENDBRANCH   5   6
ENDBRANCH   1   5
BRANCH   2  21
HETATM   21  C   UNL     1      42.809 -16.059   6.602  1.00  0.00     0.127 C 
BRANCH  21  22
HETATM   22  C   UNL     1      44.248 -16.520   6.358  1.00  0.00     0.060 C 
BRANCH  22  23
HETATM   23  C   UNL     1      44.270 -17.875   5.714  1.00  0.00    -0.029 A 
HETATM   24  C   UNL     1      43.999 -18.180   4.340  1.00  0.00    -0.000 A 
HETATM   25  C   UNL     1      44.205 -19.549   4.167  1.00  0.00     0.043 A 
HETATM   26  C   UNL     1      43.612 -17.411   3.222  1.00  0.00     0.038 A 
HETATM   27  C   UNL     1      44.052 -20.192   2.932  1.00  0.00     0.032 A 
HETATM   28  N   UNL     1      44.567 -20.060   5.392  1.00  0.00    -0.365 N 
HETATM   29  C   UNL     1      43.666 -19.410   1.840  1.00  0.00     0.026 A 
HETATM   30  C   UNL     1      43.449 -18.043   1.986  1.00  0.00     0.035 A 
HETATM   31 CL   UNL     1      42.971 -17.109   0.618  1.00  0.00    -0.084 Cl
HETATM   32  H   UNL     1      44.784 -21.032   5.566  1.00  0.00     0.165 HD
HETATM   33  C   UNL     1      44.608 -19.065   6.328  1.00  0.00     0.096 A 
ENDBRANCH  22  23
ENDBRANCH  21  22
ENDBRANCH   2  21
TORSDOF 6
ENDMDL
MODEL 5
REMARK VINA RESULT:      -9.3      6.165      9.409
REMARK  6 active torsions:
REMARK  status: ('A' for Active; 'I' for Inactive)
REMARK    1  A    between atoms: C_3  and  C_4 
REMARK    2  A    between atoms: C_4  and  C_5 
REMARK       I    between atoms: C_5  and  N_6 
REMARK    3  A    between atoms: N_6  and  C_7 
REMARK    4  A    between atoms: C_7  and  C_8 
REMARK    5  A    between atoms: C_8  and  C_9 
REMARK    6  A    between atoms: C_27  and  O_28 
ROOT
HETATM    1  C   UNL     1      41.181 -14.675   2.740  1.00  0.00     0.222 C 
HETATM    2  N   UNL     1      40.841 -13.439   2.220  1.00  0.00    -0.360 N 
HETATM    3  O   UNL     1      40.412 -15.625   2.830  1.00  0.00    -0.273 OA
HETATM    4  H   UNL     1      41.623 -12.906   1.858  1.00  0.00     0.162 HD
ENDROOT
BRANCH   1   5
HETATM    5  C   UNL     1      42.640 -14.755   3.201  1.00  0.00     0.148 C 
BRANCH   5   6
HETATM    6  C   UNL     1      43.092 -16.145   3.592  1.00  0.00     0.033 C 
HETATM    7  C   UNL     1      43.396 -17.131   2.717  1.00  0.00    -0.036 C 
HETATM    8  C   UNL     1      43.284 -16.997   1.220  1.00  0.00     0.050 C 
HETATM    9  C   UNL     1      43.852 -18.433   3.249  1.00  0.00     0.006 A 
HETATM   10  C   UNL     1      44.165 -18.524   4.605  1.00  0.00     0.093 A 
HETATM   11  C   UNL     1      44.018 -19.585   2.468  1.00  0.00     0.041 A 
HETATM   12  O   UNL     1      43.935 -17.454   5.478  1.00  0.00    -0.274 OA
HETATM   13  C   UNL     1      44.670 -19.692   5.185  1.00  0.00     0.076 A 
HETATM   14  C   UNL     1      43.109 -16.433   5.053  1.00  0.00     0.295 C 
HETATM   15  O   UNL     1      42.428 -15.792   5.846  1.00  0.00    -0.259 OA
HETATM   16  C   UNL     1      44.832 -20.821   4.392  1.00  0.00     0.090 A 
HETATM   17  C   UNL     1      44.495 -20.774   3.036  1.00  0.00     0.068 A 
HETATM   18 CL   UNL     1      44.647 -22.164   2.024  1.00  0.00    -0.081 Cl
BRANCH  16  19
HETATM   19  O   UNL     1      45.308 -21.978   4.940  1.00  0.00    -0.359 OA
HETATM   20  H   UNL     1      44.681 -22.702   4.773  1.00  0.00     0.218 HD
ENDBRANCH  16  19
ENDBRANCH   5   6
ENDBRANCH   1   5
BRANCH   2  21
HETATM   21  C   UNL     1      39.605 -13.250   1.482  1.00  0.00     0.127 C 
BRANCH  21  22
HETATM   22  C   UNL     1      39.792 -12.722   0.058  1.00  0.00     0.060 C 
BRANCH  22  23
HETATM   23  C   UNL     1      40.217 -13.825  -0.866  1.00  0.00    -0.029 A 
HETATM   24  C   UNL     1      39.466 -14.370  -1.959  1.00  0.00    -0.000 A 
HETATM   25  C   UNL     1      40.271 -15.322  -2.586  1.00  0.00     0.043 A 
HETATM   26  C   UNL     1      38.178 -14.128  -2.481  1.00  0.00     0.038 A 
HETATM   27  C   UNL     1      39.859 -16.041  -3.715  1.00  0.00     0.032 A 
HETATM   28  N   UNL     1      41.456 -15.369  -1.890  1.00  0.00    -0.365 N 
HETATM   29  C   UNL     1      38.579 -15.785  -4.214  1.00  0.00     0.026 A 
HETATM   30  C   UNL     1      37.753 -14.845  -3.604  1.00  0.00     0.035 A 
HETATM   31 CL   UNL     1      36.179 -14.556  -4.244  1.00  0.00    -0.084 Cl
HETATM   32  H   UNL     1      42.234 -15.971  -2.124  1.00  0.00     0.165 HD
HETATM   33  C   UNL     1      41.434 -14.476  -0.855  1.00  0.00     0.096 A 
ENDBRANCH  22  23
ENDBRANCH  21  22
ENDBRANCH   2  21
TORSDOF 6
ENDMDL
MODEL 6
REMARK VINA RESULT:      -9.2      4.715      6.646
REMARK  6 active torsions:
REMARK  status: ('A' for Active; 'I' for Inactive)
REMARK    1  A    between atoms: C_3  and  C_4 
REMARK    2  A    between atoms: C_4  and  C_5 
REMARK       I    between atoms: C_5  and  N_6 
REMARK    3  A    between atoms: N_6  and  C_7 
REMARK    4  A    between atoms: C_7  and  C_8 
REMARK    5  A    between atoms: C_8  and  C_9 
REMARK    6  A    between atoms: C_27  and  O_28 
ROOT
HETATM    1  C   UNL     1      42.030 -15.436   5.828  1.00  0.00     0.222 C 
HETATM    2  N   UNL     1      41.860 -14.093   6.114  1.00  0.00    -0.360 N 
HETATM    3  O   UNL     1      41.116 -16.210   5.569  1.00  0.00    -0.273 OA
HETATM    4  H   UNL     1      42.673 -13.518   5.928  1.00  0.00     0.162 HD
ENDROOT
BRANCH   1   5
HETATM    5  C   UNL     1      43.496 -15.879   5.862  1.00  0.00     0.148 C 
BRANCH   5   6
HETATM    6  C   UNL     1      43.712 -17.335   5.514  1.00  0.00     0.033 C 
HETATM    7  C   UNL     1      43.797 -17.822   4.254  1.00  0.00    -0.036 C 
HETATM    8  C   UNL     1      43.643 -16.984   3.011  1.00  0.00     0.050 C 
HETATM    9  C   UNL     1      44.039 -19.269   4.070  1.00  0.00     0.006 A 
HETATM   10  C   UNL     1      44.392 -20.032   5.184  1.00  0.00     0.093 A 
HETATM   11  C   UNL     1      43.964 -19.926   2.834  1.00  0.00     0.041 A 
HETATM   12  O   UNL     1      44.395 -19.481   6.471  1.00  0.00    -0.274 OA
HETATM   13  C   UNL     1      44.709 -21.390   5.097  1.00  0.00     0.076 A 
HETATM   14  C   UNL     1      43.745 -18.279   6.666  1.00  0.00     0.295 C 
HETATM   15  O   UNL     1      43.224 -18.003   7.741  1.00  0.00    -0.259 OA
HETATM   16  C   UNL     1      44.633 -22.021   3.861  1.00  0.00     0.090 A 
HETATM   17  C   UNL     1      44.248 -21.295   2.732  1.00  0.00     0.068 A 
HETATM   18 CL   UNL     1      44.106 -22.049   1.185  1.00  0.00    -0.081 Cl
BRANCH  16  19
HETATM   19  O   UNL     1      44.920 -23.353   3.756  1.00  0.00    -0.359 OA
HETATM   20  H   UNL     1      44.710 -23.663   2.859  1.00  0.00     0.218 HD
ENDBRANCH  16  19
ENDBRANCH   5   6
ENDBRANCH   1   5
BRANCH   2  21
HETATM   21  C   UNL     1      40.595 -13.427   5.861  1.00  0.00     0.127 C 
BRANCH  21  22
HETATM   22  C   UNL     1      40.717 -12.105   5.100  1.00  0.00     0.060 C 
BRANCH  22  23
HETATM   23  C   UNL     1      39.701 -12.029   3.999  1.00  0.00    -0.029 A 
HETATM   24  C   UNL     1      39.634 -12.857   2.831  1.00  0.00    -0.000 A 
HETATM   25  C   UNL     1      38.492 -12.485   2.120  1.00  0.00     0.043 A 
HETATM   26  C   UNL     1      40.434 -13.901   2.321  1.00  0.00     0.038 A 
HETATM   27  C   UNL     1      38.101 -13.108   0.928  1.00  0.00     0.032 A 
HETATM   28  N   UNL     1      37.899 -11.459   2.818  1.00  0.00    -0.365 N 
HETATM   29  C   UNL     1      38.911 -14.139   0.441  1.00  0.00     0.026 A 
HETATM   30  C   UNL     1      40.059 -14.525   1.128  1.00  0.00     0.035 A 
HETATM   31 CL   UNL     1      41.035 -15.798   0.498  1.00  0.00    -0.084 Cl
HETATM   32  H   UNL     1      37.047 -10.993   2.538  1.00  0.00     0.165 HD
HETATM   33  C   UNL     1      38.616 -11.176   3.946  1.00  0.00     0.096 A 
ENDBRANCH  22  23
ENDBRANCH  21  22
ENDBRANCH   2  21
TORSDOF 6
ENDMDL
MODEL 7
REMARK VINA RESULT:      -9.1      2.321      2.983
REMARK  6 active torsions:
REMARK  status: ('A' for Active; 'I' for Inactive)
REMARK    1  A    between atoms: C_3  and  C_4 
REMARK    2  A    between atoms: C_4  and  C_5 
REMARK       I    between atoms: C_5  and  N_6 
REMARK    3  A    between atoms: N_6  and  C_7 
REMARK    4  A    between atoms: C_7  and  C_8 
REMARK    5  A    between atoms: C_8  and  C_9 
REMARK    6  A    between atoms: C_27  and  O_28 
ROOT
HETATM    1  C   UNL     1      42.347 -15.413   6.109  1.00  0.00     0.222 C 
HETATM    2  N   UNL     1      42.273 -14.032   6.105  1.00  0.00    -0.360 N 
HETATM    3  O   UNL     1      41.376 -16.159   6.066  1.00  0.00    -0.273 OA
HETATM    4  H   UNL     1      43.105 -13.567   5.761  1.00  0.00     0.162 HD
ENDROOT
BRANCH   1   5
HETATM    5  C   UNL     1      43.784 -15.939   6.171  1.00  0.00     0.148 C 
BRANCH   5   6
HETATM    6  C   UNL     1      43.932 -17.388   5.761  1.00  0.00     0.033 C 
HETATM    7  C   UNL     1      43.953 -17.828   4.481  1.00  0.00    -0.036 C 
HETATM    8  C   UNL     1      43.786 -16.936   3.277  1.00  0.00     0.050 C 
HETATM    9  C   UNL     1      44.133 -19.274   4.233  1.00  0.00     0.006 A 
HETATM   10  C   UNL     1      44.498 -20.092   5.303  1.00  0.00     0.093 A 
HETATM   11  C   UNL     1      43.989 -19.879   2.977  1.00  0.00     0.041 A 
HETATM   12  O   UNL     1      44.568 -19.592   6.609  1.00  0.00    -0.274 OA
HETATM   13  C   UNL     1      44.759 -21.457   5.153  1.00  0.00     0.076 A 
HETATM   14  C   UNL     1      43.971 -18.377   6.874  1.00  0.00     0.295 C 
HETATM   15  O   UNL     1      43.501 -18.124   7.978  1.00  0.00    -0.259 OA
HETATM   16  C   UNL     1      44.615 -22.035   3.898  1.00  0.00     0.090 A 
HETATM   17  C   UNL     1      44.217 -21.252   2.812  1.00  0.00     0.068 A 
HETATM   18 CL   UNL     1      43.991 -21.939   1.244  1.00  0.00    -0.081 Cl
BRANCH  16  19
HETATM   19  O   UNL     1      44.848 -23.372   3.732  1.00  0.00    -0.359 OA
HETATM   20  H   UNL     1      45.802 -23.527   3.630  1.00  0.00     0.218 HD
ENDBRANCH  16  19
ENDBRANCH   5   6
ENDBRANCH   1   5
BRANCH   2  21
HETATM   21  C   UNL     1      41.036 -13.348   5.771  1.00  0.00     0.127 C 
BRANCH  21  22
HETATM   22  C   UNL     1      41.125 -11.821   5.812  1.00  0.00     0.060 C 
BRANCH  22  23
HETATM   23  C   UNL     1      40.699 -11.298   7.151  1.00  0.00    -0.029 A 
HETATM   24  C   UNL     1      41.547 -10.983   8.263  1.00  0.00    -0.000 A 
HETATM   25  C   UNL     1      40.737 -10.463   9.273  1.00  0.00     0.043 A 
HETATM   26  C   UNL     1      42.936 -11.078   8.495  1.00  0.00     0.038 A 
HETATM   27  C   UNL     1      41.243 -10.024  10.504  1.00  0.00     0.032 A 
HETATM   28  N   UNL     1      39.444 -10.481   8.803  1.00  0.00    -0.365 N 
HETATM   29  C   UNL     1      42.621 -10.129  10.711  1.00  0.00     0.026 A 
HETATM   30  C   UNL     1      43.451 -10.650   9.722  1.00  0.00     0.035 A 
HETATM   31 CL   UNL     1      45.146 -10.768  10.013  1.00  0.00    -0.084 Cl
HETATM   32  H   UNL     1      38.641 -10.156   9.323  1.00  0.00     0.165 HD
HETATM   33  C   UNL     1      39.409 -10.982   7.532  1.00  0.00     0.096 A 
ENDBRANCH  22  23
ENDBRANCH  21  22
ENDBRANCH   2  21
TORSDOF 6
ENDMDL
MODEL 8
REMARK VINA RESULT:      -9.0      6.247      9.781
REMARK  6 active torsions:
REMARK  status: ('A' for Active; 'I' for Inactive)
REMARK    1  A    between atoms: C_3  and  C_4 
REMARK    2  A    between atoms: C_4  and  C_5 
REMARK       I    between atoms: C_5  and  N_6 
REMARK    3  A    between atoms: N_6  and  C_7 
REMARK    4  A    between atoms: C_7  and  C_8 
REMARK    5  A    between atoms: C_8  and  C_9 
REMARK    6  A    between atoms: C_27  and  O_28 
ROOT
HETATM    1  C   UNL     1      40.715 -14.739   4.702  1.00  0.00     0.222 C 
HETATM    2  N   UNL     1      41.558 -15.621   4.051  1.00  0.00    -0.360 N 
HETATM    3  O   UNL     1      40.240 -14.929   5.816  1.00  0.00    -0.273 OA
HETATM    4  H   UNL     1      42.158 -15.193   3.356  1.00  0.00     0.162 HD
ENDROOT
BRANCH   1   5
HETATM    5  C   UNL     1      40.422 -13.473   3.891  1.00  0.00     0.148 C 
BRANCH   5   6
HETATM    6  C   UNL     1      40.821 -13.564   2.435  1.00  0.00     0.033 C 
HETATM    7  C   UNL     1      40.041 -14.073   1.453  1.00  0.00    -0.036 C 
HETATM    8  C   UNL     1      38.674 -14.668   1.682  1.00  0.00     0.050 C 
HETATM    9  C   UNL     1      40.555 -14.069   0.067  1.00  0.00     0.006 A 
HETATM   10  C   UNL     1      41.715 -13.345  -0.210  1.00  0.00     0.093 A 
HETATM   11  C   UNL     1      39.934 -14.729  -1.002  1.00  0.00     0.041 A 
HETATM   12  O   UNL     1      42.455 -12.739   0.812  1.00  0.00    -0.274 OA
HETATM   13  C   UNL     1      42.237 -13.224  -1.500  1.00  0.00     0.076 A 
HETATM   14  C   UNL     1      42.208 -13.128   2.113  1.00  0.00     0.295 C 
HETATM   15  O   UNL     1      43.092 -13.108   2.963  1.00  0.00    -0.259 OA
HETATM   16  C   UNL     1      41.603 -13.881  -2.547  1.00  0.00     0.090 A 
HETATM   17  C   UNL     1      40.459 -14.645  -2.299  1.00  0.00     0.068 A 
HETATM   18 CL   UNL     1      39.662 -15.506  -3.565  1.00  0.00    -0.081 Cl
BRANCH  16  19
HETATM   19  O   UNL     1      42.106 -13.792  -3.815  1.00  0.00    -0.359 OA
HETATM   20  H   UNL     1      42.238 -14.683  -4.179  1.00  0.00     0.218 HD
ENDBRANCH  16  19
ENDBRANCH   5   6
ENDBRANCH   1   5
BRANCH   2  21
HETATM   21  C   UNL     1      42.171 -16.732   4.756  1.00  0.00     0.127 C 
BRANCH  21  22
HETATM   22  C   UNL     1      43.595 -17.063   4.301  1.00  0.00     0.060 C 
BRANCH  22  23
HETATM   23  C   UNL     1      43.578 -18.082   3.201  1.00  0.00    -0.029 A 
HETATM   24  C   UNL     1      43.954 -19.461   3.299  1.00  0.00    -0.000 A 
HETATM   25  C   UNL     1      43.715 -20.049   2.056  1.00  0.00     0.043 A 
HETATM   26  C   UNL     1      44.462 -20.268   4.338  1.00  0.00     0.038 A 
HETATM   27  C   UNL     1      43.950 -21.406   1.798  1.00  0.00     0.032 A 
HETATM   28  N   UNL     1      43.232 -19.062   1.229  1.00  0.00    -0.365 N 
HETATM   29  C   UNL     1      44.454 -22.185   2.843  1.00  0.00     0.026 A 
HETATM   30  C   UNL     1      44.708 -21.622   4.091  1.00  0.00     0.035 A 
HETATM   31 CL   UNL     1      45.333 -22.612   5.356  1.00  0.00    -0.084 Cl
HETATM   32  H   UNL     1      42.967 -19.202   0.264  1.00  0.00     0.165 HD
HETATM   33  C   UNL     1      43.148 -17.877   1.905  1.00  0.00     0.096 A 
ENDBRANCH  22  23
ENDBRANCH  21  22
ENDBRANCH   2  21
TORSDOF 6
ENDMDL
MODEL 9
REMARK VINA RESULT:      -9.0      4.710      8.518
REMARK  6 active torsions:
REMARK  status: ('A' for Active; 'I' for Inactive)
REMARK    1  A    between atoms: C_3  and  C_4 
REMARK    2  A    between atoms: C_4  and  C_5 
REMARK       I    between atoms: C_5  and  N_6 
REMARK    3  A    between atoms: N_6  and  C_7 
REMARK    4  A    between atoms: C_7  and  C_8 
REMARK    5  A    between atoms: C_8  and  C_9 
REMARK    6  A    between atoms: C_27  and  O_28 
ROOT
HETATM    1  C   UNL     1      43.645 -14.043   6.606  1.00  0.00     0.222 C 
HETATM    2  N   UNL     1      42.836 -15.145   6.816  1.00  0.00    -0.360 N 
HETATM    3  O   UNL     1      44.831 -13.987   6.909  1.00  0.00    -0.273 OA
HETATM    4  H   UNL     1      42.035 -15.202   6.198  1.00  0.00     0.162 HD
ENDROOT
BRANCH   1   5
HETATM    5  C   UNL     1      42.911 -12.872   5.945  1.00  0.00     0.148 C 
BRANCH   5   6
HETATM    6  C   UNL     1      42.307 -13.200   4.597  1.00  0.00     0.033 C 
HETATM    7  C   UNL     1      40.982 -13.338   4.360  1.00  0.00    -0.036 C 
HETATM    8  C   UNL     1      39.916 -13.228   5.420  1.00  0.00     0.050 C 
HETATM    9  C   UNL     1      40.537 -13.632   2.981  1.00  0.00     0.006 A 
HETATM   10  C   UNL     1      41.469 -13.534   1.946  1.00  0.00     0.093 A 
HETATM   11  C   UNL     1      39.224 -13.980   2.637  1.00  0.00     0.041 A 
HETATM   12  O   UNL     1      42.822 -13.291   2.208  1.00  0.00    -0.274 OA
HETATM   13  C   UNL     1      41.127 -13.724   0.605  1.00  0.00     0.076 A 
HETATM   14  C   UNL     1      43.277 -13.465   3.499  1.00  0.00     0.295 C 
HETATM   15  O   UNL     1      44.430 -13.815   3.727  1.00  0.00    -0.259 OA
HETATM   16  C   UNL     1      39.818 -14.063   0.285  1.00  0.00     0.090 A 
HETATM   17  C   UNL     1      38.868 -14.204   1.300  1.00  0.00     0.068 A 
HETATM   18 CL   UNL     1      37.240 -14.659   0.949  1.00  0.00    -0.081 Cl
BRANCH  16  19
HETATM   19  O   UNL     1      39.465 -14.271  -1.019  1.00  0.00    -0.359 OA
HETATM   20  H   UNL     1      38.876 -13.558  -1.316  1.00  0.00     0.218 HD
ENDBRANCH  16  19
ENDBRANCH   5   6
ENDBRANCH   1   5
BRANCH   2  21
HETATM   21  C   UNL     1      43.401 -16.435   7.168  1.00  0.00     0.127 C 
BRANCH  21  22
HETATM   22  C   UNL     1      42.531 -17.634   6.784  1.00  0.00     0.060 C 
BRANCH  22  23
HETATM   23  C   UNL     1      43.254 -18.530   5.822  1.00  0.00    -0.029 A 
HETATM   24  C   UNL     1      43.109 -18.557   4.397  1.00  0.00    -0.000 A 
HETATM   25  C   UNL     1      44.022 -19.490   3.901  1.00  0.00     0.043 A 
HETATM   26  C   UNL     1      42.293 -17.862   3.480  1.00  0.00     0.038 A 
HETATM   27  C   UNL     1      44.169 -19.758   2.534  1.00  0.00     0.032 A 
HETATM   28  N   UNL     1      44.682 -20.022   4.984  1.00  0.00    -0.365 N 
HETATM   29  C   UNL     1      43.349 -19.057   1.645  1.00  0.00     0.026 A 
HETATM   30  C   UNL     1      42.426 -18.127   2.114  1.00  0.00     0.035 A 
HETATM   31 CL   UNL     1      41.428 -17.283   0.989  1.00  0.00    -0.084 Cl
HETATM   32  H   UNL     1      45.407 -20.723   4.924  1.00  0.00     0.165 HD
HETATM   33  C   UNL     1      44.228 -19.455   6.142  1.00  0.00     0.096 A 
ENDBRANCH  22  23
ENDBRANCH  21  22
ENDBRANCH   2  21
TORSDOF 6
ENDMDL
MODEL 10
REMARK VINA RESULT:      -9.0      5.885      9.755
REMARK  6 active torsions:
REMARK  status: ('A' for Active; 'I' for Inactive)
REMARK    1  A    between atoms: C_3  and  C_4 
REMARK    2  A    between atoms: C_4  and  C_5 
REMARK       I    between atoms: C_5  and  N_6 
REMARK    3  A    between atoms: N_6  and  C_7 
REMARK    4  A    between atoms: C_7  and  C_8 
REMARK    5  A    between atoms: C_8  and  C_9 
REMARK    6  A    between atoms: C_27  and  O_28 
ROOT
HETATM    1  C   UNL     1      40.780 -15.024   5.097  1.00  0.00     0.222 C 
HETATM    2  N   UNL     1      40.854 -16.370   4.786  1.00  0.00    -0.360 N 
HETATM    3  O   UNL     1      41.408 -14.487   6.002  1.00  0.00    -0.273 OA
HETATM    4  H   UNL     1      40.610 -16.594   3.828  1.00  0.00     0.162 HD
ENDROOT
BRANCH   1   5
HETATM    5  C   UNL     1      39.825 -14.246   4.187  1.00  0.00     0.148 C 
BRANCH   5   6
HETATM    6  C   UNL     1      40.318 -14.079   2.766  1.00  0.00     0.033 C 
HETATM    7  C   UNL     1      41.030 -13.020   2.318  1.00  0.00    -0.036 C 
HETATM    8  C   UNL     1      41.397 -11.828   3.165  1.00  0.00     0.050 C 
HETATM    9  C   UNL     1      41.468 -13.008   0.906  1.00  0.00     0.006 A 
HETATM   10  C   UNL     1      41.329 -14.177   0.157  1.00  0.00     0.093 A 
HETATM   11  C   UNL     1      42.044 -11.899   0.272  1.00  0.00     0.041 A 
HETATM   12  O   UNL     1      40.674 -15.300   0.677  1.00  0.00    -0.274 OA
HETATM   13  C   UNL     1      41.778 -14.284  -1.162  1.00  0.00     0.076 A 
HETATM   14  C   UNL     1      39.897 -15.136   1.805  1.00  0.00     0.295 C 
HETATM   15  O   UNL     1      38.909 -15.835   2.006  1.00  0.00    -0.259 OA
HETATM   16  C   UNL     1      42.351 -13.174  -1.770  1.00  0.00     0.090 A 
HETATM   17  C   UNL     1      42.473 -11.977  -1.060  1.00  0.00     0.068 A 
HETATM   18 CL   UNL     1      43.147 -10.565  -1.789  1.00  0.00    -0.081 Cl
BRANCH  16  19
HETATM   19  O   UNL     1      42.782 -13.251  -3.065  1.00  0.00    -0.359 OA
HETATM   20  H   UNL     1      43.604 -13.767  -3.107  1.00  0.00     0.218 HD
ENDBRANCH  16  19
ENDBRANCH   5   6
ENDBRANCH   1   5
BRANCH   2  21
HETATM   21  C   UNL     1      41.899 -17.212   5.340  1.00  0.00     0.127 C 
BRANCH  21  22
HETATM   22  C   UNL     1      43.250 -17.094   4.631  1.00  0.00     0.060 C 
BRANCH  22  23
HETATM   23  C   UNL     1      43.317 -18.024   3.456  1.00  0.00    -0.029 A 
HETATM   24  C   UNL     1      43.783 -19.379   3.456  1.00  0.00    -0.000 A 
HETATM   25  C   UNL     1      43.601 -19.884   2.167  1.00  0.00     0.043 A 
HETATM   26  C   UNL     1      44.330 -20.229   4.440  1.00  0.00     0.038 A 
HETATM   27  C   UNL     1      43.929 -21.199   1.812  1.00  0.00     0.032 A 
HETATM   28  N   UNL     1      43.064 -18.870   1.409  1.00  0.00    -0.365 N 
HETATM   29  C   UNL     1      44.471 -22.021   2.804  1.00  0.00     0.026 A 
HETATM   30  C   UNL     1      44.669 -21.541   4.095  1.00  0.00     0.035 A 
HETATM   31 CL   UNL     1      45.342 -22.582   5.293  1.00  0.00    -0.084 Cl
HETATM   32  H   UNL     1      42.822 -18.952   0.431  1.00  0.00     0.165 HD
HETATM   33  C   UNL     1      42.891 -17.749   2.171  1.00  0.00     0.096 A 
ENDBRANCH  22  23
ENDBRANCH  21  22
ENDBRANCH   2  21
TORSDOF 6
ENDMDL
