MODEL 1
REMARK VINA RESULT:      -8.2      0.000      0.000
REMARK  8 active torsions:
REMARK  status: ('A' for Active; 'I' for Inactive)
REMARK    1  A    between atoms: C_2  and  C_3 
REMARK    2  A    between atoms: C_3  and  O_4 
REMARK    3  A    between atoms: O_4  and  C_5 
REMARK    4  A    between atoms: C_8  and  C_9 
REMARK    5  A    between atoms: C_13  and  C_14 
REMARK       I    between atoms: C_14  and  N_15 
REMARK    6  A    between atoms: N_15  and  N_16 
REMARK    7  A    between atoms: C_17  and  C_18 
REMARK    8  A    between atoms: C_20  and  O_21 
ROOT
HETATM    1  C   UNL     1      44.078 -11.114  10.984  1.00  0.00     0.089 A 
HETATM    2  N   UNL     1      45.193 -10.474  10.599  1.00  0.00    -0.174 NA
HETATM    3  N   UNL     1      45.619 -11.151   9.520  1.00  0.00    -0.272 N 
HETATM    4  H   UNL     1      46.454 -10.833   9.036  1.00  0.00     0.189 HD
HETATM    5  C   UNL     1      44.849 -12.234   9.198  1.00  0.00     0.121 A 
HETATM    6  C   UNL     1      43.837 -12.232  10.137  1.00  0.00     0.071 A 
ENDROOT
BRANCH   5   7
HETATM    7  C   UNL     1      45.160 -13.085   8.074  1.00  0.00     0.289 C 
HETATM    8  N   UNL     1      44.206 -14.061   7.825  1.00  0.00    -0.242 N 
HETATM    9  H   UNL     1      43.402 -14.148   8.430  1.00  0.00     0.192 HD
HETATM   10  O   UNL     1      46.187 -12.930   7.421  1.00  0.00    -0.264 OA
BRANCH   8  11
HETATM   11  N   UNL     1      44.321 -14.901   6.756  1.00  0.00    -0.184 NA
HETATM   12  C   UNL     1      44.059 -16.144   7.007  1.00  0.00     0.150 C 
BRANCH  12  13
HETATM   13  C   UNL     1      44.106 -17.182   5.960  1.00  0.00    -0.014 A 
HETATM   14  C   UNL     1      43.556 -16.947   4.694  1.00  0.00     0.049 A 
HETATM   15  C   UNL     1      43.596 -17.950   3.726  1.00  0.00     0.069 A 
HETATM   16  C   UNL     1      44.191 -19.178   4.034  1.00  0.00     0.037 A 
HETATM   17  C   UNL     1      44.741 -19.411   5.296  1.00  0.00     0.004 A 
HETATM   18  C   UNL     1      44.700 -18.411   6.265  1.00  0.00     0.013 A 
BRANCH  15  19
HETATM   19  O   UNL     1      43.095 -17.863   2.456  1.00  0.00    -0.356 OA
HETATM   20  C   UNL     1      43.961 -17.331   1.461  1.00  0.00     0.210 C 
ENDBRANCH  15  19
ENDBRANCH  12  13
ENDBRANCH   8  11
ENDBRANCH   5   7
BRANCH   1  21
HETATM   21  C   UNL     1      43.278 -10.678  12.131  1.00  0.00    -0.005 A 
HETATM   22  C   UNL     1      42.060 -11.304  12.432  1.00  0.00     0.016 A 
HETATM   23  C   UNL     1      41.308 -10.918  13.548  1.00  0.00     0.037 A 
HETATM   24  C   UNL     1      41.765  -9.901  14.384  1.00  0.00     0.068 A 
HETATM   25  C   UNL     1      42.964  -9.255  14.077  1.00  0.00     0.037 A 
HETATM   26  C   UNL     1      43.716  -9.639  12.960  1.00  0.00     0.016 A 
BRANCH  24  27
HETATM   27  O   UNL     1      41.135  -9.449  15.512  1.00  0.00    -0.351 OA
BRANCH  27  28
HETATM   28  C   UNL     1      41.053  -8.033  15.677  1.00  0.00     0.175 C 
BRANCH  28  29
HETATM   29  C   UNL     1      39.587  -7.658  15.866  1.00  0.00     0.022 C 
HETATM   30  C   UNL     1      38.889  -7.431  14.537  1.00  0.00     0.007 C 
ENDBRANCH  28  29
ENDBRANCH  27  28
ENDBRANCH  24  27
ENDBRANCH   1  21
TORSDOF 8
ENDMDL
MODEL 2
REMARK VINA RESULT:      -8.2      1.002      1.697
REMARK  8 active torsions:
REMARK  status: ('A' for Active; 'I' for Inactive)
REMARK    1  A    between atoms: C_2  and  C_3 
REMARK    2  A    between atoms: C_3  and  O_4 
REMARK    3  A    between atoms: O_4  and  C_5 
REMARK    4  A    between atoms: C_8  and  C_9 
REMARK    5  A    between atoms: C_13  and  C_14 
REMARK       I    between atoms: C_14  and  N_15 
REMARK    6  A    between atoms: N_15  and  N_16 
REMARK    7  A    between atoms: C_17  and  C_18 
REMARK    8  A    between atoms: C_20  and  O_21 
ROOT
HETATM    1  C   UNL     1      44.173 -11.295  10.774  1.00  0.00     0.089 A 
HETATM    2  N   UNL     1      45.323 -10.711  10.402  1.00  0.00    -0.174 NA
HETATM    3  N   UNL     1      45.714 -11.392   9.313  1.00  0.00    -0.272 N 
HETATM    4  H   UNL     1      46.566 -11.113   8.835  1.00  0.00     0.189 HD
HETATM    5  C   UNL     1      44.887 -12.426   8.971  1.00  0.00     0.121 A 
HETATM    6  C   UNL     1      43.874 -12.384   9.908  1.00  0.00     0.071 A 
ENDROOT
BRANCH   5   7
HETATM    7  C   UNL     1      45.154 -13.275   7.834  1.00  0.00     0.289 C 
HETATM    8  N   UNL     1      44.175 -14.229   7.600  1.00  0.00    -0.242 N 
HETATM    9  H   UNL     1      43.383 -14.305   8.224  1.00  0.00     0.192 HD
HETATM   10  O   UNL     1      46.169 -13.135   7.158  1.00  0.00    -0.264 OA
BRANCH   8  11
HETATM   11  N   UNL     1      44.248 -15.063   6.523  1.00  0.00    -0.184 NA
HETATM   12  C   UNL     1      43.926 -16.294   6.762  1.00  0.00     0.150 C 
BRANCH  12  13
HETATM   13  C   UNL     1      43.922 -17.323   5.705  1.00  0.00    -0.014 A 
HETATM   14  C   UNL     1      44.694 -18.484   5.833  1.00  0.00     0.049 A 
HETATM   15  C   UNL     1      44.688 -19.435   4.813  1.00  0.00     0.069 A 
HETATM   16  C   UNL     1      43.905 -19.216   3.675  1.00  0.00     0.037 A 
HETATM   17  C   UNL     1      43.133 -18.059   3.549  1.00  0.00     0.004 A 
HETATM   18  C   UNL     1      43.140 -17.107   4.566  1.00  0.00     0.013 A 
BRANCH  15  19
HETATM   19  O   UNL     1      45.396 -20.606   4.801  1.00  0.00    -0.356 OA
HETATM   20  C   UNL     1      44.730 -21.760   5.299  1.00  0.00     0.210 C 
ENDBRANCH  15  19
ENDBRANCH  12  13
ENDBRANCH   8  11
ENDBRANCH   5   7
BRANCH   1  21
HETATM   21  C   UNL     1      43.395 -10.835  11.926  1.00  0.00    -0.005 A 
HETATM   22  C   UNL     1      42.169 -11.435  12.247  1.00  0.00     0.016 A 
HETATM   23  C   UNL     1      41.438 -11.026  13.369  1.00  0.00     0.037 A 
HETATM   24  C   UNL     1      41.923 -10.010  14.190  1.00  0.00     0.068 A 
HETATM   25  C   UNL     1      43.130  -9.389  13.862  1.00  0.00     0.037 A 
HETATM   26  C   UNL     1      43.861  -9.796  12.740  1.00  0.00     0.016 A 
BRANCH  24  27
HETATM   27  O   UNL     1      41.314  -9.537  15.320  1.00  0.00    -0.351 OA
BRANCH  27  28
HETATM   28  C   UNL     1      41.323  -8.122  15.509  1.00  0.00     0.175 C 
BRANCH  28  29
HETATM   29  C   UNL     1      40.108  -7.744  16.348  1.00  0.00     0.022 C 
HETATM   30  C   UNL     1      38.920  -7.370  15.479  1.00  0.00     0.007 C 
ENDBRANCH  28  29
ENDBRANCH  27  28
ENDBRANCH  24  27
ENDBRANCH   1  21
TORSDOF 8
ENDMDL
MODEL 3
REMARK VINA RESULT:      -7.8      1.961      3.089
REMARK  8 active torsions:
REMARK  status: ('A' for Active; 'I' for Inactive)
REMARK    1  A    between atoms: C_2  and  C_3 
REMARK    2  A    between atoms: C_3  and  O_4 
REMARK    3  A    between atoms: O_4  and  C_5 
REMARK    4  A    between atoms: C_8  and  C_9 
REMARK    5  A    between atoms: C_13  and  C_14 
REMARK       I    between atoms: C_14  and  N_15 
REMARK    6  A    between atoms: N_15  and  N_16 
REMARK    7  A    between atoms: C_17  and  C_18 
REMARK    8  A    between atoms: C_20  and  O_21 
ROOT
HETATM    1  C   UNL     1      44.209 -12.141   8.802  1.00  0.00     0.089 A 
HETATM    2  N   UNL     1      45.436 -12.684   8.772  1.00  0.00    -0.174 NA
HETATM    3  N   UNL     1      45.444 -13.441   7.663  1.00  0.00    -0.272 N 
HETATM    4  H   UNL     1      46.292 -13.946   7.416  1.00  0.00     0.189 HD
HETATM    5  C   UNL     1      44.261 -13.449   6.979  1.00  0.00     0.121 A 
HETATM    6  C   UNL     1      43.438 -12.608   7.701  1.00  0.00     0.071 A 
ENDROOT
BRANCH   5   7
HETATM    7  C   UNL     1      44.082 -14.215   5.769  1.00  0.00     0.289 C 
HETATM    8  N   UNL     1      43.701 -15.531   5.985  1.00  0.00    -0.242 N 
HETATM    9  H   UNL     1      43.608 -15.882   6.928  1.00  0.00     0.192 HD
HETATM   10  O   UNL     1      44.261 -13.713   4.663  1.00  0.00    -0.264 OA
BRANCH   8  11
HETATM   11  N   UNL     1      43.427 -16.365   4.941  1.00  0.00    -0.184 NA
HETATM   12  C   UNL     1      44.084 -17.481   4.946  1.00  0.00     0.150 C 
BRANCH  12  13
HETATM   13  C   UNL     1      43.889 -18.511   3.908  1.00  0.00    -0.014 A 
HETATM   14  C   UNL     1      44.364 -19.815   4.096  1.00  0.00     0.049 A 
HETATM   15  C   UNL     1      44.184 -20.768   3.093  1.00  0.00     0.069 A 
HETATM   16  C   UNL     1      43.525 -20.406   1.913  1.00  0.00     0.037 A 
HETATM   17  C   UNL     1      43.050 -19.106   1.728  1.00  0.00     0.004 A 
HETATM   18  C   UNL     1      43.231 -18.153   2.727  1.00  0.00     0.013 A 
BRANCH  15  19
HETATM   19  O   UNL     1      44.600 -22.070   3.137  1.00  0.00    -0.356 OA
HETATM   20  C   UNL     1      44.759 -22.648   4.428  1.00  0.00     0.210 C 
ENDBRANCH  15  19
ENDBRANCH  12  13
ENDBRANCH   8  11
ENDBRANCH   5   7
BRANCH   1  21
HETATM   21  C   UNL     1      43.785 -11.216   9.857  1.00  0.00    -0.005 A 
HETATM   22  C   UNL     1      42.674 -10.381   9.671  1.00  0.00     0.016 A 
HETATM   23  C   UNL     1      42.240  -9.522  10.688  1.00  0.00     0.037 A 
HETATM   24  C   UNL     1      42.909  -9.488  11.911  1.00  0.00     0.068 A 
HETATM   25  C   UNL     1      44.031 -10.298  12.094  1.00  0.00     0.037 A 
HETATM   26  C   UNL     1      44.467 -11.156  11.077  1.00  0.00     0.016 A 
BRANCH  24  27
HETATM   27  O   UNL     1      42.572  -8.711  12.985  1.00  0.00    -0.351 OA
BRANCH  27  28
HETATM   28  C   UNL     1      43.102  -9.102  14.251  1.00  0.00     0.175 C 
BRANCH  28  29
HETATM   29  C   UNL     1      41.957  -9.141  15.257  1.00  0.00     0.022 C 
HETATM   30  C   UNL     1      40.765  -8.329  14.783  1.00  0.00     0.007 C 
ENDBRANCH  28  29
ENDBRANCH  27  28
ENDBRANCH  24  27
ENDBRANCH   1  21
TORSDOF 8
ENDMDL
MODEL 4
REMARK VINA RESULT:      -7.5      3.792     12.104
REMARK  8 active torsions:
REMARK  status: ('A' for Active; 'I' for Inactive)
REMARK    1  A    between atoms: C_2  and  C_3 
REMARK    2  A    between atoms: C_3  and  O_4 
REMARK    3  A    between atoms: O_4  and  C_5 
REMARK    4  A    between atoms: C_8  and  C_9 
REMARK    5  A    between atoms: C_13  and  C_14 
REMARK       I    between atoms: C_14  and  N_15 
REMARK    6  A    between atoms: N_15  and  N_16 
REMARK    7  A    between atoms: C_17  and  C_18 
REMARK    8  A    between atoms: C_20  and  O_21 
ROOT
HETATM    1  C   UNL     1      41.000 -15.159   4.045  1.00  0.00     0.089 A 
HETATM    2  N   UNL     1      40.249 -14.548   3.114  1.00  0.00    -0.174 NA
HETATM    3  N   UNL     1      39.592 -13.587   3.784  1.00  0.00    -0.272 N 
HETATM    4  H   UNL     1      38.965 -12.970   3.274  1.00  0.00     0.189 HD
HETATM    5  C   UNL     1      39.852 -13.561   5.126  1.00  0.00     0.121 A 
HETATM    6  C   UNL     1      40.767 -14.575   5.322  1.00  0.00     0.071 A 
ENDROOT
BRANCH   5   7
HETATM    7  C   UNL     1      39.229 -12.601   6.006  1.00  0.00     0.289 C 
HETATM    8  N   UNL     1      39.411 -12.870   7.354  1.00  0.00    -0.242 N 
HETATM    9  H   UNL     1      39.913 -13.699   7.641  1.00  0.00     0.192 HD
HETATM   10  O   UNL     1      38.599 -11.644   5.564  1.00  0.00    -0.264 OA
BRANCH   8  11
HETATM   11  N   UNL     1      38.941 -12.020   8.311  1.00  0.00    -0.184 NA
HETATM   12  C   UNL     1      39.854 -11.410   8.998  1.00  0.00     0.150 C 
BRANCH  12  13
HETATM   13  C   UNL     1      39.521 -10.434  10.053  1.00  0.00    -0.014 A 
HETATM   14  C   UNL     1      40.380 -10.237  11.141  1.00  0.00     0.049 A 
HETATM   15  C   UNL     1      40.037  -9.322  12.136  1.00  0.00     0.069 A 
HETATM   16  C   UNL     1      38.838  -8.609  12.029  1.00  0.00     0.037 A 
HETATM   17  C   UNL     1      37.983  -8.804  10.942  1.00  0.00     0.004 A 
HETATM   18  C   UNL     1      38.324  -9.720   9.949  1.00  0.00     0.013 A 
BRANCH  15  19
HETATM   19  O   UNL     1      40.772  -9.034  13.253  1.00  0.00    -0.356 OA
HETATM   20  C   UNL     1      41.285 -10.142  13.984  1.00  0.00     0.210 C 
ENDBRANCH  15  19
ENDBRANCH  12  13
ENDBRANCH   8  11
ENDBRANCH   5   7
BRANCH   1  21
HETATM   21  C   UNL     1      41.898 -16.270   3.725  1.00  0.00    -0.005 A 
HETATM   22  C   UNL     1      41.902 -17.434   4.506  1.00  0.00     0.016 A 
HETATM   23  C   UNL     1      42.731 -18.516   4.184  1.00  0.00     0.037 A 
HETATM   24  C   UNL     1      43.568 -18.451   3.072  1.00  0.00     0.068 A 
HETATM   25  C   UNL     1      43.590 -17.285   2.305  1.00  0.00     0.037 A 
HETATM   26  C   UNL     1      42.763 -16.202   2.626  1.00  0.00     0.016 A 
BRANCH  24  27
HETATM   27  O   UNL     1      44.407 -19.444   2.643  1.00  0.00    -0.351 OA
BRANCH  27  28
HETATM   28  C   UNL     1      44.799 -20.415   3.613  1.00  0.00     0.175 C 
BRANCH  28  29
HETATM   29  C   UNL     1      44.372 -21.790   3.112  1.00  0.00     0.022 C 
HETATM   30  C   UNL     1      44.182 -21.805   1.606  1.00  0.00     0.007 C 
ENDBRANCH  28  29
ENDBRANCH  27  28
ENDBRANCH  24  27
ENDBRANCH   1  21
TORSDOF 8
ENDMDL
MODEL 5
REMARK VINA RESULT:      -7.5      9.533     13.384
REMARK  8 active torsions:
REMARK  status: ('A' for Active; 'I' for Inactive)
REMARK    1  A    between atoms: C_2  and  C_3 
REMARK    2  A    between atoms: C_3  and  O_4 
REMARK    3  A    between atoms: O_4  and  C_5 
REMARK    4  A    between atoms: C_8  and  C_9 
REMARK    5  A    between atoms: C_13  and  C_14 
REMARK       I    between atoms: C_14  and  N_15 
REMARK    6  A    between atoms: N_15  and  N_16 
REMARK    7  A    between atoms: C_17  and  C_18 
REMARK    8  A    between atoms: C_20  and  O_21 
ROOT
HETATM    1  C   UNL     1      41.525 -16.764   1.786  1.00  0.00     0.089 A 
HETATM    2  N   UNL     1      40.295 -16.477   2.242  1.00  0.00    -0.174 NA
HETATM    3  N   UNL     1      39.767 -15.669   1.309  1.00  0.00    -0.272 N 
HETATM    4  H   UNL     1      38.816 -15.331   1.430  1.00  0.00     0.189 HD
HETATM    5  C   UNL     1      40.611 -15.381   0.273  1.00  0.00     0.121 A 
HETATM    6  C   UNL     1      41.764 -16.083   0.559  1.00  0.00     0.071 A 
ENDROOT
BRANCH   5   7
HETATM    7  C   UNL     1      40.217 -14.520  -0.817  1.00  0.00     0.289 C 
HETATM    8  N   UNL     1      38.846 -14.455  -1.018  1.00  0.00    -0.242 N 
HETATM    9  H   UNL     1      38.224 -15.010  -0.447  1.00  0.00     0.192 HD
HETATM   10  O   UNL     1      41.050 -13.916  -1.487  1.00  0.00    -0.264 OA
BRANCH   8  11
HETATM   11  N   UNL     1      38.312 -13.632  -1.966  1.00  0.00    -0.184 NA
HETATM   12  C   UNL     1      37.593 -14.227  -2.864  1.00  0.00     0.150 C 
BRANCH  12  13
HETATM   13  C   UNL     1      36.917 -13.486  -3.945  1.00  0.00    -0.014 A 
HETATM   14  C   UNL     1      36.092 -14.150  -4.861  1.00  0.00     0.049 A 
HETATM   15  C   UNL     1      35.477 -13.432  -5.886  1.00  0.00     0.069 A 
HETATM   16  C   UNL     1      35.691 -12.053  -5.982  1.00  0.00     0.037 A 
HETATM   17  C   UNL     1      36.512 -11.390  -5.067  1.00  0.00     0.004 A 
HETATM   18  C   UNL     1      37.129 -12.107  -4.044  1.00  0.00     0.013 A 
BRANCH  15  19
HETATM   19  O   UNL     1      34.656 -13.949  -6.850  1.00  0.00    -0.356 OA
HETATM   20  C   UNL     1      34.673 -13.305  -8.118  1.00  0.00     0.210 C 
ENDBRANCH  15  19
ENDBRANCH  12  13
ENDBRANCH   8  11
ENDBRANCH   5   7
BRANCH   1  21
HETATM   21  C   UNL     1      42.444 -17.648   2.507  1.00  0.00    -0.005 A 
HETATM   22  C   UNL     1      43.391 -18.414   1.813  1.00  0.00     0.016 A 
HETATM   23  C   UNL     1      44.297 -19.232   2.497  1.00  0.00     0.037 A 
HETATM   24  C   UNL     1      44.273 -19.295   3.889  1.00  0.00     0.068 A 
HETATM   25  C   UNL     1      43.315 -18.556   4.586  1.00  0.00     0.037 A 
HETATM   26  C   UNL     1      42.407 -17.738   3.903  1.00  0.00     0.016 A 
BRANCH  24  27
HETATM   27  O   UNL     1      45.115 -20.039   4.671  1.00  0.00    -0.351 OA
BRANCH  27  28
HETATM   28  C   UNL     1      44.510 -21.025   5.507  1.00  0.00     0.175 C 
BRANCH  28  29
HETATM   29  C   UNL     1      45.064 -22.390   5.114  1.00  0.00     0.022 C 
HETATM   30  C   UNL     1      44.616 -22.797   3.722  1.00  0.00     0.007 C 
ENDBRANCH  28  29
ENDBRANCH  27  28
ENDBRANCH  24  27
ENDBRANCH   1  21
TORSDOF 8
ENDMDL
MODEL 6
REMARK VINA RESULT:      -7.3      8.222     13.616
REMARK  8 active torsions:
REMARK  status: ('A' for Active; 'I' for Inactive)
REMARK    1  A    between atoms: C_2  and  C_3 
REMARK    2  A    between atoms: C_3  and  O_4 
REMARK    3  A    between atoms: O_4  and  C_5 
REMARK    4  A    between atoms: C_8  and  C_9 
REMARK    5  A    between atoms: C_13  and  C_14 
REMARK       I    between atoms: C_14  and  N_15 
REMARK    6  A    between atoms: N_15  and  N_16 
REMARK    7  A    between atoms: C_17  and  C_18 
REMARK    8  A    between atoms: C_20  and  O_21 
ROOT
HETATM    1  C   UNL     1      39.403 -14.440  -2.735  1.00  0.00     0.089 A 
HETATM    2  N   UNL     1      40.466 -14.916  -3.403  1.00  0.00    -0.174 NA
HETATM    3  N   UNL     1      41.340 -15.266  -2.446  1.00  0.00    -0.272 N 
HETATM    4  H   UNL     1      42.229 -15.677  -2.716  1.00  0.00     0.189 HD
HETATM    5  C   UNL     1      40.912 -15.008  -1.173  1.00  0.00     0.121 A 
HETATM    6  C   UNL     1      39.651 -14.469  -1.334  1.00  0.00     0.071 A 
ENDROOT
BRANCH   5   7
HETATM    7  C   UNL     1      41.723 -15.309  -0.018  1.00  0.00     0.289 C 
HETATM    8  N   UNL     1      42.185 -16.616   0.022  1.00  0.00    -0.242 N 
HETATM    9  H   UNL     1      41.916 -17.270  -0.701  1.00  0.00     0.192 HD
HETATM   10  O   UNL     1      41.961 -14.458   0.834  1.00  0.00    -0.264 OA
BRANCH   8  11
HETATM   11  N   UNL     1      43.019 -17.038   1.015  1.00  0.00    -0.184 NA
HETATM   12  C   UNL     1      42.572 -18.026   1.723  1.00  0.00     0.150 C 
BRANCH  12  13
HETATM   13  C   UNL     1      43.357 -18.626   2.818  1.00  0.00    -0.014 A 
HETATM   14  C   UNL     1      43.454 -17.989   4.061  1.00  0.00     0.049 A 
HETATM   15  C   UNL     1      44.216 -18.565   5.077  1.00  0.00     0.069 A 
HETATM   16  C   UNL     1      44.873 -19.777   4.838  1.00  0.00     0.037 A 
HETATM   17  C   UNL     1      44.774 -20.413   3.598  1.00  0.00     0.004 A 
HETATM   18  C   UNL     1      44.015 -19.837   2.582  1.00  0.00     0.013 A 
BRANCH  15  19
HETATM   19  O   UNL     1      44.404 -18.054   6.331  1.00  0.00    -0.356 OA
HETATM   20  C   UNL     1      43.248 -17.929   7.150  1.00  0.00     0.210 C 
ENDBRANCH  15  19
ENDBRANCH  12  13
ENDBRANCH   8  11
ENDBRANCH   5   7
BRANCH   1  21
HETATM   21  C   UNL     1      38.197 -13.962  -3.415  1.00  0.00    -0.005 A 
HETATM   22  C   UNL     1      37.944 -12.589  -3.543  1.00  0.00     0.016 A 
HETATM   23  C   UNL     1      36.813 -12.124  -4.224  1.00  0.00     0.037 A 
HETATM   24  C   UNL     1      35.917 -13.027  -4.794  1.00  0.00     0.068 A 
HETATM   25  C   UNL     1      36.147 -14.396  -4.648  1.00  0.00     0.037 A 
HETATM   26  C   UNL     1      37.277 -14.862  -3.966  1.00  0.00     0.016 A 
BRANCH  24  27
HETATM   27  O   UNL     1      34.791 -12.699  -5.498  1.00  0.00    -0.351 OA
BRANCH  27  28
HETATM   28  C   UNL     1      33.923 -11.732  -4.907  1.00  0.00     0.175 C 
BRANCH  28  29
HETATM   29  C   UNL     1      32.855 -12.472  -4.110  1.00  0.00     0.022 C 
HETATM   30  C   UNL     1      32.452 -11.704  -2.863  1.00  0.00     0.007 C 
ENDBRANCH  28  29
ENDBRANCH  27  28
ENDBRANCH  24  27
ENDBRANCH   1  21
TORSDOF 8
ENDMDL
MODEL 7
REMARK VINA RESULT:      -7.3      9.804     12.961
REMARK  8 active torsions:
REMARK  status: ('A' for Active; 'I' for Inactive)
REMARK    1  A    between atoms: C_2  and  C_3 
REMARK    2  A    between atoms: C_3  and  O_4 
REMARK    3  A    between atoms: O_4  and  C_5 
REMARK    4  A    between atoms: C_8  and  C_9 
REMARK    5  A    between atoms: C_13  and  C_14 
REMARK       I    between atoms: C_14  and  N_15 
REMARK    6  A    between atoms: N_15  and  N_16 
REMARK    7  A    between atoms: C_17  and  C_18 
REMARK    8  A    between atoms: C_20  and  O_21 
ROOT
HETATM    1  C   UNL     1      41.883 -17.088   1.523  1.00  0.00     0.089 A 
HETATM    2  N   UNL     1      40.591 -16.879   1.822  1.00  0.00    -0.174 NA
HETATM    3  N   UNL     1      40.176 -15.973   0.922  1.00  0.00    -0.272 N 
HETATM    4  H   UNL     1      39.207 -15.668   0.939  1.00  0.00     0.189 HD
HETATM    5  C   UNL     1      41.151 -15.549   0.062  1.00  0.00     0.121 A 
HETATM    6  C   UNL     1      42.274 -16.261   0.433  1.00  0.00     0.071 A 
ENDROOT
BRANCH   5   7
HETATM    7  C   UNL     1      40.890 -14.571  -0.966  1.00  0.00     0.289 C 
HETATM    8  N   UNL     1      42.034 -14.009  -1.514  1.00  0.00    -0.242 N 
HETATM    9  H   UNL     1      42.944 -14.270  -1.161  1.00  0.00     0.192 HD
HETATM   10  O   UNL     1      39.744 -14.285  -1.300  1.00  0.00    -0.264 OA
BRANCH   8  11
HETATM   11  N   UNL     1      41.957 -13.118  -2.543  1.00  0.00    -0.184 NA
HETATM   12  C   UNL     1      42.276 -11.900  -2.238  1.00  0.00     0.150 C 
BRANCH  12  13
HETATM   13  C   UNL     1      42.276 -10.815  -3.237  1.00  0.00    -0.014 A 
HETATM   14  C   UNL     1      41.991 -11.080  -4.582  1.00  0.00     0.049 A 
HETATM   15  C   UNL     1      42.015 -10.042  -5.512  1.00  0.00     0.069 A 
HETATM   16  C   UNL     1      42.321  -8.745  -5.085  1.00  0.00     0.037 A 
HETATM   17  C   UNL     1      42.603  -8.481  -3.744  1.00  0.00     0.004 A 
HETATM   18  C   UNL     1      42.582  -9.518  -2.814  1.00  0.00     0.013 A 
BRANCH  15  19
HETATM   19  O   UNL     1      41.765 -10.156  -6.852  1.00  0.00    -0.356 OA
HETATM   20  C   UNL     1      40.421  -9.951  -7.272  1.00  0.00     0.210 C 
ENDBRANCH  15  19
ENDBRANCH  12  13
ENDBRANCH   8  11
ENDBRANCH   5   7
BRANCH   1  21
HETATM   21  C   UNL     1      42.717 -18.037   2.264  1.00  0.00    -0.005 A 
HETATM   22  C   UNL     1      43.100 -19.256   1.687  1.00  0.00     0.016 A 
HETATM   23  C   UNL     1      43.928 -20.151   2.374  1.00  0.00     0.037 A 
HETATM   24  C   UNL     1      44.390 -19.839   3.651  1.00  0.00     0.068 A 
HETATM   25  C   UNL     1      43.992 -18.640   4.244  1.00  0.00     0.037 A 
HETATM   26  C   UNL     1      43.163 -17.744   3.558  1.00  0.00     0.016 A 
BRANCH  24  27
HETATM   27  O   UNL     1      45.217 -20.618   4.414  1.00  0.00    -0.351 OA
BRANCH  27  28
HETATM   28  C   UNL     1      44.807 -21.968   4.631  1.00  0.00     0.175 C 
BRANCH  28  29
HETATM   29  C   UNL     1      44.717 -22.205   6.135  1.00  0.00     0.022 C 
HETATM   30  C   UNL     1      43.746 -21.243   6.797  1.00  0.00     0.007 C 
ENDBRANCH  28  29
ENDBRANCH  27  28
ENDBRANCH  24  27
ENDBRANCH   1  21
TORSDOF 8
ENDMDL
MODEL 8
REMARK VINA RESULT:      -7.3      9.320     13.238
REMARK  8 active torsions:
REMARK  status: ('A' for Active; 'I' for Inactive)
REMARK    1  A    between atoms: C_2  and  C_3 
REMARK    2  A    between atoms: C_3  and  O_4 
REMARK    3  A    between atoms: O_4  and  C_5 
REMARK    4  A    between atoms: C_8  and  C_9 
REMARK    5  A    between atoms: C_13  and  C_14 
REMARK       I    between atoms: C_14  and  N_15 
REMARK    6  A    between atoms: N_15  and  N_16 
REMARK    7  A    between atoms: C_17  and  C_18 
REMARK    8  A    between atoms: C_20  and  O_21 
ROOT
HETATM    1  C   UNL     1      41.048 -16.547   2.618  1.00  0.00     0.089 A 
HETATM    2  N   UNL     1      40.553 -15.835   3.643  1.00  0.00    -0.174 NA
HETATM    3  N   UNL     1      39.691 -14.976   3.074  1.00  0.00    -0.272 N 
HETATM    4  H   UNL     1      39.171 -14.334   3.666  1.00  0.00     0.189 HD
HETATM    5  C   UNL     1      39.624 -15.068   1.712  1.00  0.00     0.121 A 
HETATM    6  C   UNL     1      40.499 -16.085   1.389  1.00  0.00     0.071 A 
ENDROOT
BRANCH   5   7
HETATM    7  C   UNL     1      38.759 -14.217   0.931  1.00  0.00     0.289 C 
HETATM    8  N   UNL     1      38.866 -14.408  -0.439  1.00  0.00    -0.242 N 
HETATM    9  H   UNL     1      39.534 -15.071  -0.806  1.00  0.00     0.192 HD
HETATM   10  O   UNL     1      38.008 -13.406   1.466  1.00  0.00    -0.264 OA
BRANCH   8  11
HETATM   11  N   UNL     1      38.066 -13.727  -1.309  1.00  0.00    -0.184 NA
HETATM   12  C   UNL     1      38.017 -14.219  -2.506  1.00  0.00     0.150 C 
BRANCH  12  13
HETATM   13  C   UNL     1      37.179 -13.625  -3.565  1.00  0.00    -0.014 A 
HETATM   14  C   UNL     1      37.120 -12.237  -3.737  1.00  0.00     0.049 A 
HETATM   15  C   UNL     1      36.306 -11.697  -4.733  1.00  0.00     0.069 A 
HETATM   16  C   UNL     1      35.562 -12.554  -5.550  1.00  0.00     0.037 A 
HETATM   17  C   UNL     1      35.623 -13.939  -5.380  1.00  0.00     0.004 A 
HETATM   18  C   UNL     1      36.433 -14.479  -4.384  1.00  0.00     0.013 A 
BRANCH  15  19
HETATM   19  O   UNL     1      36.146 -10.367  -5.008  1.00  0.00    -0.356 OA
HETATM   20  C   UNL     1      35.767 -10.030  -6.336  1.00  0.00     0.210 C 
ENDBRANCH  15  19
ENDBRANCH  12  13
ENDBRANCH   8  11
ENDBRANCH   5   7
BRANCH   1  21
HETATM   21  C   UNL     1      42.023 -17.624   2.808  1.00  0.00    -0.005 A 
HETATM   22  C   UNL     1      42.404 -18.442   1.735  1.00  0.00     0.016 A 
HETATM   23  C   UNL     1      43.363 -19.448   1.900  1.00  0.00     0.037 A 
HETATM   24  C   UNL     1      43.960 -19.651   3.143  1.00  0.00     0.068 A 
HETATM   25  C   UNL     1      43.567 -18.858   4.223  1.00  0.00     0.037 A 
HETATM   26  C   UNL     1      42.607 -17.852   4.059  1.00  0.00     0.016 A 
BRANCH  24  27
HETATM   27  O   UNL     1      44.920 -20.584   3.426  1.00  0.00    -0.351 OA
BRANCH  27  28
HETATM   28  C   UNL     1      44.698 -21.903   2.930  1.00  0.00     0.175 C 
BRANCH  28  29
HETATM   29  C   UNL     1      44.642 -22.858   4.117  1.00  0.00     0.022 C 
HETATM   30  C   UNL     1      44.814 -22.124   5.435  1.00  0.00     0.007 C 
ENDBRANCH  28  29
ENDBRANCH  27  28
ENDBRANCH  24  27
ENDBRANCH   1  21
TORSDOF 8
ENDMDL
MODEL 9
REMARK VINA RESULT:      -7.3      8.883     13.746
REMARK  8 active torsions:
REMARK  status: ('A' for Active; 'I' for Inactive)
REMARK    1  A    between atoms: C_2  and  C_3 
REMARK    2  A    between atoms: C_3  and  O_4 
REMARK    3  A    between atoms: O_4  and  C_5 
REMARK    4  A    between atoms: C_8  and  C_9 
REMARK    5  A    between atoms: C_13  and  C_14 
REMARK       I    between atoms: C_14  and  N_15 
REMARK    6  A    between atoms: N_15  and  N_16 
REMARK    7  A    between atoms: C_17  and  C_18 
REMARK    8  A    between atoms: C_20  and  O_21 
ROOT
HETATM    1  C   UNL     1      41.319 -13.374  -2.959  1.00  0.00     0.089 A 
HETATM    2  N   UNL     1      41.338 -14.604  -3.496  1.00  0.00    -0.174 NA
HETATM    3  N   UNL     1      41.333 -15.436  -2.441  1.00  0.00    -0.272 N 
HETATM    4  H   UNL     1      41.326 -16.439  -2.604  1.00  0.00     0.189 HD
HETATM    5  C   UNL     1      41.347 -14.805  -1.229  1.00  0.00     0.121 A 
HETATM    6  C   UNL     1      41.338 -13.460  -1.538  1.00  0.00     0.071 A 
ENDROOT
BRANCH   5   7
HETATM    7  C   UNL     1      41.353 -15.538   0.014  1.00  0.00     0.289 C 
HETATM    8  N   UNL     1      42.194 -16.640   0.015  1.00  0.00    -0.242 N 
HETATM    9  H   UNL     1      42.706 -16.886  -0.820  1.00  0.00     0.192 HD
HETATM   10  O   UNL     1      40.660 -15.187   0.965  1.00  0.00    -0.264 OA
BRANCH   8  11
HETATM   11  N   UNL     1      42.362 -17.397   1.138  1.00  0.00    -0.184 NA
HETATM   12  C   UNL     1      43.558 -17.863   1.310  1.00  0.00     0.150 C 
BRANCH  12  13
HETATM   13  C   UNL     1      43.922 -18.675   2.487  1.00  0.00    -0.014 A 
HETATM   14  C   UNL     1      44.002 -18.096   3.759  1.00  0.00     0.049 A 
HETATM   15  C   UNL     1      44.366 -18.879   4.854  1.00  0.00     0.069 A 
HETATM   16  C   UNL     1      44.642 -20.238   4.664  1.00  0.00     0.037 A 
HETATM   17  C   UNL     1      44.559 -20.815   3.395  1.00  0.00     0.004 A 
HETATM   18  C   UNL     1      44.198 -20.033   2.300  1.00  0.00     0.013 A 
BRANCH  15  19
HETATM   19  O   UNL     1      44.490 -18.448   6.146  1.00  0.00    -0.356 OA
HETATM   20  C   UNL     1      43.742 -19.151   7.130  1.00  0.00     0.210 C 
ENDBRANCH  15  19
ENDBRANCH  12  13
ENDBRANCH   8  11
ENDBRANCH   5   7
BRANCH   1  21
HETATM   21  C   UNL     1      41.297 -12.160  -3.777  1.00  0.00    -0.005 A 
HETATM   22  C   UNL     1      42.491 -11.532  -4.157  1.00  0.00     0.016 A 
HETATM   23  C   UNL     1      42.480 -10.392  -4.970  1.00  0.00     0.037 A 
HETATM   24  C   UNL     1      41.271  -9.864  -5.421  1.00  0.00     0.068 A 
HETATM   25  C   UNL     1      40.076 -10.468  -5.025  1.00  0.00     0.037 A 
HETATM   26  C   UNL     1      40.086 -11.607  -4.211  1.00  0.00     0.016 A 
BRANCH  24  27
HETATM   27  O   UNL     1      41.129  -8.772  -6.233  1.00  0.00    -0.351 OA
BRANCH  27  28
HETATM   28  C   UNL     1      42.219  -7.852  -6.267  1.00  0.00     0.175 C 
BRANCH  28  29
HETATM   29  C   UNL     1      42.929  -8.002  -7.608  1.00  0.00     0.022 C 
HETATM   30  C   UNL     1      44.414  -7.707  -7.493  1.00  0.00     0.007 C 
ENDBRANCH  28  29
ENDBRANCH  27  28
ENDBRANCH  24  27
ENDBRANCH   1  21
TORSDOF 8
ENDMDL
MODEL 10
REMARK VINA RESULT:      -7.2      9.571     13.951
REMARK  8 active torsions:
REMARK  status: ('A' for Active; 'I' for Inactive)
REMARK    1  A    between atoms: C_2  and  C_3 
REMARK    2  A    between atoms: C_3  and  O_4 
REMARK    3  A    between atoms: O_4  and  C_5 
REMARK    4  A    between atoms: C_8  and  C_9 
REMARK    5  A    between atoms: C_13  and  C_14 
REMARK       I    between atoms: C_14  and  N_15 
REMARK    6  A    between atoms: N_15  and  N_16 
REMARK    7  A    between atoms: C_17  and  C_18 
REMARK    8  A    between atoms: C_20  and  O_21 
ROOT
HETATM    1  C   UNL     1      38.478 -14.224  -3.197  1.00  0.00     0.089 A 
HETATM    2  N   UNL     1      39.364 -14.881  -3.962  1.00  0.00    -0.174 NA
HETATM    3  N   UNL     1      40.363 -15.202  -3.125  1.00  0.00    -0.272 N 
HETATM    4  H   UNL     1      41.155 -15.730  -3.480  1.00  0.00     0.189 HD
HETATM    5  C   UNL     1      40.189 -14.753  -1.845  1.00  0.00     0.121 A 
HETATM    6  C   UNL     1      38.967 -14.112  -1.866  1.00  0.00     0.071 A 
ENDROOT
BRANCH   5   7
HETATM    7  C   UNL     1      41.166 -14.997  -0.810  1.00  0.00     0.289 C 
HETATM    8  N   UNL     1      41.171 -16.300  -0.334  1.00  0.00    -0.242 N 
HETATM    9  H   UNL     1      40.503 -16.970  -0.689  1.00  0.00     0.192 HD
HETATM   10  O   UNL     1      41.909 -14.105  -0.411  1.00  0.00    -0.264 OA
BRANCH   8  11
HETATM   11  N   UNL     1      42.081 -16.705   0.597  1.00  0.00    -0.184 NA
HETATM   12  C   UNL     1      41.671 -17.643   1.391  1.00  0.00     0.150 C 
BRANCH  12  13
HETATM   13  C   UNL     1      42.536 -18.219   2.437  1.00  0.00    -0.014 A 
HETATM   14  C   UNL     1      43.331 -19.340   2.170  1.00  0.00     0.049 A 
HETATM   15  C   UNL     1      44.127 -19.880   3.180  1.00  0.00     0.069 A 
HETATM   16  C   UNL     1      44.123 -19.288   4.447  1.00  0.00     0.037 A 
HETATM   17  C   UNL     1      43.331 -18.169   4.713  1.00  0.00     0.004 A 
HETATM   18  C   UNL     1      42.533 -17.631   3.706  1.00  0.00     0.013 A 
BRANCH  15  19
HETATM   19  O   UNL     1      44.944 -20.971   3.064  1.00  0.00    -0.356 OA
HETATM   20  C   UNL     1      44.444 -22.068   2.309  1.00  0.00     0.210 C 
ENDBRANCH  15  19
ENDBRANCH  12  13
ENDBRANCH   8  11
ENDBRANCH   5   7
BRANCH   1  21
HETATM   21  C   UNL     1      37.212 -13.710  -3.726  1.00  0.00    -0.005 A 
HETATM   22  C   UNL     1      36.383 -14.522  -4.512  1.00  0.00     0.016 A 
HETATM   23  C   UNL     1      35.154 -14.050  -4.990  1.00  0.00     0.037 A 
HETATM   24  C   UNL     1      34.734 -12.757  -4.685  1.00  0.00     0.068 A 
HETATM   25  C   UNL     1      35.566 -11.933  -3.926  1.00  0.00     0.037 A 
HETATM   26  C   UNL     1      36.795 -12.403  -3.449  1.00  0.00     0.016 A 
BRANCH  24  27
HETATM   27  O   UNL     1      33.551 -12.189  -5.074  1.00  0.00    -0.351 OA
BRANCH  27  28
HETATM   28  C   UNL     1      32.819 -11.482  -4.073  1.00  0.00     0.175 C 
BRANCH  28  29
HETATM   29  C   UNL     1      31.940 -12.482  -3.329  1.00  0.00     0.022 C 
HETATM   30  C   UNL     1      30.472 -12.302  -3.673  1.00  0.00     0.007 C 
ENDBRANCH  28  29
ENDBRANCH  27  28
ENDBRANCH  24  27
ENDBRANCH   1  21
TORSDOF 8
ENDMDL
