MODEL 1
REMARK VINA RESULT:      -9.4      0.000      0.000
REMARK  6 active torsions:
REMARK  status: ('A' for Active; 'I' for Inactive)
REMARK    1  A    between atoms: C_2  and  C_3 
REMARK    2  A    between atoms: N_6  and  C_8 
REMARK    3  A    between atoms: C_8  and  C_9 
REMARK    4  A    between atoms: C_12  and  C_13 
REMARK    5  A    between atoms: C_13  and  O_14 
REMARK    6  A    between atoms: N_24  and  C_25 
ROOT
HETATM    1  C   UNL     1      43.662 -15.243   3.165  1.00  0.00     0.049 C 
HETATM    2  C   UNL     1      42.187 -14.865   2.985  1.00  0.00     0.116 C 
HETATM    3  N   UNL     1      41.472 -15.951   2.360  1.00  0.00    -0.324 N 
HETATM    4  C   UNL     1      41.239 -15.712   1.019  1.00  0.00     0.326 C 
HETATM    5  O   UNL     1      40.735 -16.563   0.312  1.00  0.00    -0.247 OA
HETATM    6  N   UNL     1      41.642 -14.450   0.715  1.00  0.00    -0.263 N 
HETATM    7  C   UNL     1      42.105 -13.830   1.844  1.00  0.00     0.256 C 
HETATM    8  O   UNL     1      42.417 -12.653   1.956  1.00  0.00    -0.270 OA
HETATM    9  H   UNL     1      41.592 -16.933   2.587  1.00  0.00     0.165 HD
ENDROOT
BRANCH   2  10
HETATM   10  C   UNL     1      41.525 -14.338   4.293  1.00  0.00     0.026 C 
HETATM   11  C   UNL     1      42.483 -13.598   5.241  1.00  0.00     0.035 C 
HETATM   12  C   UNL     1      43.393 -14.512   6.053  1.00  0.00     0.235 C 
HETATM   13  N   UNL     1      42.589 -15.544   6.804  1.00  0.00    -0.067 N 
HETATM   14  H   UNL     1      42.026 -15.034   7.498  1.00  0.00     0.280 HD
HETATM   15  C   UNL     1      41.642 -16.326   5.927  1.00  0.00     0.235 C 
HETATM   16  C   UNL     1      40.756 -15.391   5.119  1.00  0.00     0.035 C 
BRANCH  13  17
HETATM   17  C   UNL     1      43.457 -16.512   7.598  1.00  0.00     0.273 C 
BRANCH  17  18
HETATM   18  C   UNL     1      43.851 -17.755   6.847  1.00  0.00    -0.033 A 
HETATM   19  C   UNL     1      44.527 -17.677   5.622  1.00  0.00     0.010 A 
HETATM   20  C   UNL     1      44.841 -18.843   4.915  1.00  0.00     0.018 A 
HETATM   21  C   UNL     1      44.484 -20.102   5.417  1.00  0.00     0.039 A 
HETATM   22  C   UNL     1      43.820 -20.182   6.646  1.00  0.00     0.018 A 
HETATM   23  C   UNL     1      43.508 -19.020   7.356  1.00  0.00     0.010 A 
BRANCH  21  24
HETATM   24  C   UNL     1      44.823 -21.307   4.612  1.00  0.00     0.292 C 
HETATM   25  O   UNL     1      45.046 -22.398   5.109  1.00  0.00    -0.259 OA
BRANCH  24  26
HETATM   26  O   UNL     1      44.867 -21.001   3.294  1.00  0.00    -0.323 OA
HETATM   27  C   UNL     1      44.298 -22.000   2.443  1.00  0.00     0.213 C 
ENDBRANCH  24  26
ENDBRANCH  21  24
ENDBRANCH  17  18
ENDBRANCH  13  17
ENDBRANCH   2  10
BRANCH   6  28
HETATM   28  C   UNL     1      41.458 -13.746  -0.560  1.00  0.00     0.106 C 
HETATM   29  C   UNL     1      41.757 -14.602  -1.814  1.00  0.00     0.065 C 
HETATM   30  C   UNL     1      40.394 -14.870  -2.371  1.00  0.00    -0.050 A 
HETATM   31  C   UNL     1      39.423 -14.077  -1.757  1.00  0.00    -0.050 A 
HETATM   32  C   UNL     1      40.064 -15.731  -3.405  1.00  0.00     0.007 A 
HETATM   33  C   UNL     1      40.020 -13.190  -0.712  1.00  0.00     0.065 C 
HETATM   34  C   UNL     1      38.101 -14.120  -2.173  1.00  0.00     0.007 A 
HETATM   35  C   UNL     1      37.759 -14.988  -3.213  1.00  0.00     0.001 A 
HETATM   36  C   UNL     1      38.734 -15.789  -3.824  1.00  0.00     0.001 A 
ENDBRANCH   6  28
TORSDOF 6
ENDMDL
MODEL 2
REMARK VINA RESULT:      -9.2      2.303      7.927
REMARK  6 active torsions:
REMARK  status: ('A' for Active; 'I' for Inactive)
REMARK    1  A    between atoms: C_2  and  C_3 
REMARK    2  A    between atoms: N_6  and  C_8 
REMARK    3  A    between atoms: C_8  and  C_9 
REMARK    4  A    between atoms: C_12  and  C_13 
REMARK    5  A    between atoms: C_13  and  O_14 
REMARK    6  A    between atoms: N_24  and  C_25 
ROOT
HETATM    1  C   UNL     1      40.327 -16.918   6.173  1.00  0.00     0.049 C 
HETATM    2  C   UNL     1      41.025 -16.056   5.115  1.00  0.00     0.116 C 
HETATM    3  N   UNL     1      40.662 -16.505   3.793  1.00  0.00    -0.324 N 
HETATM    4  C   UNL     1      41.666 -17.252   3.207  1.00  0.00     0.326 C 
HETATM    5  O   UNL     1      41.495 -17.795   2.133  1.00  0.00    -0.247 OA
HETATM    6  N   UNL     1      42.763 -17.230   4.009  1.00  0.00    -0.263 N 
HETATM    7  C   UNL     1      42.518 -16.445   5.103  1.00  0.00     0.256 C 
HETATM    8  O   UNL     1      43.327 -16.100   5.953  1.00  0.00    -0.270 OA
HETATM    9  H   UNL     1      39.727 -16.780   3.509  1.00  0.00     0.165 HD
ENDROOT
BRANCH   2  10
HETATM   10  C   UNL     1      40.828 -14.527   5.342  1.00  0.00     0.026 C 
HETATM   11  C   UNL     1      39.824 -13.863   4.385  1.00  0.00     0.035 C 
HETATM   12  C   UNL     1      40.368 -13.599   2.986  1.00  0.00     0.235 C 
HETATM   13  N   UNL     1      41.651 -12.808   3.049  1.00  0.00    -0.067 N 
HETATM   14  H   UNL     1      41.410 -11.882   3.426  1.00  0.00     0.280 HD
HETATM   15  C   UNL     1      42.693 -13.418   3.953  1.00  0.00     0.235 C 
HETATM   16  C   UNL     1      42.120 -13.683   5.337  1.00  0.00     0.035 C 
BRANCH  13  17
HETATM   17  C   UNL     1      42.261 -12.555   1.675  1.00  0.00     0.273 C 
BRANCH  17  18
HETATM   18  C   UNL     1      41.482 -13.144   0.530  1.00  0.00    -0.033 A 
HETATM   19  C   UNL     1      41.648 -14.485   0.155  1.00  0.00     0.010 A 
HETATM   20  C   UNL     1      40.952 -15.001  -0.942  1.00  0.00     0.018 A 
HETATM   21  C   UNL     1      40.083 -14.189  -1.684  1.00  0.00     0.039 A 
HETATM   22  C   UNL     1      39.906 -12.854  -1.304  1.00  0.00     0.018 A 
HETATM   23  C   UNL     1      40.598 -12.337  -0.206  1.00  0.00     0.010 A 
BRANCH  21  24
HETATM   24  C   UNL     1      39.385 -14.784  -2.856  1.00  0.00     0.292 C 
HETATM   25  O   UNL     1      39.973 -15.330  -3.775  1.00  0.00    -0.259 OA
BRANCH  24  26
HETATM   26  O   UNL     1      38.046 -14.607  -2.753  1.00  0.00    -0.323 OA
HETATM   27  C   UNL     1      37.308 -15.056  -3.892  1.00  0.00     0.213 C 
ENDBRANCH  24  26
ENDBRANCH  21  24
ENDBRANCH  17  18
ENDBRANCH  13  17
ENDBRANCH   2  10
BRANCH   6  28
HETATM   28  C   UNL     1      44.090 -17.782   3.708  1.00  0.00     0.106 C 
HETATM   29  C   UNL     1      44.665 -18.705   4.810  1.00  0.00     0.065 C 
HETATM   30  C   UNL     1      44.542 -20.067   4.203  1.00  0.00    -0.050 A 
HETATM   31  C   UNL     1      44.228 -19.999   2.845  1.00  0.00    -0.050 A 
HETATM   32  C   UNL     1      44.759 -21.286   4.826  1.00  0.00     0.007 A 
HETATM   33  C   UNL     1      44.097 -18.584   2.383  1.00  0.00     0.065 C 
HETATM   34  C   UNL     1      44.135 -21.150   2.077  1.00  0.00     0.007 A 
HETATM   35  C   UNL     1      44.349 -22.383   2.698  1.00  0.00     0.001 A 
HETATM   36  C   UNL     1      44.657 -22.450   4.064  1.00  0.00     0.001 A 
ENDBRANCH   6  28
TORSDOF 6
ENDMDL
MODEL 3
REMARK VINA RESULT:      -9.1      2.892      5.955
REMARK  6 active torsions:
REMARK  status: ('A' for Active; 'I' for Inactive)
REMARK    1  A    between atoms: C_2  and  C_3 
REMARK    2  A    between atoms: N_6  and  C_8 
REMARK    3  A    between atoms: C_8  and  C_9 
REMARK    4  A    between atoms: C_12  and  C_13 
REMARK    5  A    between atoms: C_13  and  O_14 
REMARK    6  A    between atoms: N_24  and  C_25 
ROOT
HETATM    1  C   UNL     1      42.326 -12.176  -0.884  1.00  0.00     0.049 C 
HETATM    2  C   UNL     1      41.389 -12.571   0.263  1.00  0.00     0.116 C 
HETATM    3  N   UNL     1      42.151 -12.797   1.467  1.00  0.00    -0.324 N 
HETATM    4  C   UNL     1      42.318 -14.144   1.728  1.00  0.00     0.326 C 
HETATM    5  O   UNL     1      43.017 -14.520   2.648  1.00  0.00    -0.247 OA
HETATM    6  N   UNL     1      41.592 -14.864   0.833  1.00  0.00    -0.263 N 
HETATM    7  C   UNL     1      40.912 -14.014   0.002  1.00  0.00     0.256 C 
HETATM    8  O   UNL     1      40.067 -14.322  -0.827  1.00  0.00    -0.270 OA
HETATM    9  H   UNL     1      42.923 -12.220   1.783  1.00  0.00     0.165 HD
ENDROOT
BRANCH   2  10
HETATM   10  C   UNL     1      40.193 -11.590   0.444  1.00  0.00     0.026 C 
HETATM   11  C   UNL     1      40.491 -10.376   1.338  1.00  0.00     0.035 C 
HETATM   12  C   UNL     1      40.488 -10.679   2.832  1.00  0.00     0.235 C 
HETATM   13  N   UNL     1      39.196 -11.340   3.243  1.00  0.00    -0.067 N 
HETATM   14  H   UNL     1      38.450 -10.646   3.104  1.00  0.00     0.280 HD
HETATM   15  C   UNL     1      38.853 -12.558   2.420  1.00  0.00     0.235 C 
HETATM   16  C   UNL     1      38.877 -12.230   0.935  1.00  0.00     0.035 C 
BRANCH  13  17
HETATM   17  C   UNL     1      39.159 -11.705   4.722  1.00  0.00     0.273 C 
BRANCH  17  18
HETATM   18  C   UNL     1      40.180 -12.730   5.137  1.00  0.00    -0.033 A 
HETATM   19  C   UNL     1      39.819 -14.069   5.344  1.00  0.00     0.010 A 
HETATM   20  C   UNL     1      40.773 -14.996   5.776  1.00  0.00     0.018 A 
HETATM   21  C   UNL     1      42.097 -14.603   6.011  1.00  0.00     0.039 A 
HETATM   22  C   UNL     1      42.462 -13.271   5.793  1.00  0.00     0.018 A 
HETATM   23  C   UNL     1      41.513 -12.343   5.358  1.00  0.00     0.010 A 
BRANCH  21  24
HETATM   24  C   UNL     1      43.065 -15.627   6.492  1.00  0.00     0.292 C 
HETATM   25  O   UNL     1      44.255 -15.593   6.231  1.00  0.00    -0.259 OA
BRANCH  24  26
HETATM   26  O   UNL     1      42.428 -16.579   7.215  1.00  0.00    -0.323 OA
HETATM   27  C   UNL     1      43.276 -17.284   8.127  1.00  0.00     0.213 C 
ENDBRANCH  24  26
ENDBRANCH  21  24
ENDBRANCH  17  18
ENDBRANCH  13  17
ENDBRANCH   2  10
BRANCH   6  28
HETATM   28  C   UNL     1      41.381 -16.317   0.829  1.00  0.00     0.106 C 
HETATM   29  C   UNL     1      42.665 -17.150   0.597  1.00  0.00     0.065 C 
HETATM   30  C   UNL     1      42.940 -17.725   1.951  1.00  0.00    -0.050 A 
HETATM   31  C   UNL     1      41.861 -17.539   2.818  1.00  0.00    -0.050 A 
HETATM   32  C   UNL     1      44.068 -18.422   2.354  1.00  0.00     0.007 A 
HETATM   33  C   UNL     1      40.740 -16.813   2.148  1.00  0.00     0.065 C 
HETATM   34  C   UNL     1      41.883 -18.057   4.104  1.00  0.00     0.007 A 
HETATM   35  C   UNL     1      43.018 -18.758   4.519  1.00  0.00     0.001 A 
HETATM   36  C   UNL     1      44.104 -18.938   3.650  1.00  0.00     0.001 A 
ENDBRANCH   6  28
TORSDOF 6
ENDMDL
MODEL 4
REMARK VINA RESULT:      -9.1      1.561      2.331
REMARK  6 active torsions:
REMARK  status: ('A' for Active; 'I' for Inactive)
REMARK    1  A    between atoms: C_2  and  C_3 
REMARK    2  A    between atoms: N_6  and  C_8 
REMARK    3  A    between atoms: C_8  and  C_9 
REMARK    4  A    between atoms: C_12  and  C_13 
REMARK    5  A    between atoms: C_13  and  O_14 
REMARK    6  A    between atoms: N_24  and  C_25 
ROOT
HETATM    1  C   UNL     1      43.947 -14.024   3.618  1.00  0.00     0.049 C 
HETATM    2  C   UNL     1      42.808 -14.918   4.124  1.00  0.00     0.116 C 
HETATM    3  N   UNL     1      43.157 -16.307   3.953  1.00  0.00    -0.324 N 
HETATM    4  C   UNL     1      42.520 -16.869   2.863  1.00  0.00     0.326 C 
HETATM    5  O   UNL     1      42.772 -18.006   2.511  1.00  0.00    -0.247 OA
HETATM    6  N   UNL     1      41.641 -15.970   2.349  1.00  0.00    -0.263 N 
HETATM    7  C   UNL     1      41.655 -14.829   3.104  1.00  0.00     0.256 C 
HETATM    8  O   UNL     1      40.895 -13.876   3.003  1.00  0.00    -0.270 OA
HETATM    9  H   UNL     1      44.071 -16.704   4.145  1.00  0.00     0.165 HD
ENDROOT
BRANCH   2  10
HETATM   10  C   UNL     1      42.336 -14.553   5.564  1.00  0.00     0.026 C 
HETATM   11  C   UNL     1      43.474 -14.235   6.547  1.00  0.00     0.035 C 
HETATM   12  C   UNL     1      44.205 -15.462   7.081  1.00  0.00     0.235 C 
HETATM   13  N   UNL     1      43.234 -16.445   7.687  1.00  0.00    -0.067 N 
HETATM   14  H   UNL     1      42.828 -15.989   8.514  1.00  0.00     0.280 HD
HETATM   15  C   UNL     1      42.102 -16.821   6.763  1.00  0.00     0.235 C 
HETATM   16  C   UNL     1      41.400 -15.580   6.235  1.00  0.00     0.035 C 
BRANCH  13  17
HETATM   17  C   UNL     1      43.912 -17.712   8.196  1.00  0.00     0.273 C 
BRANCH  17  18
HETATM   18  C   UNL     1      44.095 -18.782   7.155  1.00  0.00    -0.033 A 
HETATM   19  C   UNL     1      43.596 -20.077   7.353  1.00  0.00     0.010 A 
HETATM   20  C   UNL     1      43.819 -21.072   6.394  1.00  0.00     0.018 A 
HETATM   21  C   UNL     1      44.545 -20.791   5.228  1.00  0.00     0.039 A 
HETATM   22  C   UNL     1      45.032 -19.496   5.023  1.00  0.00     0.018 A 
HETATM   23  C   UNL     1      44.808 -18.500   5.977  1.00  0.00     0.010 A 
BRANCH  21  24
HETATM   24  C   UNL     1      44.771 -21.893   4.254  1.00  0.00     0.292 C 
HETATM   25  O   UNL     1      44.750 -23.072   4.565  1.00  0.00    -0.259 OA
BRANCH  24  26
HETATM   26  O   UNL     1      45.021 -21.393   3.020  1.00  0.00    -0.323 OA
HETATM   27  C   UNL     1      43.968 -21.611   2.077  1.00  0.00     0.213 C 
ENDBRANCH  24  26
ENDBRANCH  21  24
ENDBRANCH  17  18
ENDBRANCH  13  17
ENDBRANCH   2  10
BRANCH   6  28
HETATM   28  C   UNL     1      40.669 -16.200   1.272  1.00  0.00     0.106 C 
HETATM   29  C   UNL     1      39.535 -15.149   1.198  1.00  0.00     0.065 C 
HETATM   30  C   UNL     1      39.897 -14.353  -0.017  1.00  0.00    -0.050 A 
HETATM   31  C   UNL     1      40.907 -14.970  -0.755  1.00  0.00    -0.050 A 
HETATM   32  C   UNL     1      39.308 -13.177  -0.455  1.00  0.00     0.007 A 
HETATM   33  C   UNL     1      41.346 -16.249  -0.119  1.00  0.00     0.065 C 
HETATM   34  C   UNL     1      41.344 -14.431  -1.956  1.00  0.00     0.007 A 
HETATM   35  C   UNL     1      40.758 -13.244  -2.403  1.00  0.00     0.001 A 
HETATM   36  C   UNL     1      39.749 -12.620  -1.657  1.00  0.00     0.001 A 
ENDBRANCH   6  28
TORSDOF 6
ENDMDL
MODEL 5
REMARK VINA RESULT:      -9.1      2.311      6.810
REMARK  6 active torsions:
REMARK  status: ('A' for Active; 'I' for Inactive)
REMARK    1  A    between atoms: C_2  and  C_3 
REMARK    2  A    between atoms: N_6  and  C_8 
REMARK    3  A    between atoms: C_8  and  C_9 
REMARK    4  A    between atoms: C_12  and  C_13 
REMARK    5  A    between atoms: C_13  and  O_14 
REMARK    6  A    between atoms: N_24  and  C_25 
ROOT
HETATM    1  C   UNL     1      39.823 -13.488   6.199  1.00  0.00     0.049 C 
HETATM    2  C   UNL     1      40.588 -13.954   4.955  1.00  0.00     0.116 C 
HETATM    3  N   UNL     1      40.247 -15.321   4.649  1.00  0.00    -0.324 N 
HETATM    4  C   UNL     1      41.236 -16.202   5.044  1.00  0.00     0.326 C 
HETATM    5  O   UNL     1      41.075 -17.403   4.953  1.00  0.00    -0.247 OA
HETATM    6  N   UNL     1      42.309 -15.496   5.489  1.00  0.00    -0.263 N 
HETATM    7  C   UNL     1      42.062 -14.155   5.360  1.00  0.00     0.256 C 
HETATM    8  O   UNL     1      42.860 -13.245   5.538  1.00  0.00    -0.270 OA
HETATM    9  H   UNL     1      39.310 -15.710   4.692  1.00  0.00     0.165 HD
ENDROOT
BRANCH   2  10
HETATM   10  C   UNL     1      40.448 -12.979   3.748  1.00  0.00     0.026 C 
HETATM   11  C   UNL     1      39.206 -13.219   2.874  1.00  0.00     0.035 C 
HETATM   12  C   UNL     1      39.326 -14.404   1.922  1.00  0.00     0.235 C 
HETATM   13  N   UNL     1      40.564 -14.285   1.069  1.00  0.00    -0.067 N 
HETATM   14  H   UNL     1      40.431 -13.463   0.466  1.00  0.00     0.280 HD
HETATM   15  C   UNL     1      41.828 -14.072   1.867  1.00  0.00     0.235 C 
HETATM   16  C   UNL     1      41.676 -12.894   2.817  1.00  0.00     0.035 C 
BRANCH  13  17
HETATM   17  C   UNL     1      40.755 -15.469   0.129  1.00  0.00     0.273 C 
BRANCH  17  18
HETATM   18  C   UNL     1      41.603 -16.579   0.690  1.00  0.00    -0.033 A 
HETATM   19  C   UNL     1      42.994 -16.585   0.516  1.00  0.00     0.010 A 
HETATM   20  C   UNL     1      43.760 -17.650   1.002  1.00  0.00     0.018 A 
HETATM   21  C   UNL     1      43.151 -18.725   1.664  1.00  0.00     0.039 A 
HETATM   22  C   UNL     1      41.764 -18.714   1.850  1.00  0.00     0.018 A 
HETATM   23  C   UNL     1      40.997 -17.650   1.369  1.00  0.00     0.010 A 
BRANCH  21  24
HETATM   24  C   UNL     1      44.011 -19.842   2.140  1.00  0.00     0.292 C 
HETATM   25  O   UNL     1      45.135 -19.675   2.584  1.00  0.00    -0.259 OA
BRANCH  24  26
HETATM   26  O   UNL     1      43.379 -21.029   1.983  1.00  0.00    -0.323 OA
HETATM   27  C   UNL     1      44.237 -22.168   2.095  1.00  0.00     0.213 C 
ENDBRANCH  24  26
ENDBRANCH  21  24
ENDBRANCH  17  18
ENDBRANCH  13  17
ENDBRANCH   2  10
BRANCH   6  28
HETATM   28  C   UNL     1      43.620 -16.030   5.878  1.00  0.00     0.106 C 
HETATM   29  C   UNL     1      43.698 -16.533   7.339  1.00  0.00     0.065 C 
HETATM   30  C   UNL     1      43.729 -18.021   7.180  1.00  0.00    -0.050 A 
HETATM   31  C   UNL     1      43.938 -18.392   5.850  1.00  0.00    -0.050 A 
HETATM   32  C   UNL     1      43.634 -18.974   8.181  1.00  0.00     0.007 A 
HETATM   33  C   UNL     1      44.065 -17.196   4.962  1.00  0.00     0.065 C 
HETATM   34  C   UNL     1      44.067 -19.725   5.495  1.00  0.00     0.007 A 
HETATM   35  C   UNL     1      43.969 -20.693   6.497  1.00  0.00     0.001 A 
HETATM   36  C   UNL     1      43.752 -20.320   7.831  1.00  0.00     0.001 A 
ENDBRANCH   6  28
TORSDOF 6
ENDMDL
MODEL 6
REMARK VINA RESULT:      -8.9      4.895      8.157
REMARK  6 active torsions:
REMARK  status: ('A' for Active; 'I' for Inactive)
REMARK    1  A    between atoms: C_2  and  C_3 
REMARK    2  A    between atoms: N_6  and  C_8 
REMARK    3  A    between atoms: C_8  and  C_9 
REMARK    4  A    between atoms: C_12  and  C_13 
REMARK    5  A    between atoms: C_13  and  O_14 
REMARK    6  A    between atoms: N_24  and  C_25 
ROOT
HETATM    1  C   UNL     1      40.832 -12.455   1.616  1.00  0.00     0.049 C 
HETATM    2  C   UNL     1      40.506 -13.038   2.997  1.00  0.00     0.116 C 
HETATM    3  N   UNL     1      41.726 -13.354   3.700  1.00  0.00    -0.324 N 
HETATM    4  C   UNL     1      41.995 -14.709   3.682  1.00  0.00     0.326 C 
HETATM    5  O   UNL     1      43.033 -15.145   4.141  1.00  0.00    -0.247 OA
HETATM    6  N   UNL     1      40.949 -15.364   3.114  1.00  0.00    -0.263 N 
HETATM    7  C   UNL     1      39.967 -14.467   2.787  1.00  0.00     0.256 C 
HETATM    8  O   UNL     1      38.842 -14.728   2.385  1.00  0.00    -0.270 OA
HETATM    9  H   UNL     1      42.556 -12.771   3.715  1.00  0.00     0.165 HD
ENDROOT
BRANCH   2  10
HETATM   10  C   UNL     1      39.512 -12.159   3.814  1.00  0.00     0.026 C 
HETATM   11  C   UNL     1      39.836 -10.656   3.810  1.00  0.00     0.035 C 
HETATM   12  C   UNL     1      40.976 -10.255   4.738  1.00  0.00     0.235 C 
HETATM   13  N   UNL     1      40.722 -10.743   6.143  1.00  0.00    -0.067 N 
HETATM   14  H   UNL     1      39.898 -10.234   6.489  1.00  0.00     0.280 HD
HETATM   15  C   UNL     1      40.422 -12.219   6.223  1.00  0.00     0.235 C 
HETATM   16  C   UNL     1      39.290 -12.593   5.278  1.00  0.00     0.035 C 
BRANCH  13  17
HETATM   17  C   UNL     1      41.857 -10.405   7.103  1.00  0.00     0.273 C 
BRANCH  17  18
HETATM   18  C   UNL     1      41.509 -10.564   8.559  1.00  0.00    -0.033 A 
HETATM   19  C   UNL     1      42.494 -10.862   9.510  1.00  0.00     0.010 A 
HETATM   20  C   UNL     1      42.143 -11.054  10.850  1.00  0.00     0.018 A 
HETATM   21  C   UNL     1      40.807 -10.955  11.261  1.00  0.00     0.039 A 
HETATM   22  C   UNL     1      39.824 -10.645  10.315  1.00  0.00     0.018 A 
HETATM   23  C   UNL     1      40.172 -10.450   8.977  1.00  0.00     0.010 A 
BRANCH  21  24
HETATM   24  C   UNL     1      40.488 -11.191  12.696  1.00  0.00     0.292 C 
HETATM   25  O   UNL     1      40.030 -12.242  13.112  1.00  0.00    -0.259 OA
BRANCH  24  26
HETATM   26  O   UNL     1      40.755 -10.085  13.430  1.00  0.00    -0.323 OA
HETATM   27  C   UNL     1      41.799 -10.259  14.391  1.00  0.00     0.213 C 
ENDBRANCH  24  26
ENDBRANCH  21  24
ENDBRANCH  17  18
ENDBRANCH  13  17
ENDBRANCH   2  10
BRANCH   6  28
HETATM   28  C   UNL     1      40.763 -16.817   3.014  1.00  0.00     0.106 C 
HETATM   29  C   UNL     1      41.516 -17.479   1.834  1.00  0.00     0.065 C 
HETATM   30  C   UNL     1      42.636 -18.200   2.514  1.00  0.00    -0.050 A 
HETATM   31  C   UNL     1      42.457 -18.242   3.898  1.00  0.00    -0.050 A 
HETATM   32  C   UNL     1      43.716 -18.829   1.914  1.00  0.00     0.007 A 
HETATM   33  C   UNL     1      41.199 -17.547   4.308  1.00  0.00     0.065 C 
HETATM   34  C   UNL     1      43.350 -18.923   4.711  1.00  0.00     0.007 A 
HETATM   35  C   UNL     1      44.442 -19.557   4.116  1.00  0.00     0.001 A 
HETATM   36  C   UNL     1      44.625 -19.509   2.726  1.00  0.00     0.001 A 
ENDBRANCH   6  28
TORSDOF 6
ENDMDL
MODEL 7
REMARK VINA RESULT:      -8.8      2.959      9.342
REMARK  6 active torsions:
REMARK  status: ('A' for Active; 'I' for Inactive)
REMARK    1  A    between atoms: C_2  and  C_3 
REMARK    2  A    between atoms: N_6  and  C_8 
REMARK    3  A    between atoms: C_8  and  C_9 
REMARK    4  A    between atoms: C_12  and  C_13 
REMARK    5  A    between atoms: C_13  and  O_14 
REMARK    6  A    between atoms: N_24  and  C_25 
ROOT
HETATM    1  C   UNL     1      39.606 -14.061   4.911  1.00  0.00     0.049 C 
HETATM    2  C   UNL     1      40.112 -14.041   3.463  1.00  0.00     0.116 C 
HETATM    3  N   UNL     1      39.781 -15.283   2.808  1.00  0.00    -0.324 N 
HETATM    4  C   UNL     1      40.874 -16.123   2.711  1.00  0.00     0.326 C 
HETATM    5  O   UNL     1      40.756 -17.252   2.275  1.00  0.00    -0.247 OA
HETATM    6  N   UNL     1      41.980 -15.468   3.150  1.00  0.00    -0.263 N 
HETATM    7  C   UNL     1      41.647 -14.187   3.502  1.00  0.00     0.256 C 
HETATM    8  O   UNL     1      42.418 -13.289   3.809  1.00  0.00    -0.270 OA
HETATM    9  H   UNL     1      38.895 -15.770   2.899  1.00  0.00     0.165 HD
ENDROOT
BRANCH   2  10
HETATM   10  C   UNL     1      39.671 -12.770   2.677  1.00  0.00     0.026 C 
HETATM   11  C   UNL     1      38.369 -12.934   1.877  1.00  0.00     0.035 C 
HETATM   12  C   UNL     1      38.525 -13.705   0.572  1.00  0.00     0.235 C 
HETATM   13  N   UNL     1      39.606 -13.097  -0.286  1.00  0.00    -0.067 N 
HETATM   14  H   UNL     1      39.277 -12.163  -0.561  1.00  0.00     0.280 HD
HETATM   15  C   UNL     1      40.923 -12.931   0.431  1.00  0.00     0.235 C 
HETATM   16  C   UNL     1      40.736 -12.170   1.735  1.00  0.00     0.035 C 
BRANCH  13  17
HETATM   17  C   UNL     1      39.833 -13.860  -1.586  1.00  0.00     0.273 C 
BRANCH  17  18
HETATM   18  C   UNL     1      38.644 -13.886  -2.508  1.00  0.00    -0.033 A 
HETATM   19  C   UNL     1      38.205 -15.084  -3.090  1.00  0.00     0.010 A 
HETATM   20  C   UNL     1      37.128 -15.081  -3.983  1.00  0.00     0.018 A 
HETATM   21  C   UNL     1      36.476 -13.884  -4.311  1.00  0.00     0.039 A 
HETATM   22  C   UNL     1      36.904 -12.690  -3.722  1.00  0.00     0.018 A 
HETATM   23  C   UNL     1      37.977 -12.691  -2.827  1.00  0.00     0.010 A 
BRANCH  21  24
HETATM   24  C   UNL     1      35.351 -13.936  -5.284  1.00  0.00     0.292 C 
HETATM   25  O   UNL     1      34.199 -13.669  -4.985  1.00  0.00    -0.259 OA
BRANCH  24  26
HETATM   26  O   UNL     1      35.792 -14.338  -6.500  1.00  0.00    -0.323 OA
HETATM   27  C   UNL     1      35.083 -13.759  -7.599  1.00  0.00     0.213 C 
ENDBRANCH  24  26
ENDBRANCH  21  24
ENDBRANCH  17  18
ENDBRANCH  13  17
ENDBRANCH   2  10
BRANCH   6  28
HETATM   28  C   UNL     1      43.369 -15.943   3.098  1.00  0.00     0.106 C 
HETATM   29  C   UNL     1      43.797 -16.802   4.312  1.00  0.00     0.065 C 
HETATM   30  C   UNL     1      43.860 -18.183   3.739  1.00  0.00    -0.050 A 
HETATM   31  C   UNL     1      43.781 -18.166   2.345  1.00  0.00    -0.050 A 
HETATM   32  C   UNL     1      44.036 -19.371   4.430  1.00  0.00     0.007 A 
HETATM   33  C   UNL     1      43.649 -16.772   1.822  1.00  0.00     0.065 C 
HETATM   34  C   UNL     1      43.888 -19.337   1.611  1.00  0.00     0.007 A 
HETATM   35  C   UNL     1      44.063 -20.540   2.300  1.00  0.00     0.001 A 
HETATM   36  C   UNL     1      44.135 -20.557   3.700  1.00  0.00     0.001 A 
ENDBRANCH   6  28
TORSDOF 6
ENDMDL
MODEL 8
REMARK VINA RESULT:      -8.7      2.831      9.013
REMARK  6 active torsions:
REMARK  status: ('A' for Active; 'I' for Inactive)
REMARK    1  A    between atoms: C_2  and  C_3 
REMARK    2  A    between atoms: N_6  and  C_8 
REMARK    3  A    between atoms: C_8  and  C_9 
REMARK    4  A    between atoms: C_12  and  C_13 
REMARK    5  A    between atoms: C_13  and  O_14 
REMARK    6  A    between atoms: N_24  and  C_25 
ROOT
HETATM    1  C   UNL     1      40.679 -16.357   6.218  1.00  0.00     0.049 C 
HETATM    2  C   UNL     1      41.331 -15.889   4.911  1.00  0.00     0.116 C 
HETATM    3  N   UNL     1      40.917 -16.739   3.821  1.00  0.00    -0.324 N 
HETATM    4  C   UNL     1      41.901 -17.644   3.470  1.00  0.00     0.326 C 
HETATM    5  O   UNL     1      41.689 -18.503   2.636  1.00  0.00    -0.247 OA
HETATM    6  N   UNL     1      43.029 -17.372   4.177  1.00  0.00    -0.263 N 
HETATM    7  C   UNL     1      42.823 -16.273   4.968  1.00  0.00     0.256 C 
HETATM    8  O   UNL     1      43.664 -15.680   5.627  1.00  0.00    -0.270 OA
HETATM    9  H   UNL     1      39.973 -17.082   3.678  1.00  0.00     0.165 HD
ENDROOT
BRANCH   2  10
HETATM   10  C   UNL     1      41.136 -14.367   4.639  1.00  0.00     0.026 C 
HETATM   11  C   UNL     1      39.752 -13.989   4.086  1.00  0.00     0.035 C 
HETATM   12  C   UNL     1      39.562 -14.293   2.605  1.00  0.00     0.235 C 
HETATM   13  N   UNL     1      40.657 -13.661   1.782  1.00  0.00    -0.067 N 
HETATM   14  H   UNL     1      40.543 -12.643   1.867  1.00  0.00     0.280 HD
HETATM   15  C   UNL     1      42.046 -14.011   2.256  1.00  0.00     0.235 C 
HETATM   16  C   UNL     1      42.203 -13.711   3.738  1.00  0.00     0.035 C 
BRANCH  13  17
HETATM   17  C   UNL     1      40.538 -13.973   0.294  1.00  0.00     0.273 C 
BRANCH  17  18
HETATM   18  C   UNL     1      41.099 -12.910  -0.612  1.00  0.00    -0.033 A 
HETATM   19  C   UNL     1      40.718 -11.568  -0.475  1.00  0.00     0.010 A 
HETATM   20  C   UNL     1      41.213 -10.602  -1.357  1.00  0.00     0.018 A 
HETATM   21  C   UNL     1      42.090 -10.960  -2.390  1.00  0.00     0.039 A 
HETATM   22  C   UNL     1      42.481 -12.297  -2.520  1.00  0.00     0.018 A 
HETATM   23  C   UNL     1      41.992 -13.263  -1.638  1.00  0.00     0.010 A 
BRANCH  21  24
HETATM   24  C   UNL     1      42.568  -9.895  -3.314  1.00  0.00     0.292 C 
HETATM   25  O   UNL     1      42.815  -8.758  -2.948  1.00  0.00    -0.259 OA
BRANCH  24  26
HETATM   26  O   UNL     1      42.654 -10.368  -4.580  1.00  0.00    -0.323 OA
HETATM   27  C   UNL     1      42.469  -9.372  -5.590  1.00  0.00     0.213 C 
ENDBRANCH  24  26
ENDBRANCH  21  24
ENDBRANCH  17  18
ENDBRANCH  13  17
ENDBRANCH   2  10
BRANCH   6  28
HETATM   28  C   UNL     1      44.346 -18.003   4.019  1.00  0.00     0.106 C 
HETATM   29  C   UNL     1      44.769 -18.906   5.203  1.00  0.00     0.065 C 
HETATM   30  C   UNL     1      44.627 -20.285   4.640  1.00  0.00    -0.050 A 
HETATM   31  C   UNL     1      44.439 -20.260   3.257  1.00  0.00    -0.050 A 
HETATM   32  C   UNL     1      44.721 -21.485   5.327  1.00  0.00     0.007 A 
HETATM   33  C   UNL     1      44.426 -18.860   2.732  1.00  0.00     0.065 C 
HETATM   34  C   UNL     1      44.352 -21.436   2.529  1.00  0.00     0.007 A 
HETATM   35  C   UNL     1      44.443 -22.650   3.213  1.00  0.00     0.001 A 
HETATM   36  C   UNL     1      44.625 -22.675   4.603  1.00  0.00     0.001 A 
ENDBRANCH   6  28
TORSDOF 6
ENDMDL
MODEL 9
REMARK VINA RESULT:      -8.6      2.259      3.566
REMARK  6 active torsions:
REMARK  status: ('A' for Active; 'I' for Inactive)
REMARK    1  A    between atoms: C_2  and  C_3 
REMARK    2  A    between atoms: N_6  and  C_8 
REMARK    3  A    between atoms: C_8  and  C_9 
REMARK    4  A    between atoms: C_12  and  C_13 
REMARK    5  A    between atoms: C_13  and  O_14 
REMARK    6  A    between atoms: N_24  and  C_25 
ROOT
HETATM    1  C   UNL     1      39.521 -10.087   1.607  1.00  0.00     0.049 C 
HETATM    2  C   UNL     1      40.261 -11.413   1.395  1.00  0.00     0.116 C 
HETATM    3  N   UNL     1      41.679 -11.176   1.284  1.00  0.00    -0.324 N 
HETATM    4  C   UNL     1      42.112 -11.234  -0.027  1.00  0.00     0.326 C 
HETATM    5  O   UNL     1      43.261 -10.962  -0.318  1.00  0.00    -0.247 OA
HETATM    6  N   UNL     1      41.082 -11.635  -0.818  1.00  0.00    -0.263 N 
HETATM    7  C   UNL     1      39.978 -11.881  -0.047  1.00  0.00     0.256 C 
HETATM    8  O   UNL     1      38.925 -12.382  -0.417  1.00  0.00    -0.270 OA
HETATM    9  H   UNL     1      42.207 -10.530   1.862  1.00  0.00     0.165 HD
ENDROOT
BRANCH   2  10
HETATM   10  C   UNL     1      39.879 -12.503   2.442  1.00  0.00     0.026 C 
HETATM   11  C   UNL     1      40.644 -12.407   3.772  1.00  0.00     0.035 C 
HETATM   12  C   UNL     1      42.071 -12.939   3.716  1.00  0.00     0.235 C 
HETATM   13  N   UNL     1      42.097 -14.351   3.184  1.00  0.00    -0.067 N 
HETATM   14  H   UNL     1      41.615 -14.938   3.877  1.00  0.00     0.280 HD
HETATM   15  C   UNL     1      41.383 -14.512   1.865  1.00  0.00     0.235 C 
HETATM   16  C   UNL     1      39.968 -13.961   1.945  1.00  0.00     0.035 C 
BRANCH  13  17
HETATM   17  C   UNL     1      43.508 -14.916   3.067  1.00  0.00     0.273 C 
BRANCH  17  18
HETATM   18  C   UNL     1      43.569 -16.411   2.909  1.00  0.00    -0.033 A 
HETATM   19  C   UNL     1      43.421 -17.262   4.013  1.00  0.00     0.010 A 
HETATM   20  C   UNL     1      43.530 -18.648   3.854  1.00  0.00     0.018 A 
HETATM   21  C   UNL     1      43.791 -19.204   2.594  1.00  0.00     0.039 A 
HETATM   22  C   UNL     1      43.927 -18.357   1.489  1.00  0.00     0.018 A 
HETATM   23  C   UNL     1      43.815 -16.974   1.645  1.00  0.00     0.010 A 
BRANCH  21  24
HETATM   24  C   UNL     1      43.919 -20.683   2.487  1.00  0.00     0.292 C 
HETATM   25  O   UNL     1      43.339 -21.342   1.641  1.00  0.00    -0.259 OA
BRANCH  24  26
HETATM   26  O   UNL     1      44.732 -21.162   3.459  1.00  0.00    -0.323 OA
HETATM   27  C   UNL     1      44.665 -22.580   3.631  1.00  0.00     0.213 C 
ENDBRANCH  24  26
ENDBRANCH  21  24
ENDBRANCH  17  18
ENDBRANCH  13  17
ENDBRANCH   2  10
BRANCH   6  28
HETATM   28  C   UNL     1      41.139 -11.953  -2.251  1.00  0.00     0.106 C 
HETATM   29  C   UNL     1      41.881 -13.269  -2.585  1.00  0.00     0.065 C 
HETATM   30  C   UNL     1      40.767 -14.194  -2.963  1.00  0.00    -0.050 A 
HETATM   31  C   UNL     1      39.563 -13.508  -3.132  1.00  0.00    -0.050 A 
HETATM   32  C   UNL     1      40.852 -15.558  -3.198  1.00  0.00     0.007 A 
HETATM   33  C   UNL     1      39.728 -12.045  -2.880  1.00  0.00     0.065 C 
HETATM   34  C   UNL     1      38.419 -14.171  -3.549  1.00  0.00     0.007 A 
HETATM   35  C   UNL     1      38.494 -15.545  -3.784  1.00  0.00     0.001 A 
HETATM   36  C   UNL     1      39.702 -16.235  -3.608  1.00  0.00     0.001 A 
ENDBRANCH   6  28
TORSDOF 6
ENDMDL
MODEL 10
REMARK VINA RESULT:      -8.6      4.118      8.294
REMARK  6 active torsions:
REMARK  status: ('A' for Active; 'I' for Inactive)
REMARK    1  A    between atoms: C_2  and  C_3 
REMARK    2  A    between atoms: N_6  and  C_8 
REMARK    3  A    between atoms: C_8  and  C_9 
REMARK    4  A    between atoms: C_12  and  C_13 
REMARK    5  A    between atoms: C_13  and  O_14 
REMARK    6  A    between atoms: N_24  and  C_25 
ROOT
HETATM    1  C   UNL     1      40.266 -14.139   5.874  1.00  0.00     0.049 C 
HETATM    2  C   UNL     1      40.877 -12.771   5.546  1.00  0.00     0.116 C 
HETATM    3  N   UNL     1      42.188 -12.663   6.137  1.00  0.00    -0.324 N 
HETATM    4  C   UNL     1      42.177 -11.888   7.281  1.00  0.00     0.326 C 
HETATM    5  O   UNL     1      43.175 -11.769   7.965  1.00  0.00    -0.247 OA
HETATM    6  N   UNL     1      40.941 -11.344   7.438  1.00  0.00    -0.263 N 
HETATM    7  C   UNL     1      40.139 -11.714   6.392  1.00  0.00     0.256 C 
HETATM    8  O   UNL     1      39.016 -11.297   6.149  1.00  0.00    -0.270 OA
HETATM    9  H   UNL     1      42.884 -13.401   6.148  1.00  0.00     0.165 HD
ENDROOT
BRANCH   2  10
HETATM   10  C   UNL     1      40.834 -12.429   4.026  1.00  0.00     0.026 C 
HETATM   11  C   UNL     1      39.585 -12.940   3.291  1.00  0.00     0.035 C 
HETATM   12  C   UNL     1      39.609 -14.430   2.970  1.00  0.00     0.235 C 
HETATM   13  N   UNL     1      40.862 -14.796   2.213  1.00  0.00    -0.067 N 
HETATM   14  H   UNL     1      40.807 -14.322   1.302  1.00  0.00     0.280 HD
HETATM   15  C   UNL     1      42.131 -14.344   2.893  1.00  0.00     0.235 C 
HETATM   16  C   UNL     1      42.074 -12.859   3.214  1.00  0.00     0.035 C 
BRANCH  13  17
HETATM   17  C   UNL     1      40.956 -16.285   1.905  1.00  0.00     0.273 C 
BRANCH  17  18
HETATM   18  C   UNL     1      41.844 -17.060   2.842  1.00  0.00    -0.033 A 
HETATM   19  C   UNL     1      43.111 -17.502   2.437  1.00  0.00     0.010 A 
HETATM   20  C   UNL     1      43.902 -18.263   3.305  1.00  0.00     0.018 A 
HETATM   21  C   UNL     1      43.441 -18.595   4.586  1.00  0.00     0.039 A 
HETATM   22  C   UNL     1      42.182 -18.144   4.996  1.00  0.00     0.018 A 
HETATM   23  C   UNL     1      41.391 -17.381   4.133  1.00  0.00     0.010 A 
BRANCH  21  24
HETATM   24  C   UNL     1      44.314 -19.425   5.459  1.00  0.00     0.292 C 
HETATM   25  O   UNL     1      44.392 -19.268   6.666  1.00  0.00    -0.259 OA
BRANCH  24  26
HETATM   26  O   UNL     1      45.001 -20.331   4.722  1.00  0.00    -0.323 OA
HETATM   27  C   UNL     1      44.854 -21.681   5.171  1.00  0.00     0.213 C 
ENDBRANCH  24  26
ENDBRANCH  21  24
ENDBRANCH  17  18
ENDBRANCH  13  17
ENDBRANCH   2  10
BRANCH   6  28
HETATM   28  C   UNL     1      40.530 -10.358   8.445  1.00  0.00     0.106 C 
HETATM   29  C   UNL     1      39.861 -10.966   9.701  1.00  0.00     0.065 C 
HETATM   30  C   UNL     1      40.917 -10.814  10.750  1.00  0.00    -0.050 A 
HETATM   31  C   UNL     1      41.956  -9.987  10.319  1.00  0.00    -0.050 A 
HETATM   32  C   UNL     1      40.909 -11.341  12.032  1.00  0.00     0.007 A 
HETATM   33  C   UNL     1      41.721  -9.493   8.928  1.00  0.00     0.065 C 
HETATM   34  C   UNL     1      43.004  -9.660  11.165  1.00  0.00     0.007 A 
HETATM   35  C   UNL     1      43.006 -10.190  12.458  1.00  0.00     0.001 A 
HETATM   36  C   UNL     1      41.966 -11.026  12.888  1.00  0.00     0.001 A 
ENDBRANCH   6  28
TORSDOF 6
ENDMDL
