MODEL 1
REMARK VINA RESULT:      -9.2      0.000      0.000
REMARK  5 active torsions:
REMARK  status: ('A' for Active; 'I' for Inactive)
REMARK    1  A    between atoms: C_3  and  N_4 
REMARK       I    between atoms: N_4  and  C_5 
REMARK    2  A    between atoms: C_5  and  C_6 
REMARK    3  A    between atoms: C_6  and  N_7 
REMARK       I    between atoms: N_7  and  C_8 
REMARK    4  A    between atoms: C_8  and  C_9 
REMARK    5  A    between atoms: C_10  and  C_11 
ROOT
HETATM    1  N   UNL     1      43.308 -13.777   6.470  1.00  0.00    -0.348 N 
HETATM    2  C   UNL     1      44.288 -14.193   7.339  1.00  0.00     0.255 C 
HETATM    3  O   UNL     1      44.302 -15.324   7.816  1.00  0.00    -0.268 OA
HETATM    4  H   UNL     1      43.285 -12.805   6.191  1.00  0.00     0.163 HD
ENDROOT
BRANCH   1   5
HETATM    5  C   UNL     1      42.353 -14.684   5.859  1.00  0.00     0.226 C 
BRANCH   5   6
HETATM    6  C   UNL     1      42.903 -15.560   4.725  1.00  0.00     0.239 C 
HETATM    7  N   UNL     1      42.613 -16.906   4.886  1.00  0.00    -0.325 N 
HETATM    8  H   UNL     1      42.303 -17.154   5.827  1.00  0.00     0.169 HD
HETATM    9  O   UNL     1      43.646 -15.079   3.874  1.00  0.00    -0.271 OA
BRANCH   7  10
HETATM   10  C   UNL     1      43.174 -17.952   4.116  1.00  0.00     0.046 A 
HETATM   11  C   UNL     1      44.151 -18.768   4.735  1.00  0.00    -0.035 A 
HETATM   12  C   UNL     1      44.627 -18.524   6.145  1.00  0.00     0.050 C 
HETATM   13  C   UNL     1      44.738 -19.820   4.014  1.00  0.00     0.009 A 
HETATM   14  C   UNL     1      44.372 -20.066   2.696  1.00  0.00     0.001 A 
HETATM   15  C   UNL     1      43.397 -19.279   2.093  1.00  0.00     0.009 A 
HETATM   16  C   UNL     1      42.766 -18.235   2.795  1.00  0.00    -0.035 A 
HETATM   17  C   UNL     1      41.658 -17.511   2.080  1.00  0.00     0.050 C 
ENDBRANCH   7  10
ENDBRANCH   5   6
ENDBRANCH   1   5
BRANCH   2  18
HETATM   18  C   UNL     1      45.282 -13.176   7.629  1.00  0.00     0.080 A 
HETATM   19  C   UNL     1      45.318 -12.152   8.632  1.00  0.00     0.104 A 
HETATM   20  N   UNL     1      46.481 -11.473   8.557  1.00  0.00    -0.174 NA
HETATM   21  N   UNL     1      47.160 -12.040   7.559  1.00  0.00    -0.288 N 
HETATM   22  H   UNL     1      48.087 -11.685   7.348  1.00  0.00     0.188 HD
HETATM   23  C   UNL     1      46.484 -13.048   6.953  1.00  0.00     0.128 A 
BRANCH  19  24
HETATM   24  C   UNL     1      44.317 -11.739   9.631  1.00  0.00    -0.004 A 
HETATM   25  C   UNL     1      44.410 -12.098  10.983  1.00  0.00     0.017 A 
HETATM   26  C   UNL     1      43.411 -11.726  11.891  1.00  0.00     0.043 A 
HETATM   27  C   UNL     1      42.308 -11.006  11.451  1.00  0.00     0.116 A 
HETATM   28  F   UNL     1      41.348 -10.666  12.320  1.00  0.00    -0.206 F 
HETATM   29  C   UNL     1      42.184 -10.644  10.118  1.00  0.00     0.043 A 
HETATM   30  C   UNL     1      43.185 -11.008   9.213  1.00  0.00     0.017 A 
ENDBRANCH  19  24
ENDBRANCH   2  18
TORSDOF 5
ENDMDL
MODEL 2
REMARK VINA RESULT:      -9.2      0.265      1.689
REMARK  5 active torsions:
REMARK  status: ('A' for Active; 'I' for Inactive)
REMARK    1  A    between atoms: C_3  and  N_4 
REMARK       I    between atoms: N_4  and  C_5 
REMARK    2  A    between atoms: C_5  and  C_6 
REMARK    3  A    between atoms: C_6  and  N_7 
REMARK       I    between atoms: N_7  and  C_8 
REMARK    4  A    between atoms: C_8  and  C_9 
REMARK    5  A    between atoms: C_10  and  C_11 
ROOT
HETATM    1  N   UNL     1      43.269 -13.720   6.519  1.00  0.00    -0.348 N 
HETATM    2  C   UNL     1      44.257 -14.150   7.374  1.00  0.00     0.255 C 
HETATM    3  O   UNL     1      44.274 -15.288   7.834  1.00  0.00    -0.268 OA
HETATM    4  H   UNL     1      43.245 -12.745   6.254  1.00  0.00     0.163 HD
ENDROOT
BRANCH   1   5
HETATM    5  C   UNL     1      42.308 -14.618   5.905  1.00  0.00     0.226 C 
BRANCH   5   6
HETATM    6  C   UNL     1      42.845 -15.474   4.749  1.00  0.00     0.239 C 
HETATM    7  N   UNL     1      42.467 -16.805   4.836  1.00  0.00    -0.325 N 
HETATM    8  H   UNL     1      42.108 -17.075   5.752  1.00  0.00     0.169 HD
HETATM    9  O   UNL     1      43.646 -15.001   3.948  1.00  0.00    -0.271 OA
BRANCH   7  10
HETATM   10  C   UNL     1      42.991 -17.847   4.035  1.00  0.00     0.046 A 
HETATM   11  C   UNL     1      42.415 -18.039   2.756  1.00  0.00    -0.035 A 
HETATM   12  C   UNL     1      41.257 -17.210   2.261  1.00  0.00     0.050 C 
HETATM   13  C   UNL     1      42.900 -19.059   1.921  1.00  0.00     0.009 A 
HETATM   14  C   UNL     1      43.936 -19.885   2.340  1.00  0.00     0.001 A 
HETATM   15  C   UNL     1      44.517 -19.684   3.588  1.00  0.00     0.009 A 
HETATM   16  C   UNL     1      44.076 -18.652   4.438  1.00  0.00    -0.035 A 
HETATM   17  C   UNL     1      44.838 -18.461   5.722  1.00  0.00     0.050 C 
ENDBRANCH   7  10
ENDBRANCH   5   6
ENDBRANCH   1   5
BRANCH   2  18
HETATM   18  C   UNL     1      45.255 -13.139   7.669  1.00  0.00     0.080 A 
HETATM   19  C   UNL     1      45.298 -12.124   8.682  1.00  0.00     0.104 A 
HETATM   20  N   UNL     1      46.463 -11.448   8.608  1.00  0.00    -0.174 NA
HETATM   21  N   UNL     1      47.135 -12.006   7.601  1.00  0.00    -0.288 N 
HETATM   22  H   UNL     1      48.062 -11.652   7.389  1.00  0.00     0.188 HD
HETATM   23  C   UNL     1      46.454 -13.007   6.988  1.00  0.00     0.128 A 
BRANCH  19  24
HETATM   24  C   UNL     1      44.302 -11.718   9.689  1.00  0.00    -0.004 A 
HETATM   25  C   UNL     1      44.400 -12.091  11.036  1.00  0.00     0.017 A 
HETATM   26  C   UNL     1      43.406 -11.726  11.953  1.00  0.00     0.043 A 
HETATM   27  C   UNL     1      42.304 -10.997  11.525  1.00  0.00     0.116 A 
HETATM   28  F   UNL     1      41.349 -10.663  12.401  1.00  0.00    -0.206 F 
HETATM   29  C   UNL     1      42.176 -10.620  10.196  1.00  0.00     0.043 A 
HETATM   30  C   UNL     1      43.171 -10.979   9.284  1.00  0.00     0.017 A 
ENDBRANCH  19  24
ENDBRANCH   2  18
TORSDOF 5
ENDMDL
MODEL 3
REMARK VINA RESULT:      -9.1      4.060      5.272
REMARK  5 active torsions:
REMARK  status: ('A' for Active; 'I' for Inactive)
REMARK    1  A    between atoms: C_3  and  N_4 
REMARK       I    between atoms: N_4  and  C_5 
REMARK    2  A    between atoms: C_5  and  C_6 
REMARK    3  A    between atoms: C_6  and  N_7 
REMARK       I    between atoms: N_7  and  C_8 
REMARK    4  A    between atoms: C_8  and  C_9 
REMARK    5  A    between atoms: C_10  and  C_11 
ROOT
HETATM    1  N   UNL     1      43.206 -15.884   1.990  1.00  0.00    -0.348 N 
HETATM    2  C   UNL     1      41.978 -15.278   2.120  1.00  0.00     0.255 C 
HETATM    3  O   UNL     1      40.965 -15.737   1.601  1.00  0.00    -0.268 OA
HETATM    4  H   UNL     1      44.024 -15.409   2.347  1.00  0.00     0.163 HD
ENDROOT
BRANCH   1   5
HETATM    5  C   UNL     1      43.378 -17.217   1.441  1.00  0.00     0.226 C 
BRANCH   5   6
HETATM    6  C   UNL     1      43.240 -18.370   2.446  1.00  0.00     0.239 C 
HETATM    7  N   UNL     1      44.425 -19.061   2.647  1.00  0.00    -0.325 N 
HETATM    8  H   UNL     1      45.138 -18.876   1.941  1.00  0.00     0.169 HD
HETATM    9  O   UNL     1      42.135 -18.691   2.874  1.00  0.00    -0.271 OA
BRANCH   7  10
HETATM   10  C   UNL     1      44.537 -20.286   3.346  1.00  0.00     0.046 A 
HETATM   11  C   UNL     1      44.754 -20.223   4.744  1.00  0.00    -0.035 A 
HETATM   12  C   UNL     1      44.910 -18.914   5.476  1.00  0.00     0.050 C 
HETATM   13  C   UNL     1      44.870 -21.410   5.484  1.00  0.00     0.009 A 
HETATM   14  C   UNL     1      44.779 -22.647   4.858  1.00  0.00     0.001 A 
HETATM   15  C   UNL     1      44.545 -22.711   3.489  1.00  0.00     0.009 A 
HETATM   16  C   UNL     1      44.393 -21.542   2.720  1.00  0.00    -0.035 A 
HETATM   17  C   UNL     1      44.046 -21.727   1.267  1.00  0.00     0.050 C 
ENDBRANCH   7  10
ENDBRANCH   5   6
ENDBRANCH   1   5
BRANCH   2  18
HETATM   18  C   UNL     1      42.006 -14.067   2.917  1.00  0.00     0.080 A 
HETATM   19  C   UNL     1      42.265 -13.862   4.313  1.00  0.00     0.104 A 
HETATM   20  N   UNL     1      42.242 -12.544   4.598  1.00  0.00    -0.174 NA
HETATM   21  N   UNL     1      41.988 -11.934   3.440  1.00  0.00    -0.288 N 
HETATM   22  H   UNL     1      41.950 -10.919   3.430  1.00  0.00     0.188 HD
HETATM   23  C   UNL     1      41.816 -12.794   2.404  1.00  0.00     0.128 A 
BRANCH  19  24
HETATM   24  C   UNL     1      42.491 -14.822   5.407  1.00  0.00    -0.004 A 
HETATM   25  C   UNL     1      43.654 -14.811   6.190  1.00  0.00     0.017 A 
HETATM   26  C   UNL     1      43.852 -15.772   7.189  1.00  0.00     0.043 A 
HETATM   27  C   UNL     1      42.896 -16.757   7.401  1.00  0.00     0.116 A 
HETATM   28  F   UNL     1      43.096 -17.684   8.347  1.00  0.00    -0.206 F 
HETATM   29  C   UNL     1      41.739 -16.799   6.637  1.00  0.00     0.043 A 
HETATM   30  C   UNL     1      41.538 -15.835   5.645  1.00  0.00     0.017 A 
ENDBRANCH  19  24
ENDBRANCH   2  18
TORSDOF 5
ENDMDL
MODEL 4
REMARK VINA RESULT:      -9.1      4.670      8.015
REMARK  5 active torsions:
REMARK  status: ('A' for Active; 'I' for Inactive)
REMARK    1  A    between atoms: C_3  and  N_4 
REMARK       I    between atoms: N_4  and  C_5 
REMARK    2  A    between atoms: C_5  and  C_6 
REMARK    3  A    between atoms: C_6  and  N_7 
REMARK       I    between atoms: N_7  and  C_8 
REMARK    4  A    between atoms: C_8  and  C_9 
REMARK    5  A    between atoms: C_10  and  C_11 
ROOT
HETATM    1  N   UNL     1      45.149 -18.659   5.459  1.00  0.00    -0.348 N 
HETATM    2  C   UNL     1      44.449 -19.840   5.524  1.00  0.00     0.255 C 
HETATM    3  O   UNL     1      43.958 -20.252   6.570  1.00  0.00    -0.268 OA
HETATM    4  H   UNL     1      45.622 -18.420   4.598  1.00  0.00     0.163 HD
ENDROOT
BRANCH   1   5
HETATM    5  C   UNL     1      45.171 -17.690   6.540  1.00  0.00     0.226 C 
BRANCH   5   6
HETATM    6  C   UNL     1      43.933 -16.789   6.648  1.00  0.00     0.239 C 
HETATM    7  N   UNL     1      43.361 -16.500   5.418  1.00  0.00    -0.325 N 
HETATM    8  H   UNL     1      43.963 -16.711   4.621  1.00  0.00     0.169 HD
HETATM    9  O   UNL     1      43.624 -16.286   7.724  1.00  0.00    -0.271 OA
BRANCH   7  10
HETATM   10  C   UNL     1      42.352 -15.531   5.204  1.00  0.00     0.046 A 
HETATM   11  C   UNL     1      42.714 -14.356   4.502  1.00  0.00    -0.035 A 
HETATM   12  C   UNL     1      44.124 -14.102   4.031  1.00  0.00     0.050 C 
HETATM   13  C   UNL     1      41.750 -13.365   4.262  1.00  0.00     0.009 A 
HETATM   14  C   UNL     1      40.444 -13.522   4.711  1.00  0.00     0.001 A 
HETATM   15  C   UNL     1      40.081 -14.685   5.382  1.00  0.00     0.009 A 
HETATM   16  C   UNL     1      41.015 -15.714   5.614  1.00  0.00    -0.035 A 
HETATM   17  C   UNL     1      40.493 -16.968   6.262  1.00  0.00     0.050 C 
ENDBRANCH   7  10
ENDBRANCH   5   6
ENDBRANCH   1   5
BRANCH   2  18
HETATM   18  C   UNL     1      44.355 -20.534   4.253  1.00  0.00     0.080 A 
HETATM   19  C   UNL     1      43.936 -20.080   2.959  1.00  0.00     0.104 A 
HETATM   20  N   UNL     1      44.074 -21.071   2.055  1.00  0.00    -0.174 NA
HETATM   21  N   UNL     1      44.564 -22.108   2.735  1.00  0.00    -0.288 N 
HETATM   22  H   UNL     1      44.764 -22.963   2.227  1.00  0.00     0.188 HD
HETATM   23  C   UNL     1      44.732 -21.853   4.058  1.00  0.00     0.128 A 
BRANCH  19  24
HETATM   24  C   UNL     1      43.376 -18.790   2.521  1.00  0.00    -0.004 A 
HETATM   25  C   UNL     1      42.024 -18.459   2.693  1.00  0.00     0.017 A 
HETATM   26  C   UNL     1      41.520 -17.242   2.219  1.00  0.00     0.043 A 
HETATM   27  C   UNL     1      42.361 -16.355   1.559  1.00  0.00     0.116 A 
HETATM   28  F   UNL     1      41.872 -15.198   1.094  1.00  0.00    -0.206 F 
HETATM   29  C   UNL     1      43.701 -16.657   1.367  1.00  0.00     0.043 A 
HETATM   30  C   UNL     1      44.205 -17.869   1.847  1.00  0.00     0.017 A 
ENDBRANCH  19  24
ENDBRANCH   2  18
TORSDOF 5
ENDMDL
MODEL 5
REMARK VINA RESULT:      -9.0      3.160      9.078
REMARK  5 active torsions:
REMARK  status: ('A' for Active; 'I' for Inactive)
REMARK    1  A    between atoms: C_3  and  N_4 
REMARK       I    between atoms: N_4  and  C_5 
REMARK    2  A    between atoms: C_5  and  C_6 
REMARK    3  A    between atoms: C_6  and  N_7 
REMARK       I    between atoms: N_7  and  C_8 
REMARK    4  A    between atoms: C_8  and  C_9 
REMARK    5  A    between atoms: C_10  and  C_11 
ROOT
HETATM    1  N   UNL     1      43.792 -14.556   6.839  1.00  0.00    -0.348 N 
HETATM    2  C   UNL     1      43.263 -14.844   5.603  1.00  0.00     0.255 C 
HETATM    3  O   UNL     1      43.749 -14.403   4.565  1.00  0.00    -0.268 OA
HETATM    4  H   UNL     1      43.292 -14.857   7.664  1.00  0.00     0.163 HD
ENDROOT
BRANCH   1   5
HETATM    5  C   UNL     1      45.083 -13.916   7.019  1.00  0.00     0.226 C 
BRANCH   5   6
HETATM    6  C   UNL     1      45.143 -12.846   8.118  1.00  0.00     0.239 C 
HETATM    7  N   UNL     1      43.938 -12.677   8.781  1.00  0.00    -0.325 N 
HETATM    8  H   UNL     1      43.139 -13.092   8.300  1.00  0.00     0.169 HD
HETATM    9  O   UNL     1      46.141 -12.141   8.243  1.00  0.00    -0.271 OA
BRANCH   7  10
HETATM   10  C   UNL     1      43.651 -11.623   9.681  1.00  0.00     0.046 A 
HETATM   11  C   UNL     1      42.702 -10.656   9.271  1.00  0.00    -0.035 A 
HETATM   12  C   UNL     1      42.043 -10.698   7.915  1.00  0.00     0.050 C 
HETATM   13  C   UNL     1      42.381  -9.591  10.127  1.00  0.00     0.009 A 
HETATM   14  C   UNL     1      42.988  -9.473  11.371  1.00  0.00     0.001 A 
HETATM   15  C   UNL     1      43.905 -10.434  11.784  1.00  0.00     0.009 A 
HETATM   16  C   UNL     1      44.228 -11.532  10.964  1.00  0.00    -0.035 A 
HETATM   17  C   UNL     1      45.157 -12.563  11.548  1.00  0.00     0.050 C 
ENDBRANCH   7  10
ENDBRANCH   5   6
ENDBRANCH   1   5
BRANCH   2  18
HETATM   18  C   UNL     1      42.096 -15.703   5.653  1.00  0.00     0.080 A 
HETATM   19  C   UNL     1      41.899 -17.053   5.209  1.00  0.00     0.104 A 
HETATM   20  N   UNL     1      40.653 -17.465   5.522  1.00  0.00    -0.174 NA
HETATM   21  N   UNL     1      40.082 -16.431   6.141  1.00  0.00    -0.288 N 
HETATM   22  H   UNL     1      39.133 -16.542   6.483  1.00  0.00     0.188 HD
HETATM   23  C   UNL     1      40.888 -15.343   6.229  1.00  0.00     0.128 A 
BRANCH  19  24
HETATM   24  C   UNL     1      42.788 -17.970   4.474  1.00  0.00    -0.004 A 
HETATM   25  C   UNL     1      42.734 -18.115   3.081  1.00  0.00     0.017 A 
HETATM   26  C   UNL     1      43.564 -19.033   2.425  1.00  0.00     0.043 A 
HETATM   27  C   UNL     1      44.441 -19.820   3.160  1.00  0.00     0.116 A 
HETATM   28  F   UNL     1      45.222 -20.707   2.531  1.00  0.00    -0.206 F 
HETATM   29  C   UNL     1      44.512 -19.705   4.540  1.00  0.00     0.043 A 
HETATM   30  C   UNL     1      43.689 -18.783   5.193  1.00  0.00     0.017 A 
ENDBRANCH  19  24
ENDBRANCH   2  18
TORSDOF 5
ENDMDL
MODEL 6
REMARK VINA RESULT:      -8.9      5.366      8.219
REMARK  5 active torsions:
REMARK  status: ('A' for Active; 'I' for Inactive)
REMARK    1  A    between atoms: C_3  and  N_4 
REMARK       I    between atoms: N_4  and  C_5 
REMARK    2  A    between atoms: C_5  and  C_6 
REMARK    3  A    between atoms: C_6  and  N_7 
REMARK       I    between atoms: N_7  and  C_8 
REMARK    4  A    between atoms: C_8  and  C_9 
REMARK    5  A    between atoms: C_10  and  C_11 
ROOT
HETATM    1  N   UNL     1      41.757 -15.967   5.369  1.00  0.00    -0.348 N 
HETATM    2  C   UNL     1      42.034 -17.312   5.302  1.00  0.00     0.255 C 
HETATM    3  O   UNL     1      41.205 -18.131   4.916  1.00  0.00    -0.268 OA
HETATM    4  H   UNL     1      42.437 -15.350   5.792  1.00  0.00     0.163 HD
ENDROOT
BRANCH   1   5
HETATM    5  C   UNL     1      40.571 -15.372   4.780  1.00  0.00     0.226 C 
BRANCH   5   6
HETATM    6  C   UNL     1      40.765 -14.738   3.395  1.00  0.00     0.239 C 
HETATM    7  N   UNL     1      39.978 -15.321   2.414  1.00  0.00    -0.325 N 
HETATM    8  H   UNL     1      39.579 -16.220   2.683  1.00  0.00     0.169 HD
HETATM    9  O   UNL     1      41.653 -13.909   3.212  1.00  0.00    -0.271 OA
BRANCH   7  10
HETATM   10  C   UNL     1      40.111 -15.083   1.025  1.00  0.00     0.046 A 
HETATM   11  C   UNL     1      39.216 -14.159   0.433  1.00  0.00    -0.035 A 
HETATM   12  C   UNL     1      38.126 -13.477   1.220  1.00  0.00     0.050 C 
HETATM   13  C   UNL     1      39.307 -13.887  -0.941  1.00  0.00     0.009 A 
HETATM   14  C   UNL     1      40.263 -14.519  -1.727  1.00  0.00     0.001 A 
HETATM   15  C   UNL     1      41.156 -15.410  -1.143  1.00  0.00     0.009 A 
HETATM   16  C   UNL     1      41.114 -15.684   0.237  1.00  0.00    -0.035 A 
HETATM   17  C   UNL     1      42.187 -16.588   0.781  1.00  0.00     0.050 C 
ENDBRANCH   7  10
ENDBRANCH   5   6
ENDBRANCH   1   5
BRANCH   2  18
HETATM   18  C   UNL     1      43.378 -17.653   5.727  1.00  0.00     0.080 A 
HETATM   19  C   UNL     1      44.340 -18.564   5.174  1.00  0.00     0.104 A 
HETATM   20  N   UNL     1      45.488 -18.505   5.878  1.00  0.00    -0.174 NA
HETATM   21  N   UNL     1      45.276 -17.597   6.831  1.00  0.00    -0.288 N 
HETATM   22  H   UNL     1      46.037 -17.383   7.468  1.00  0.00     0.188 HD
HETATM   23  C   UNL     1      44.026 -17.070   6.804  1.00  0.00     0.128 A 
BRANCH  19  24
HETATM   24  C   UNL     1      44.239 -19.516   4.055  1.00  0.00    -0.004 A 
HETATM   25  C   UNL     1      43.674 -19.167   2.819  1.00  0.00     0.017 A 
HETATM   26  C   UNL     1      43.553 -20.116   1.797  1.00  0.00     0.043 A 
HETATM   27  C   UNL     1      43.983 -21.420   2.007  1.00  0.00     0.116 A 
HETATM   28  F   UNL     1      43.851 -22.327   1.031  1.00  0.00    -0.206 F 
HETATM   29  C   UNL     1      44.538 -21.796   3.221  1.00  0.00     0.043 A 
HETATM   30  C   UNL     1      44.666 -20.847   4.239  1.00  0.00     0.017 A 
ENDBRANCH  19  24
ENDBRANCH   2  18
TORSDOF 5
ENDMDL
MODEL 7
REMARK VINA RESULT:      -8.6      4.372      6.083
REMARK  5 active torsions:
REMARK  status: ('A' for Active; 'I' for Inactive)
REMARK    1  A    between atoms: C_3  and  N_4 
REMARK       I    between atoms: N_4  and  C_5 
REMARK    2  A    between atoms: C_5  and  C_6 
REMARK    3  A    between atoms: C_6  and  N_7 
REMARK       I    between atoms: N_7  and  C_8 
REMARK    4  A    between atoms: C_8  and  C_9 
REMARK    5  A    between atoms: C_10  and  C_11 
ROOT
HETATM    1  N   UNL     1      41.466 -15.800   0.858  1.00  0.00    -0.348 N 
HETATM    2  C   UNL     1      40.349 -15.838   1.659  1.00  0.00     0.255 C 
HETATM    3  O   UNL     1      39.806 -16.893   1.973  1.00  0.00    -0.268 OA
HETATM    4  H   UNL     1      41.809 -14.902   0.544  1.00  0.00     0.163 HD
ENDROOT
BRANCH   1   5
HETATM    5  C   UNL     1      42.233 -16.983   0.511  1.00  0.00     0.226 C 
BRANCH   5   6
HETATM    6  C   UNL     1      43.202 -17.485   1.591  1.00  0.00     0.239 C 
HETATM    7  N   UNL     1      42.637 -18.431   2.432  1.00  0.00    -0.325 N 
HETATM    8  H   UNL     1      41.619 -18.479   2.378  1.00  0.00     0.169 HD
HETATM    9  O   UNL     1      44.298 -16.951   1.737  1.00  0.00    -0.271 OA
BRANCH   7  10
HETATM   10  C   UNL     1      43.224 -18.899   3.632  1.00  0.00     0.046 A 
HETATM   11  C   UNL     1      42.776 -18.323   4.845  1.00  0.00    -0.035 A 
HETATM   12  C   UNL     1      41.749 -17.221   4.882  1.00  0.00     0.050 C 
HETATM   13  C   UNL     1      43.326 -18.754   6.063  1.00  0.00     0.009 A 
HETATM   14  C   UNL     1      44.308 -19.737   6.090  1.00  0.00     0.001 A 
HETATM   15  C   UNL     1      44.734 -20.318   4.900  1.00  0.00     0.009 A 
HETATM   16  C   UNL     1      44.183 -19.932   3.663  1.00  0.00    -0.035 A 
HETATM   17  C   UNL     1      44.645 -20.694   2.450  1.00  0.00     0.050 C 
ENDBRANCH   7  10
ENDBRANCH   5   6
ENDBRANCH   1   5
BRANCH   2  18
HETATM   18  C   UNL     1      39.889 -14.529   2.083  1.00  0.00     0.080 A 
HETATM   19  C   UNL     1      40.473 -13.567   2.973  1.00  0.00     0.104 A 
HETATM   20  N   UNL     1      39.709 -12.456   3.016  1.00  0.00    -0.174 NA
HETATM   21  N   UNL     1      38.689 -12.693   2.190  1.00  0.00    -0.288 N 
HETATM   22  H   UNL     1      37.998 -11.961   2.061  1.00  0.00     0.188 HD
HETATM   23  C   UNL     1      38.732 -13.924   1.621  1.00  0.00     0.128 A 
BRANCH  19  24
HETATM   24  C   UNL     1      41.678 -13.636   3.816  1.00  0.00    -0.004 A 
HETATM   25  C   UNL     1      42.958 -13.842   3.284  1.00  0.00     0.017 A 
HETATM   26  C   UNL     1      44.073 -13.950   4.125  1.00  0.00     0.043 A 
HETATM   27  C   UNL     1      43.912 -13.865   5.502  1.00  0.00     0.116 A 
HETATM   28  F   UNL     1      44.978 -13.983   6.303  1.00  0.00    -0.206 F 
HETATM   29  C   UNL     1      42.657 -13.668   6.058  1.00  0.00     0.043 A 
HETATM   30  C   UNL     1      41.546 -13.553   5.218  1.00  0.00     0.017 A 
ENDBRANCH  19  24
ENDBRANCH   2  18
TORSDOF 5
ENDMDL
MODEL 8
REMARK VINA RESULT:      -8.6      5.463      8.204
REMARK  5 active torsions:
REMARK  status: ('A' for Active; 'I' for Inactive)
REMARK    1  A    between atoms: C_3  and  N_4 
REMARK       I    between atoms: N_4  and  C_5 
REMARK    2  A    between atoms: C_5  and  C_6 
REMARK    3  A    between atoms: C_6  and  N_7 
REMARK       I    between atoms: N_7  and  C_8 
REMARK    4  A    between atoms: C_8  and  C_9 
REMARK    5  A    between atoms: C_10  and  C_11 
ROOT
HETATM    1  N   UNL     1      41.297 -13.632   3.125  1.00  0.00    -0.348 N 
HETATM    2  C   UNL     1      42.139 -14.592   3.635  1.00  0.00     0.255 C 
HETATM    3  O   UNL     1      43.330 -14.639   3.343  1.00  0.00    -0.268 OA
HETATM    4  H   UNL     1      40.306 -13.702   3.314  1.00  0.00     0.163 HD
ENDROOT
BRANCH   1   5
HETATM    5  C   UNL     1      41.771 -12.468   2.397  1.00  0.00     0.226 C 
BRANCH   5   6
HETATM    6  C   UNL     1      41.743 -12.587   0.867  1.00  0.00     0.239 C 
HETATM    7  N   UNL     1      40.715 -13.393   0.402  1.00  0.00    -0.325 N 
HETATM    8  H   UNL     1      40.287 -13.976   1.122  1.00  0.00     0.169 HD
HETATM    9  O   UNL     1      42.656 -12.119   0.192  1.00  0.00    -0.271 OA
BRANCH   7  10
HETATM   10  C   UNL     1      40.585 -13.846  -0.932  1.00  0.00     0.046 A 
HETATM   11  C   UNL     1      40.955 -15.185  -1.206  1.00  0.00    -0.035 A 
HETATM   12  C   UNL     1      41.514 -16.098  -0.145  1.00  0.00     0.050 C 
HETATM   13  C   UNL     1      40.843 -15.683  -2.514  1.00  0.00     0.009 A 
HETATM   14  C   UNL     1      40.376 -14.875  -3.543  1.00  0.00     0.001 A 
HETATM   15  C   UNL     1      39.992 -13.566  -3.272  1.00  0.00     0.009 A 
HETATM   16  C   UNL     1      40.062 -13.042  -1.967  1.00  0.00    -0.035 A 
HETATM   17  C   UNL     1      39.530 -11.648  -1.768  1.00  0.00     0.050 C 
ENDBRANCH   7  10
ENDBRANCH   5   6
ENDBRANCH   1   5
BRANCH   2  18
HETATM   18  C   UNL     1      41.485 -15.523   4.535  1.00  0.00     0.080 A 
HETATM   19  C   UNL     1      41.706 -16.921   4.770  1.00  0.00     0.104 A 
HETATM   20  N   UNL     1      40.891 -17.359   5.751  1.00  0.00    -0.174 NA
HETATM   21  N   UNL     1      40.187 -16.292   6.131  1.00  0.00    -0.288 N 
HETATM   22  H   UNL     1      39.519 -16.403   6.887  1.00  0.00     0.188 HD
HETATM   23  C   UNL     1      40.483 -15.172   5.425  1.00  0.00     0.128 A 
BRANCH  19  24
HETATM   24  C   UNL     1      42.602 -17.884   4.106  1.00  0.00    -0.004 A 
HETATM   25  C   UNL     1      42.503 -18.186   2.741  1.00  0.00     0.017 A 
HETATM   26  C   UNL     1      43.343 -19.143   2.159  1.00  0.00     0.043 A 
HETATM   27  C   UNL     1      44.275 -19.813   2.940  1.00  0.00     0.116 A 
HETATM   28  F   UNL     1      45.066 -20.739   2.382  1.00  0.00    -0.206 F 
HETATM   29  C   UNL     1      44.391 -19.541   4.295  1.00  0.00     0.043 A 
HETATM   30  C   UNL     1      43.558 -18.580   4.874  1.00  0.00     0.017 A 
ENDBRANCH  19  24
ENDBRANCH   2  18
TORSDOF 5
ENDMDL
MODEL 9
REMARK VINA RESULT:      -8.5      4.352      6.042
REMARK  5 active torsions:
REMARK  status: ('A' for Active; 'I' for Inactive)
REMARK    1  A    between atoms: C_3  and  N_4 
REMARK       I    between atoms: N_4  and  C_5 
REMARK    2  A    between atoms: C_5  and  C_6 
REMARK    3  A    between atoms: C_6  and  N_7 
REMARK       I    between atoms: N_7  and  C_8 
REMARK    4  A    between atoms: C_8  and  C_9 
REMARK    5  A    between atoms: C_10  and  C_11 
ROOT
HETATM    1  N   UNL     1      41.318 -15.858   0.788  1.00  0.00    -0.348 N 
HETATM    2  C   UNL     1      40.314 -15.913   1.726  1.00  0.00     0.255 C 
HETATM    3  O   UNL     1      39.845 -16.976   2.119  1.00  0.00    -0.268 OA
HETATM    4  H   UNL     1      41.594 -14.957   0.422  1.00  0.00     0.163 HD
ENDROOT
BRANCH   1   5
HETATM    5  C   UNL     1      42.067 -17.026   0.360  1.00  0.00     0.226 C 
BRANCH   5   6
HETATM    6  C   UNL     1      43.087 -17.567   1.373  1.00  0.00     0.239 C 
HETATM    7  N   UNL     1      42.594 -18.614   2.136  1.00  0.00    -0.325 N 
HETATM    8  H   UNL     1      41.579 -18.714   2.096  1.00  0.00     0.169 HD
HETATM    9  O   UNL     1      44.156 -16.988   1.546  1.00  0.00    -0.271 OA
BRANCH   7  10
HETATM   10  C   UNL     1      43.233 -19.153   3.277  1.00  0.00     0.046 A 
HETATM   11  C   UNL     1      44.063 -20.285   3.087  1.00  0.00    -0.035 A 
HETATM   12  C   UNL     1      44.239 -20.937   1.739  1.00  0.00     0.050 C 
HETATM   13  C   UNL     1      44.722 -20.856   4.187  1.00  0.00     0.009 A 
HETATM   14  C   UNL     1      44.564 -20.326   5.462  1.00  0.00     0.001 A 
HETATM   15  C   UNL     1      43.766 -19.202   5.647  1.00  0.00     0.009 A 
HETATM   16  C   UNL     1      43.114 -18.585   4.562  1.00  0.00    -0.035 A 
HETATM   17  C   UNL     1      42.356 -17.319   4.860  1.00  0.00     0.050 C 
ENDBRANCH   7  10
ENDBRANCH   5   6
ENDBRANCH   1   5
BRANCH   2  18
HETATM   18  C   UNL     1      39.876 -14.610   2.189  1.00  0.00     0.080 A 
HETATM   19  C   UNL     1      40.464 -13.695   3.125  1.00  0.00     0.104 A 
HETATM   20  N   UNL     1      39.725 -12.569   3.195  1.00  0.00    -0.174 NA
HETATM   21  N   UNL     1      38.717 -12.750   2.341  1.00  0.00    -0.288 N 
HETATM   22  H   UNL     1      38.045 -11.998   2.225  1.00  0.00     0.188 HD
HETATM   23  C   UNL     1      38.743 -13.960   1.727  1.00  0.00     0.128 A 
BRANCH  19  24
HETATM   24  C   UNL     1      41.650 -13.823   3.989  1.00  0.00    -0.004 A 
HETATM   25  C   UNL     1      41.573 -13.758   5.387  1.00  0.00     0.017 A 
HETATM   26  C   UNL     1      42.731 -13.835   6.171  1.00  0.00     0.043 A 
HETATM   27  C   UNL     1      43.972 -13.966   5.561  1.00  0.00     0.116 A 
HETATM   28  F   UNL     1      45.078 -14.025   6.314  1.00  0.00    -0.206 F 
HETATM   29  C   UNL     1      44.080 -14.026   4.180  1.00  0.00     0.043 A 
HETATM   30  C   UNL     1      42.924 -13.956   3.399  1.00  0.00     0.017 A 
ENDBRANCH  19  24
ENDBRANCH   2  18
TORSDOF 5
ENDMDL
MODEL 10
REMARK VINA RESULT:      -8.5      5.451      7.919
REMARK  5 active torsions:
REMARK  status: ('A' for Active; 'I' for Inactive)
REMARK    1  A    between atoms: C_3  and  N_4 
REMARK       I    between atoms: N_4  and  C_5 
REMARK    2  A    between atoms: C_5  and  C_6 
REMARK    3  A    between atoms: C_6  and  N_7 
REMARK       I    between atoms: N_7  and  C_8 
REMARK    4  A    between atoms: C_8  and  C_9 
REMARK    5  A    between atoms: C_10  and  C_11 
ROOT
HETATM    1  N   UNL     1      40.841 -14.884   3.835  1.00  0.00    -0.348 N 
HETATM    2  C   UNL     1      41.313 -14.599   2.576  1.00  0.00     0.255 C 
HETATM    3  O   UNL     1      42.513 -14.584   2.315  1.00  0.00    -0.268 OA
HETATM    4  H   UNL     1      39.853 -14.778   4.021  1.00  0.00     0.163 HD
ENDROOT
BRANCH   1   5
HETATM    5  C   UNL     1      41.680 -15.415   4.895  1.00  0.00     0.226 C 
BRANCH   5   6
HETATM    6  C   UNL     1      41.997 -16.914   4.800  1.00  0.00     0.239 C 
HETATM    7  N   UNL     1      43.173 -17.179   4.115  1.00  0.00    -0.325 N 
HETATM    8  H   UNL     1      43.524 -16.390   3.572  1.00  0.00     0.169 HD
HETATM    9  O   UNL     1      41.177 -17.746   5.176  1.00  0.00    -0.271 OA
BRANCH   7  10
HETATM   10  C   UNL     1      43.591 -18.465   3.696  1.00  0.00     0.046 A 
HETATM   11  C   UNL     1      43.189 -18.894   2.408  1.00  0.00    -0.035 A 
HETATM   12  C   UNL     1      42.312 -18.052   1.516  1.00  0.00     0.050 C 
HETATM   13  C   UNL     1      43.580 -20.160   1.944  1.00  0.00     0.009 A 
HETATM   14  C   UNL     1      44.352 -20.999   2.738  1.00  0.00     0.001 A 
HETATM   15  C   UNL     1      44.765 -20.571   3.995  1.00  0.00     0.009 A 
HETATM   16  C   UNL     1      44.418 -19.295   4.481  1.00  0.00    -0.035 A 
HETATM   17  C   UNL     1      44.999 -18.896   5.810  1.00  0.00     0.050 C 
ENDBRANCH   7  10
ENDBRANCH   5   6
ENDBRANCH   1   5
BRANCH   2  18
HETATM   18  C   UNL     1      40.268 -14.322   1.609  1.00  0.00     0.080 A 
HETATM   19  C   UNL     1      40.257 -13.483   0.446  1.00  0.00     0.104 A 
HETATM   20  N   UNL     1      39.070 -13.588  -0.187  1.00  0.00    -0.174 NA
HETATM   21  N   UNL     1      38.358 -14.456   0.532  1.00  0.00    -0.288 N 
HETATM   22  H   UNL     1      37.426 -14.695   0.209  1.00  0.00     0.188 HD
HETATM   23  C   UNL     1      39.014 -14.912   1.629  1.00  0.00     0.128 A 
BRANCH  19  24
HETATM   24  C   UNL     1      41.270 -12.558  -0.090  1.00  0.00    -0.004 A 
HETATM   25  C   UNL     1      41.522 -11.304   0.485  1.00  0.00     0.017 A 
HETATM   26  C   UNL     1      42.461 -10.434  -0.084  1.00  0.00     0.043 A 
HETATM   27  C   UNL     1      43.141 -10.806  -1.236  1.00  0.00     0.116 A 
HETATM   28  F   UNL     1      44.027  -9.965  -1.785  1.00  0.00    -0.206 F 
HETATM   29  C   UNL     1      42.907 -12.037  -1.831  1.00  0.00     0.043 A 
HETATM   30  C   UNL     1      41.977 -12.908  -1.259  1.00  0.00     0.017 A 
ENDBRANCH  19  24
ENDBRANCH   2  18
TORSDOF 5
ENDMDL
