MODEL 1
REMARK VINA RESULT:      -7.9      0.000      0.000
REMARK  5 active torsions:
REMARK  status: ('A' for Active; 'I' for Inactive)
REMARK    1  A    between atoms: C_9  and  N_10 
REMARK       I    between atoms: N_10  and  C_11 
REMARK    2  A    between atoms: C_11  and  C_12 
REMARK    3  A    between atoms: C_12  and  N_13 
REMARK    4  A    between atoms: C_12  and  C_17 
REMARK    5  A    between atoms: C_17  and  C_18 
ROOT
HETATM    1  N   UNL     1      43.430 -16.523   3.165  1.00  0.00    -0.325 N 
HETATM    2  C   UNL     1      42.210 -15.877   3.198  1.00  0.00     0.253 C 
HETATM    3  O   UNL     1      41.095 -16.379   3.057  1.00  0.00    -0.271 OA
HETATM    4  H   UNL     1      44.275 -15.985   3.322  1.00  0.00     0.169 HD
ENDROOT
BRANCH   2   5
HETATM    5  C   UNL     1      42.285 -14.366   3.454  1.00  0.00     0.280 C 
BRANCH   5   6
HETATM    6  N   UNL     1      43.718 -13.911   3.293  1.00  0.00    -0.066 N 
HETATM    7  H   UNL     1      43.894 -13.107   3.931  1.00  0.00     0.275 HD
HETATM    8  H   UNL     1      44.359 -14.678   3.541  1.00  0.00     0.275 HD
HETATM    9  H   UNL     1      43.934 -13.637   2.330  1.00  0.00     0.275 HD
ENDBRANCH   5   6
BRANCH   5  10
HETATM   10  C   UNL     1      41.785 -14.031   4.865  1.00  0.00     0.103 C 
BRANCH  10  11
HETATM   11  C   UNL     1      42.710 -14.524   5.925  1.00  0.00     0.053 A 
HETATM   12  N   UNL     1      43.813 -13.774   6.282  1.00  0.00    -0.247 NA
HETATM   13  C   UNL     1      44.427 -14.481   7.207  1.00  0.00     0.207 A 
HETATM   14  N   UNL     1      43.769 -15.651   7.466  1.00  0.00    -0.359 N 
HETATM   15  H   UNL     1      44.054 -16.361   8.132  1.00  0.00     0.166 HD
HETATM   16  C   UNL     1      42.667 -15.690   6.653  1.00  0.00     0.116 A 
ENDBRANCH  10  11
ENDBRANCH   5  10
ENDBRANCH   2   5
BRANCH   1  17
HETATM   17  C   UNL     1      43.653 -17.905   2.967  1.00  0.00     0.035 A 
HETATM   18  C   UNL     1      43.479 -18.559   1.748  1.00  0.00     0.030 A 
HETATM   19  C   UNL     1      43.712 -19.935   1.641  1.00  0.00     0.014 A 
HETATM   20  C   UNL     1      44.127 -20.685   2.749  1.00  0.00    -0.026 A 
HETATM   21  C   UNL     1      44.361 -22.067   2.653  1.00  0.00     0.012 A 
HETATM   22  C   UNL     1      44.312 -20.035   3.987  1.00  0.00    -0.024 A 
HETATM   23  C   UNL     1      44.773 -22.798   3.767  1.00  0.00     0.001 A 
HETATM   24  C   UNL     1      44.959 -22.158   4.989  1.00  0.00     0.001 A 
HETATM   25  C   UNL     1      44.730 -20.785   5.100  1.00  0.00     0.012 A 
HETATM   26  C   UNL     1      44.072 -18.651   4.079  1.00  0.00     0.042 A 
ENDBRANCH   1  17
TORSDOF 5
ENDMDL
MODEL 2
REMARK VINA RESULT:      -7.8      2.022      3.683
REMARK  5 active torsions:
REMARK  status: ('A' for Active; 'I' for Inactive)
REMARK    1  A    between atoms: C_9  and  N_10 
REMARK       I    between atoms: N_10  and  C_11 
REMARK    2  A    between atoms: C_11  and  C_12 
REMARK    3  A    between atoms: C_12  and  N_13 
REMARK    4  A    between atoms: C_12  and  C_17 
REMARK    5  A    between atoms: C_17  and  C_18 
ROOT
HETATM    1  N   UNL     1      42.490 -16.146   4.523  1.00  0.00    -0.325 N 
HETATM    2  C   UNL     1      41.320 -15.868   5.201  1.00  0.00     0.253 C 
HETATM    3  O   UNL     1      40.612 -16.659   5.824  1.00  0.00    -0.271 OA
HETATM    4  H   UNL     1      42.987 -15.386   4.070  1.00  0.00     0.169 HD
ENDROOT
BRANCH   2   5
HETATM    5  C   UNL     1      40.886 -14.397   5.167  1.00  0.00     0.280 C 
BRANCH   5   6
HETATM    6  N   UNL     1      40.283 -14.032   6.505  1.00  0.00    -0.066 N 
HETATM    7  H   UNL     1      40.694 -13.132   6.830  1.00  0.00     0.275 HD
HETATM    8  H   UNL     1      39.264 -13.917   6.411  1.00  0.00     0.275 HD
HETATM    9  H   UNL     1      40.441 -14.754   7.213  1.00  0.00     0.275 HD
ENDBRANCH   5   6
BRANCH   5  10
HETATM   10  C   UNL     1      39.861 -14.162   4.049  1.00  0.00     0.103 C 
BRANCH  10  11
HETATM   11  C   UNL     1      40.280 -14.778   2.758  1.00  0.00     0.053 A 
HETATM   12  N   UNL     1      41.445 -14.365   2.142  1.00  0.00    -0.247 NA
HETATM   13  C   UNL     1      41.517 -15.070   1.032  1.00  0.00     0.207 A 
HETATM   14  N   UNL     1      40.454 -15.921   0.906  1.00  0.00    -0.359 N 
HETATM   15  H   UNL     1      40.288 -16.558   0.134  1.00  0.00     0.166 HD
HETATM   16  C   UNL     1      39.657 -15.746   2.006  1.00  0.00     0.116 A 
ENDBRANCH  10  11
ENDBRANCH   5  10
ENDBRANCH   2   5
BRANCH   1  17
HETATM   17  C   UNL     1      43.125 -17.404   4.406  1.00  0.00     0.035 A 
HETATM   18  C   UNL     1      44.010 -17.924   5.349  1.00  0.00     0.030 A 
HETATM   19  C   UNL     1      44.604 -19.175   5.149  1.00  0.00     0.014 A 
HETATM   20  C   UNL     1      44.325 -19.933   4.005  1.00  0.00    -0.026 A 
HETATM   21  C   UNL     1      44.919 -21.189   3.794  1.00  0.00     0.012 A 
HETATM   22  C   UNL     1      43.427 -19.420   3.045  1.00  0.00    -0.024 A 
HETATM   23  C   UNL     1      44.628 -21.930   2.648  1.00  0.00     0.001 A 
HETATM   24  C   UNL     1      43.741 -21.427   1.700  1.00  0.00     0.001 A 
HETATM   25  C   UNL     1      43.144 -20.180   1.897  1.00  0.00     0.012 A 
HETATM   26  C   UNL     1      42.839 -18.160   3.259  1.00  0.00     0.042 A 
ENDBRANCH   1  17
TORSDOF 5
ENDMDL
MODEL 3
REMARK VINA RESULT:      -7.7      2.176      3.177
REMARK  5 active torsions:
REMARK  status: ('A' for Active; 'I' for Inactive)
REMARK    1  A    between atoms: C_9  and  N_10 
REMARK       I    between atoms: N_10  and  C_11 
REMARK    2  A    between atoms: C_11  and  C_12 
REMARK    3  A    between atoms: C_12  and  N_13 
REMARK    4  A    between atoms: C_12  and  C_17 
REMARK    5  A    between atoms: C_17  and  C_18 
ROOT
HETATM    1  N   UNL     1      43.574 -16.350   5.730  1.00  0.00    -0.325 N 
HETATM    2  C   UNL     1      43.742 -14.987   5.590  1.00  0.00     0.253 C 
HETATM    3  O   UNL     1      43.820 -14.349   4.540  1.00  0.00    -0.271 OA
HETATM    4  H   UNL     1      43.501 -16.743   6.663  1.00  0.00     0.169 HD
ENDROOT
BRANCH   2   5
HETATM    5  C   UNL     1      43.825 -14.206   6.907  1.00  0.00     0.280 C 
BRANCH   5   6
HETATM    6  N   UNL     1      42.884 -13.025   6.838  1.00  0.00    -0.066 N 
HETATM    7  H   UNL     1      43.386 -12.170   7.157  1.00  0.00     0.275 HD
HETATM    8  H   UNL     1      42.569 -12.884   5.868  1.00  0.00     0.275 HD
HETATM    9  H   UNL     1      42.045 -13.162   7.410  1.00  0.00     0.275 HD
ENDBRANCH   5   6
BRANCH   5  10
HETATM   10  C   UNL     1      45.259 -13.719   7.157  1.00  0.00     0.103 C 
BRANCH  10  11
HETATM   11  C   UNL     1      45.350 -12.812   8.336  1.00  0.00     0.053 A 
HETATM   12  N   UNL     1      44.543 -13.025   9.436  1.00  0.00    -0.247 NA
HETATM   13  C   UNL     1      44.842 -12.058  10.277  1.00  0.00     0.207 A 
HETATM   14  N   UNL     1      45.808 -11.232   9.772  1.00  0.00    -0.359 N 
HETATM   15  H   UNL     1      46.194 -10.416  10.233  1.00  0.00     0.166 HD
HETATM   16  C   UNL     1      46.143 -11.705   8.531  1.00  0.00     0.116 A 
ENDBRANCH  10  11
ENDBRANCH   5  10
ENDBRANCH   2   5
BRANCH   1  17
HETATM   17  C   UNL     1      43.450 -17.302   4.691  1.00  0.00     0.035 A 
HETATM   18  C   UNL     1      42.682 -17.112   3.544  1.00  0.00     0.030 A 
HETATM   19  C   UNL     1      42.606 -18.113   2.568  1.00  0.00     0.014 A 
HETATM   20  C   UNL     1      43.296 -19.323   2.718  1.00  0.00    -0.026 A 
HETATM   21  C   UNL     1      43.224 -20.334   1.746  1.00  0.00     0.012 A 
HETATM   22  C   UNL     1      44.081 -19.525   3.873  1.00  0.00    -0.024 A 
HETATM   23  C   UNL     1      43.919 -21.532   1.913  1.00  0.00     0.001 A 
HETATM   24  C   UNL     1      44.695 -21.733   3.050  1.00  0.00     0.001 A 
HETATM   25  C   UNL     1      44.777 -20.737   4.025  1.00  0.00     0.012 A 
HETATM   26  C   UNL     1      44.147 -18.510   4.846  1.00  0.00     0.042 A 
ENDBRANCH   1  17
TORSDOF 5
ENDMDL
MODEL 4
REMARK VINA RESULT:      -7.7      3.897      5.701
REMARK  5 active torsions:
REMARK  status: ('A' for Active; 'I' for Inactive)
REMARK    1  A    between atoms: C_9  and  N_10 
REMARK       I    between atoms: N_10  and  C_11 
REMARK    2  A    between atoms: C_11  and  C_12 
REMARK    3  A    between atoms: C_12  and  N_13 
REMARK    4  A    between atoms: C_12  and  C_17 
REMARK    5  A    between atoms: C_17  and  C_18 
ROOT
HETATM    1  N   UNL     1      42.504 -16.612   1.382  1.00  0.00    -0.325 N 
HETATM    2  C   UNL     1      41.172 -16.265   1.278  1.00  0.00     0.253 C 
HETATM    3  O   UNL     1      40.225 -16.740   1.905  1.00  0.00    -0.271 OA
HETATM    4  H   UNL     1      43.186 -16.117   0.818  1.00  0.00     0.169 HD
ENDROOT
BRANCH   2   5
HETATM    5  C   UNL     1      40.870 -15.150   0.269  1.00  0.00     0.280 C 
BRANCH   5   6
HETATM    6  N   UNL     1      39.406 -14.785   0.364  1.00  0.00    -0.066 N 
HETATM    7  H   UNL     1      39.181 -14.530   1.349  1.00  0.00     0.275 HD
HETATM    8  H   UNL     1      39.206 -13.977  -0.242  1.00  0.00     0.275 HD
HETATM    9  H   UNL     1      38.794 -15.547   0.061  1.00  0.00     0.275 HD
ENDBRANCH   5   6
BRANCH   5  10
HETATM   10  C   UNL     1      41.204 -15.607  -1.157  1.00  0.00     0.103 C 
BRANCH  10  11
HETATM   11  C   UNL     1      40.471 -14.821  -2.190  1.00  0.00     0.053 A 
HETATM   12  N   UNL     1      40.425 -13.443  -2.105  1.00  0.00    -0.247 NA
HETATM   13  C   UNL     1      39.695 -13.058  -3.131  1.00  0.00     0.207 A 
HETATM   14  N   UNL     1      39.270 -14.124  -3.875  1.00  0.00    -0.359 N 
HETATM   15  H   UNL     1      38.691 -14.078  -4.706  1.00  0.00     0.166 HD
HETATM   16  C   UNL     1      39.762 -15.258  -3.284  1.00  0.00     0.116 A 
ENDBRANCH  10  11
ENDBRANCH   5  10
ENDBRANCH   2   5
BRANCH   1  17
HETATM   17  C   UNL     1      43.063 -17.588   2.240  1.00  0.00     0.035 A 
HETATM   18  C   UNL     1      43.487 -17.334   3.543  1.00  0.00     0.030 A 
HETATM   19  C   UNL     1      44.040 -18.358   4.321  1.00  0.00     0.014 A 
HETATM   20  C   UNL     1      44.178 -19.656   3.813  1.00  0.00    -0.026 A 
HETATM   21  C   UNL     1      44.735 -20.690   4.585  1.00  0.00     0.012 A 
HETATM   22  C   UNL     1      43.748 -19.927   2.497  1.00  0.00    -0.024 A 
HETATM   23  C   UNL     1      44.864 -21.977   4.063  1.00  0.00     0.001 A 
HETATM   24  C   UNL     1      44.439 -22.247   2.766  1.00  0.00     0.001 A 
HETATM   25  C   UNL     1      43.884 -21.230   1.987  1.00  0.00     0.012 A 
HETATM   26  C   UNL     1      43.195 -18.887   1.727  1.00  0.00     0.042 A 
ENDBRANCH   1  17
TORSDOF 5
ENDMDL
MODEL 5
REMARK VINA RESULT:      -7.6      2.164      2.912
REMARK  5 active torsions:
REMARK  status: ('A' for Active; 'I' for Inactive)
REMARK    1  A    between atoms: C_9  and  N_10 
REMARK       I    between atoms: N_10  and  C_11 
REMARK    2  A    between atoms: C_11  and  C_12 
REMARK    3  A    between atoms: C_12  and  N_13 
REMARK    4  A    between atoms: C_12  and  C_17 
REMARK    5  A    between atoms: C_17  and  C_18 
ROOT
HETATM    1  N   UNL     1      42.192 -16.113   3.099  1.00  0.00    -0.325 N 
HETATM    2  C   UNL     1      42.749 -14.852   3.030  1.00  0.00     0.253 C 
HETATM    3  O   UNL     1      43.927 -14.544   3.214  1.00  0.00    -0.271 OA
HETATM    4  H   UNL     1      41.204 -16.225   2.899  1.00  0.00     0.169 HD
ENDROOT
BRANCH   2   5
HETATM    5  C   UNL     1      41.768 -13.730   2.668  1.00  0.00     0.280 C 
BRANCH   5   6
HETATM    6  N   UNL     1      42.188 -12.462   3.378  1.00  0.00    -0.066 N 
HETATM    7  H   UNL     1      41.365 -11.829   3.459  1.00  0.00     0.275 HD
HETATM    8  H   UNL     1      42.529 -12.686   4.323  1.00  0.00     0.275 HD
HETATM    9  H   UNL     1      42.946 -11.976   2.891  1.00  0.00     0.275 HD
ENDBRANCH   5   6
BRANCH   5  10
HETATM   10  C   UNL     1      40.338 -14.109   3.077  1.00  0.00     0.103 C 
BRANCH  10  11
HETATM   11  C   UNL     1      40.029 -13.718   4.482  1.00  0.00     0.053 A 
HETATM   12  N   UNL     1      39.486 -12.477   4.749  1.00  0.00    -0.247 NA
HETATM   13  C   UNL     1      39.357 -12.431   6.059  1.00  0.00     0.207 A 
HETATM   14  N   UNL     1      39.788 -13.587   6.648  1.00  0.00    -0.359 N 
HETATM   15  H   UNL     1      39.794 -13.783   7.643  1.00  0.00     0.166 HD
HETATM   16  C   UNL     1      40.219 -14.420   5.649  1.00  0.00     0.116 A 
ENDBRANCH  10  11
ENDBRANCH   5  10
ENDBRANCH   2   5
BRANCH   1  17
HETATM   17  C   UNL     1      42.863 -17.323   3.393  1.00  0.00     0.035 A 
HETATM   18  C   UNL     1      43.588 -17.551   4.561  1.00  0.00     0.030 A 
HETATM   19  C   UNL     1      44.232 -18.776   4.768  1.00  0.00     0.014 A 
HETATM   20  C   UNL     1      44.164 -19.799   3.813  1.00  0.00    -0.026 A 
HETATM   21  C   UNL     1      44.809 -21.031   4.009  1.00  0.00     0.012 A 
HETATM   22  C   UNL     1      43.428 -19.582   2.628  1.00  0.00    -0.024 A 
HETATM   23  C   UNL     1      44.729 -22.037   3.047  1.00  0.00     0.001 A 
HETATM   24  C   UNL     1      44.002 -21.827   1.878  1.00  0.00     0.001 A 
HETATM   25  C   UNL     1      43.356 -20.607   1.669  1.00  0.00     0.012 A 
HETATM   26  C   UNL     1      42.787 -18.344   2.434  1.00  0.00     0.042 A 
ENDBRANCH   1  17
TORSDOF 5
ENDMDL
MODEL 6
REMARK VINA RESULT:      -7.5      2.336      4.186
REMARK  5 active torsions:
REMARK  status: ('A' for Active; 'I' for Inactive)
REMARK    1  A    between atoms: C_9  and  N_10 
REMARK       I    between atoms: N_10  and  C_11 
REMARK    2  A    between atoms: C_11  and  C_12 
REMARK    3  A    between atoms: C_12  and  N_13 
REMARK    4  A    between atoms: C_12  and  C_17 
REMARK    5  A    between atoms: C_17  and  C_18 
ROOT
HETATM    1  N   UNL     1      43.124 -16.087   3.413  1.00  0.00    -0.325 N 
HETATM    2  C   UNL     1      41.845 -15.585   3.545  1.00  0.00     0.253 C 
HETATM    3  O   UNL     1      40.839 -16.192   3.910  1.00  0.00    -0.271 OA
HETATM    4  H   UNL     1      43.870 -15.463   3.123  1.00  0.00     0.169 HD
ENDROOT
BRANCH   2   5
HETATM    5  C   UNL     1      41.695 -14.097   3.204  1.00  0.00     0.280 C 
BRANCH   5   6
HETATM    6  N   UNL     1      40.226 -13.738   3.207  1.00  0.00    -0.066 N 
HETATM    7  H   UNL     1      39.928 -13.520   2.233  1.00  0.00     0.275 HD
HETATM    8  H   UNL     1      39.672 -14.533   3.554  1.00  0.00     0.275 HD
HETATM    9  H   UNL     1      40.022 -12.940   3.814  1.00  0.00     0.275 HD
ENDBRANCH   5   6
BRANCH   5  10
HETATM   10  C   UNL     1      42.306 -13.794   1.829  1.00  0.00     0.103 C 
BRANCH  10  11
HETATM   11  C   UNL     1      41.435 -14.252   0.710  1.00  0.00     0.053 A 
HETATM   12  N   UNL     1      40.437 -13.427   0.229  1.00  0.00    -0.247 NA
HETATM   13  C   UNL     1      39.844 -14.119  -0.721  1.00  0.00     0.207 A 
HETATM   14  N   UNL     1      40.415 -15.352  -0.878  1.00  0.00    -0.359 N 
HETATM   15  H   UNL     1      40.126 -16.063  -1.540  1.00  0.00     0.166 HD
HETATM   16  C   UNL     1      41.436 -15.448   0.031  1.00  0.00     0.116 A 
ENDBRANCH  10  11
ENDBRANCH   5  10
ENDBRANCH   2   5
BRANCH   1  17
HETATM   17  C   UNL     1      43.549 -17.411   3.675  1.00  0.00     0.035 A 
HETATM   18  C   UNL     1      44.107 -17.828   4.882  1.00  0.00     0.030 A 
HETATM   19  C   UNL     1      44.511 -19.157   5.054  1.00  0.00     0.014 A 
HETATM   20  C   UNL     1      44.363 -20.097   4.026  1.00  0.00    -0.026 A 
HETATM   21  C   UNL     1      44.768 -21.432   4.188  1.00  0.00     0.012 A 
HETATM   22  C   UNL     1      43.794 -19.688   2.801  1.00  0.00    -0.024 A 
HETATM   23  C   UNL     1      44.612 -22.353   3.152  1.00  0.00     0.001 A 
HETATM   24  C   UNL     1      44.050 -21.953   1.944  1.00  0.00     0.001 A 
HETATM   25  C   UNL     1      43.643 -20.628   1.768  1.00  0.00     0.012 A 
HETATM   26  C   UNL     1      43.395 -18.347   2.642  1.00  0.00     0.042 A 
ENDBRANCH   1  17
TORSDOF 5
ENDMDL
MODEL 7
REMARK VINA RESULT:      -7.5      2.319      2.749
REMARK  5 active torsions:
REMARK  status: ('A' for Active; 'I' for Inactive)
REMARK    1  A    between atoms: C_9  and  N_10 
REMARK       I    between atoms: N_10  and  C_11 
REMARK    2  A    between atoms: C_11  and  C_12 
REMARK    3  A    between atoms: C_12  and  N_13 
REMARK    4  A    between atoms: C_12  and  C_17 
REMARK    5  A    between atoms: C_17  and  C_18 
ROOT
HETATM    1  N   UNL     1      42.052 -15.459   2.506  1.00  0.00    -0.325 N 
HETATM    2  C   UNL     1      42.584 -14.207   2.740  1.00  0.00     0.253 C 
HETATM    3  O   UNL     1      43.754 -13.929   3.000  1.00  0.00    -0.271 OA
HETATM    4  H   UNL     1      41.067 -15.540   2.277  1.00  0.00     0.169 HD
ENDROOT
BRANCH   2   5
HETATM    5  C   UNL     1      41.581 -13.050   2.646  1.00  0.00     0.280 C 
BRANCH   5   6
HETATM    6  N   UNL     1      42.020 -11.942   3.576  1.00  0.00    -0.066 N 
HETATM    7  H   UNL     1      42.211 -12.344   4.518  1.00  0.00     0.275 HD
HETATM    8  H   UNL     1      42.883 -11.507   3.221  1.00  0.00     0.275 HD
HETATM    9  H   UNL     1      41.319 -11.201   3.657  1.00  0.00     0.275 HD
ENDBRANCH   5   6
BRANCH   5  10
HETATM   10  C   UNL     1      40.172 -13.524   3.025  1.00  0.00     0.103 C 
BRANCH  10  11
HETATM   11  C   UNL     1      39.920 -13.432   4.492  1.00  0.00     0.053 A 
HETATM   12  N   UNL     1      39.363 -12.287   5.026  1.00  0.00    -0.247 NA
HETATM   13  C   UNL     1      39.294 -12.509   6.322  1.00  0.00     0.207 A 
HETATM   14  N   UNL     1      39.778 -13.746   6.648  1.00  0.00    -0.359 N 
HETATM   15  H   UNL     1      39.834 -14.137   7.582  1.00  0.00     0.166 HD
HETATM   16  C   UNL     1      40.179 -14.348   5.484  1.00  0.00     0.116 A 
ENDBRANCH  10  11
ENDBRANCH   5  10
ENDBRANCH   2   5
BRANCH   1  17
HETATM   17  C   UNL     1      42.747 -16.691   2.511  1.00  0.00     0.035 A 
HETATM   18  C   UNL     1      43.200 -17.339   1.363  1.00  0.00     0.030 A 
HETATM   19  C   UNL     1      43.871 -18.563   1.457  1.00  0.00     0.014 A 
HETATM   20  C   UNL     1      44.104 -19.165   2.701  1.00  0.00    -0.026 A 
HETATM   21  C   UNL     1      44.774 -20.395   2.806  1.00  0.00     0.012 A 
HETATM   22  C   UNL     1      43.655 -18.518   3.871  1.00  0.00    -0.024 A 
HETATM   23  C   UNL     1      44.997 -20.979   4.053  1.00  0.00     0.001 A 
HETATM   24  C   UNL     1      44.557 -20.341   5.209  1.00  0.00     0.001 A 
HETATM   25  C   UNL     1      43.889 -19.118   5.120  1.00  0.00     0.012 A 
HETATM   26  C   UNL     1      42.980 -17.287   3.759  1.00  0.00     0.042 A 
ENDBRANCH   1  17
TORSDOF 5
ENDMDL
MODEL 8
REMARK VINA RESULT:      -7.1      2.325      3.623
REMARK  5 active torsions:
REMARK  status: ('A' for Active; 'I' for Inactive)
REMARK    1  A    between atoms: C_9  and  N_10 
REMARK       I    between atoms: N_10  and  C_11 
REMARK    2  A    between atoms: C_11  and  C_12 
REMARK    3  A    between atoms: C_12  and  N_13 
REMARK    4  A    between atoms: C_12  and  C_17 
REMARK    5  A    between atoms: C_17  and  C_18 
ROOT
HETATM    1  N   UNL     1      42.276 -15.416   3.673  1.00  0.00    -0.325 N 
HETATM    2  C   UNL     1      42.913 -14.195   3.575  1.00  0.00     0.253 C 
HETATM    3  O   UNL     1      44.062 -13.981   3.188  1.00  0.00    -0.271 OA
HETATM    4  H   UNL     1      41.312 -15.443   3.987  1.00  0.00     0.169 HD
ENDROOT
BRANCH   2   5
HETATM    5  C   UNL     1      42.063 -12.987   3.989  1.00  0.00     0.280 C 
BRANCH   5   6
HETATM    6  N   UNL     1      41.103 -13.412   5.077  1.00  0.00    -0.066 N 
HETATM    7  H   UNL     1      41.339 -12.905   5.956  1.00  0.00     0.275 HD
HETATM    8  H   UNL     1      40.139 -13.176   4.806  1.00  0.00     0.275 HD
HETATM    9  H   UNL     1      41.130 -14.421   5.248  1.00  0.00     0.275 HD
ENDBRANCH   5   6
BRANCH   5  10
HETATM   10  C   UNL     1      41.283 -12.438   2.788  1.00  0.00     0.103 C 
BRANCH  10  11
HETATM   11  C   UNL     1      40.504 -13.498   2.086  1.00  0.00     0.053 A 
HETATM   12  N   UNL     1      39.538 -14.211   2.769  1.00  0.00    -0.247 NA
HETATM   13  C   UNL     1      39.061 -15.070   1.893  1.00  0.00     0.207 A 
HETATM   14  N   UNL     1      39.671 -14.942   0.677  1.00  0.00    -0.359 N 
HETATM   15  H   UNL     1      39.477 -15.498  -0.149  1.00  0.00     0.166 HD
HETATM   16  C   UNL     1      40.596 -13.937   0.787  1.00  0.00     0.116 A 
ENDBRANCH  10  11
ENDBRANCH   5  10
ENDBRANCH   2   5
BRANCH   1  17
HETATM   17  C   UNL     1      42.812 -16.683   3.343  1.00  0.00     0.035 A 
HETATM   18  C   UNL     1      42.932 -17.167   2.041  1.00  0.00     0.030 A 
HETATM   19  C   UNL     1      43.465 -18.438   1.804  1.00  0.00     0.014 A 
HETATM   20  C   UNL     1      43.892 -19.252   2.862  1.00  0.00    -0.026 A 
HETATM   21  C   UNL     1      44.426 -20.531   2.634  1.00  0.00     0.012 A 
HETATM   22  C   UNL     1      43.780 -18.772   4.184  1.00  0.00    -0.024 A 
HETATM   23  C   UNL     1      44.845 -21.327   3.700  1.00  0.00     0.001 A 
HETATM   24  C   UNL     1      44.738 -20.855   5.005  1.00  0.00     0.001 A 
HETATM   25  C   UNL     1      44.209 -19.585   5.247  1.00  0.00     0.012 A 
HETATM   26  C   UNL     1      43.241 -17.491   4.406  1.00  0.00     0.042 A 
ENDBRANCH   1  17
TORSDOF 5
ENDMDL
MODEL 9
REMARK VINA RESULT:      -7.1      2.238      2.908
REMARK  5 active torsions:
REMARK  status: ('A' for Active; 'I' for Inactive)
REMARK    1  A    between atoms: C_9  and  N_10 
REMARK       I    between atoms: N_10  and  C_11 
REMARK    2  A    between atoms: C_11  and  C_12 
REMARK    3  A    between atoms: C_12  and  N_13 
REMARK    4  A    between atoms: C_12  and  C_17 
REMARK    5  A    between atoms: C_17  and  C_18 
ROOT
HETATM    1  N   UNL     1      42.890 -15.740   4.488  1.00  0.00    -0.325 N 
HETATM    2  C   UNL     1      43.344 -14.491   4.113  1.00  0.00     0.253 C 
HETATM    3  O   UNL     1      43.947 -14.194   3.082  1.00  0.00    -0.271 OA
HETATM    4  H   UNL     1      42.382 -15.837   5.361  1.00  0.00     0.169 HD
ENDROOT
BRANCH   2   5
HETATM    5  C   UNL     1      43.035 -13.366   5.108  1.00  0.00     0.280 C 
BRANCH   5   6
HETATM    6  N   UNL     1      42.756 -13.972   6.465  1.00  0.00    -0.066 N 
HETATM    7  H   UNL     1      43.607 -14.471   6.797  1.00  0.00     0.275 HD
HETATM    8  H   UNL     1      42.521 -13.231   7.139  1.00  0.00     0.275 HD
HETATM    9  H   UNL     1      41.965 -14.623   6.445  1.00  0.00     0.275 HD
ENDBRANCH   5   6
BRANCH   5  10
HETATM   10  C   UNL     1      41.824 -12.548   4.641  1.00  0.00     0.103 C 
BRANCH  10  11
HETATM   11  C   UNL     1      41.018 -12.028   5.782  1.00  0.00     0.053 A 
HETATM   12  N   UNL     1      39.957 -12.766   6.270  1.00  0.00    -0.247 NA
HETATM   13  C   UNL     1      39.446 -12.036   7.240  1.00  0.00     0.207 A 
HETATM   14  N   UNL     1      40.130 -10.863   7.402  1.00  0.00    -0.359 N 
HETATM   15  H   UNL     1      39.919 -10.138   8.078  1.00  0.00     0.166 HD
HETATM   16  C   UNL     1      41.140 -10.847   6.476  1.00  0.00     0.116 A 
ENDBRANCH  10  11
ENDBRANCH   5  10
ENDBRANCH   2   5
BRANCH   1  17
HETATM   17  C   UNL     1      43.020 -16.945   3.758  1.00  0.00     0.035 A 
HETATM   18  C   UNL     1      42.470 -17.158   2.496  1.00  0.00     0.030 A 
HETATM   19  C   UNL     1      42.637 -18.387   1.848  1.00  0.00     0.014 A 
HETATM   20  C   UNL     1      43.361 -19.427   2.446  1.00  0.00    -0.026 A 
HETATM   21  C   UNL     1      43.532 -20.665   1.805  1.00  0.00     0.012 A 
HETATM   22  C   UNL     1      43.927 -19.222   3.722  1.00  0.00    -0.024 A 
HETATM   23  C   UNL     1      44.256 -21.689   2.417  1.00  0.00     0.001 A 
HETATM   24  C   UNL     1      44.818 -21.488   3.674  1.00  0.00     0.001 A 
HETATM   25  C   UNL     1      44.655 -20.263   4.324  1.00  0.00     0.012 A 
HETATM   26  C   UNL     1      43.748 -17.981   4.362  1.00  0.00     0.042 A 
ENDBRANCH   1  17
TORSDOF 5
ENDMDL
MODEL 10
REMARK VINA RESULT:      -7.1      3.045      4.521
REMARK  5 active torsions:
REMARK  status: ('A' for Active; 'I' for Inactive)
REMARK    1  A    between atoms: C_9  and  N_10 
REMARK       I    between atoms: N_10  and  C_11 
REMARK    2  A    between atoms: C_11  and  C_12 
REMARK    3  A    between atoms: C_12  and  N_13 
REMARK    4  A    between atoms: C_12  and  C_17 
REMARK    5  A    between atoms: C_17  and  C_18 
ROOT
HETATM    1  N   UNL     1      41.962 -15.692   2.634  1.00  0.00    -0.325 N 
HETATM    2  C   UNL     1      42.443 -14.400   2.554  1.00  0.00     0.253 C 
HETATM    3  O   UNL     1      43.558 -13.996   2.882  1.00  0.00    -0.271 OA
HETATM    4  H   UNL     1      41.024 -15.888   2.303  1.00  0.00     0.169 HD
ENDROOT
BRANCH   2   5
HETATM    5  C   UNL     1      41.456 -13.377   1.976  1.00  0.00     0.280 C 
BRANCH   5   6
HETATM    6  N   UNL     1      42.128 -12.024   1.922  1.00  0.00    -0.066 N 
HETATM    7  H   UNL     1      42.856 -12.034   1.177  1.00  0.00     0.275 HD
HETATM    8  H   UNL     1      41.435 -11.297   1.698  1.00  0.00     0.275 HD
HETATM    9  H   UNL     1      42.558 -11.766   2.815  1.00  0.00     0.275 HD
ENDBRANCH   5   6
BRANCH   5  10
HETATM   10  C   UNL     1      40.190 -13.299   2.839  1.00  0.00     0.103 C 
BRANCH  10  11
HETATM   11  C   UNL     1      38.945 -13.318   2.020  1.00  0.00     0.053 A 
HETATM   12  N   UNL     1      38.512 -14.498   1.448  1.00  0.00    -0.247 NA
HETATM   13  C   UNL     1      37.422 -14.179   0.782  1.00  0.00     0.207 A 
HETATM   14  N   UNL     1      37.130 -12.849   0.901  1.00  0.00    -0.359 N 
HETATM   15  H   UNL     1      36.345 -12.371   0.472  1.00  0.00     0.166 HD
HETATM   16  C   UNL     1      38.096 -12.287   1.693  1.00  0.00     0.116 A 
ENDBRANCH  10  11
ENDBRANCH   5  10
ENDBRANCH   2   5
BRANCH   1  17
HETATM   17  C   UNL     1      42.658 -16.829   3.107  1.00  0.00     0.035 A 
HETATM   18  C   UNL     1      43.301 -16.895   4.342  1.00  0.00     0.030 A 
HETATM   19  C   UNL     1      43.977 -18.057   4.728  1.00  0.00     0.014 A 
HETATM   20  C   UNL     1      44.022 -19.179   3.890  1.00  0.00    -0.026 A 
HETATM   21  C   UNL     1      44.700 -20.350   4.268  1.00  0.00     0.012 A 
HETATM   22  C   UNL     1      43.371 -19.127   2.640  1.00  0.00    -0.024 A 
HETATM   23  C   UNL     1      44.734 -21.457   3.420  1.00  0.00     0.001 A 
HETATM   24  C   UNL     1      44.090 -21.409   2.187  1.00  0.00     0.001 A 
HETATM   25  C   UNL     1      43.413 -20.252   1.798  1.00  0.00     0.012 A 
HETATM   26  C   UNL     1      42.696 -17.950   2.265  1.00  0.00     0.042 A 
ENDBRANCH   1  17
TORSDOF 5
ENDMDL
