MODEL 1
REMARK VINA RESULT:      -8.2      0.000      0.000
REMARK  12 active torsions:
REMARK  status: ('A' for Active; 'I' for Inactive)
REMARK    1  A    between atoms: C_2  and  N_3 
REMARK    2  A    between atoms: N_3  and  C_5 
REMARK    3  A    between atoms: N_3  and  C_37 
REMARK    4  A    between atoms: C_5  and  C_6 
REMARK    5  A    between atoms: N_7  and  C_8 
REMARK    6  A    between atoms: C_12  and  N_13 
REMARK    7  A    between atoms: C_16  and  C_17 
REMARK       I    between atoms: C_17  and  N_18 
REMARK    8  A    between atoms: N_18  and  N_19 
REMARK    9  A    between atoms: C_20  and  C_21 
REMARK   10  A    between atoms: C_23  and  C_24 
REMARK   11  A    between atoms: C_28  and  O_29 
REMARK   12  A    between atoms: C_30  and  C_31 
ROOT
HETATM    1  C   UNL     1      40.645 -11.319   6.752  1.00  0.00     0.293 C 
HETATM    2  N   UNL     1      41.147 -12.603   6.666  1.00  0.00    -0.242 N 
HETATM    3  O   UNL     1      40.530 -10.529   5.817  1.00  0.00    -0.264 OA
HETATM    4  H   UNL     1      41.205 -13.198   7.487  1.00  0.00     0.192 HD
ENDROOT
BRANCH   1   5
HETATM    5  C   UNL     1      40.247 -10.914   8.093  1.00  0.00     0.170 A 
HETATM    6  C   UNL     1      41.096 -10.653   9.159  1.00  0.00     0.096 A 
HETATM    7  N   UNL     1      40.241 -10.414  10.230  1.00  0.00    -0.215 N 
HETATM    8  N   UNL     1      38.961 -10.410   9.771  1.00  0.00     0.012 NA
HETATM    9  N   UNL     1      38.955 -10.740   8.490  1.00  0.00    -0.152 NA
BRANCH   6  10
HETATM   10  C   UNL     1      42.575 -10.534   9.185  1.00  0.00     0.296 C 
BRANCH  10  11
HETATM   11  N   UNL     1      43.351 -11.792   9.530  1.00  0.00    -0.066 N 
HETATM   12  H   UNL     1      42.736 -12.586   9.294  1.00  0.00     0.280 HD
BRANCH  11  13
HETATM   13  C   UNL     1      43.636 -11.864  11.025  1.00  0.00     0.231 C 
HETATM   14  C   UNL     1      44.369 -10.628  11.511  1.00  0.00     0.034 C 
ENDBRANCH  11  13
BRANCH  11  15
HETATM   15  C   UNL     1      44.635 -11.924   8.720  1.00  0.00     0.231 C 
HETATM   16  C   UNL     1      44.687 -13.260   7.996  1.00  0.00     0.034 C 
ENDBRANCH  11  15
ENDBRANCH  10  11
ENDBRANCH   6  10
BRANCH   7  17
HETATM   17  C   UNL     1      40.565 -10.252  11.597  1.00  0.00     0.225 A 
HETATM   18  N   UNL     1      41.166  -9.131  12.010  1.00  0.00    -0.081 NA
HETATM   19  O   UNL     1      41.342  -9.340  13.382  1.00  0.00    -0.103 OA
HETATM   20  N   UNL     1      40.874 -10.588  13.764  1.00  0.00    -0.083 NA
HETATM   21  C   UNL     1      40.394 -11.156  12.659  1.00  0.00     0.201 A 
BRANCH  21  22
HETATM   22  N   UNL     1      39.845 -12.378  12.606  1.00  0.00    -0.379 N 
HETATM   23  H   UNL     1      38.942 -12.555  13.042  1.00  0.00     0.158 HD
HETATM   24  H   UNL     1      40.347 -13.216  12.316  1.00  0.00     0.158 HD
ENDBRANCH  21  22
ENDBRANCH   7  17
ENDBRANCH   1   5
BRANCH   2  25
HETATM   25  N   UNL     1      41.551 -13.063   5.453  1.00  0.00    -0.184 NA
HETATM   26  C   UNL     1      40.786 -13.928   4.868  1.00  0.00     0.150 C 
BRANCH  26  27
HETATM   27  C   UNL     1      41.143 -14.478   3.542  1.00  0.00    -0.016 A 
HETATM   28  C   UNL     1      41.871 -15.668   3.447  1.00  0.00     0.023 A 
HETATM   29  C   UNL     1      42.238 -16.225   2.207  1.00  0.00    -0.016 A 
HETATM   30  C   UNL     1      41.840 -15.493   1.056  1.00  0.00     0.079 A 
HETATM   31  C   UNL     1      41.101 -14.274   1.118  1.00  0.00    -0.016 A 
HETATM   32  C   UNL     1      40.757 -13.793   2.394  1.00  0.00     0.023 A 
BRANCH  29  33
HETATM   33  C   UNL     1      43.029 -17.560   2.183  1.00  0.00    -0.021 C 
HETATM   34  C   UNL     1      43.473 -18.054   3.592  1.00  0.00     0.019 C 
HETATM   35  C   UNL     1      42.161 -18.705   1.616  1.00  0.00     0.019 C 
HETATM   36  C   UNL     1      44.342 -17.401   1.381  1.00  0.00     0.019 C 
ENDBRANCH  29  33
BRANCH  30  37
HETATM   37  O   UNL     1      42.146 -15.922  -0.206  1.00  0.00    -0.360 OA
HETATM   38  H   UNL     1      43.082 -16.130  -0.295  1.00  0.00     0.217 HD
ENDBRANCH  30  37
BRANCH  31  39
HETATM   39  C   UNL     1      40.697 -13.481  -0.156  1.00  0.00    -0.021 C 
HETATM   40  C   UNL     1      41.945 -12.914  -0.870  1.00  0.00     0.019 C 
HETATM   41  C   UNL     1      39.958 -14.343  -1.215  1.00  0.00     0.019 C 
HETATM   42  C   UNL     1      39.725 -12.335   0.208  1.00  0.00     0.019 C 
ENDBRANCH  31  39
ENDBRANCH  26  27
ENDBRANCH   2  25
TORSDOF 12
ENDMDL
MODEL 2
REMARK VINA RESULT:      -8.2      0.236      3.020
REMARK  12 active torsions:
REMARK  status: ('A' for Active; 'I' for Inactive)
REMARK    1  A    between atoms: C_2  and  N_3 
REMARK    2  A    between atoms: N_3  and  C_5 
REMARK    3  A    between atoms: N_3  and  C_37 
REMARK    4  A    between atoms: C_5  and  C_6 
REMARK    5  A    between atoms: N_7  and  C_8 
REMARK    6  A    between atoms: C_12  and  N_13 
REMARK    7  A    between atoms: C_16  and  C_17 
REMARK       I    between atoms: C_17  and  N_18 
REMARK    8  A    between atoms: N_18  and  N_19 
REMARK    9  A    between atoms: C_20  and  C_21 
REMARK   10  A    between atoms: C_23  and  C_24 
REMARK   11  A    between atoms: C_28  and  O_29 
REMARK   12  A    between atoms: C_30  and  C_31 
ROOT
HETATM    1  C   UNL     1      40.864 -11.219   6.905  1.00  0.00     0.293 C 
HETATM    2  N   UNL     1      40.973 -12.580   6.696  1.00  0.00    -0.242 N 
HETATM    3  O   UNL     1      41.146 -10.343   6.091  1.00  0.00    -0.264 OA
HETATM    4  H   UNL     1      40.715 -13.244   7.420  1.00  0.00     0.192 HD
ENDROOT
BRANCH   1   5
HETATM    5  C   UNL     1      40.382 -10.849   8.228  1.00  0.00     0.170 A 
HETATM    6  C   UNL     1      41.162 -10.619   9.353  1.00  0.00     0.096 A 
HETATM    7  N   UNL     1      40.241 -10.404  10.373  1.00  0.00    -0.215 N 
HETATM    8  N   UNL     1      38.992 -10.384   9.834  1.00  0.00     0.012 NA
HETATM    9  N   UNL     1      39.068 -10.681   8.547  1.00  0.00    -0.152 NA
BRANCH   6  10
HETATM   10  C   UNL     1      42.637 -10.505   9.477  1.00  0.00     0.296 C 
BRANCH  10  11
HETATM   11  N   UNL     1      43.395 -11.790   9.755  1.00  0.00    -0.066 N 
HETATM   12  H   UNL     1      42.754 -12.563   9.515  1.00  0.00     0.280 HD
BRANCH  11  13
HETATM   13  C   UNL     1      43.728 -11.916  11.237  1.00  0.00     0.231 C 
HETATM   14  C   UNL     1      44.172 -10.588  11.821  1.00  0.00     0.034 C 
ENDBRANCH  11  13
BRANCH  11  15
HETATM   15  C   UNL     1      44.647 -11.925   8.898  1.00  0.00     0.231 C 
HETATM   16  C   UNL     1      44.601 -13.193   8.061  1.00  0.00     0.034 C 
ENDBRANCH  11  15
ENDBRANCH  10  11
ENDBRANCH   6  10
BRANCH   7  17
HETATM   17  C   UNL     1      40.477 -10.279  11.762  1.00  0.00     0.225 A 
HETATM   18  N   UNL     1      40.952  -9.131  12.255  1.00  0.00    -0.081 NA
HETATM   19  O   UNL     1      41.075  -9.388  13.625  1.00  0.00    -0.103 OA
HETATM   20  N   UNL     1      40.702 -10.689  13.927  1.00  0.00    -0.083 NA
HETATM   21  C   UNL     1      40.334 -11.244  12.773  1.00  0.00     0.201 A 
BRANCH  21  22
HETATM   22  N   UNL     1      39.901 -12.506  12.638  1.00  0.00    -0.379 N 
HETATM   23  H   UNL     1      40.363 -13.141  11.990  1.00  0.00     0.158 HD
HETATM   24  H   UNL     1      39.012 -12.845  13.002  1.00  0.00     0.158 HD
ENDBRANCH  21  22
ENDBRANCH   7  17
ENDBRANCH   1   5
BRANCH   2  25
HETATM   25  N   UNL     1      41.424 -13.018   5.490  1.00  0.00    -0.184 NA
HETATM   26  C   UNL     1      40.774 -13.994   4.940  1.00  0.00     0.150 C 
BRANCH  26  27
HETATM   27  C   UNL     1      41.188 -14.531   3.626  1.00  0.00    -0.016 A 
HETATM   28  C   UNL     1      40.799 -13.886   2.448  1.00  0.00     0.023 A 
HETATM   29  C   UNL     1      41.164 -14.365   1.176  1.00  0.00    -0.016 A 
HETATM   30  C   UNL     1      41.939 -15.556   1.159  1.00  0.00     0.079 A 
HETATM   31  C   UNL     1      42.349 -16.241   2.343  1.00  0.00    -0.016 A 
HETATM   32  C   UNL     1      41.959 -15.689   3.575  1.00  0.00     0.023 A 
BRANCH  29  33
HETATM   33  C   UNL     1      40.710 -13.582  -0.085  1.00  0.00    -0.021 C 
HETATM   34  C   UNL     1      40.065 -14.478  -1.184  1.00  0.00     0.019 C 
HETATM   35  C   UNL     1      39.621 -12.546   0.272  1.00  0.00     0.019 C 
HETATM   36  C   UNL     1      41.920 -12.910  -0.775  1.00  0.00     0.019 C 
ENDBRANCH  29  33
BRANCH  30  37
HETATM   37  O   UNL     1      42.347 -16.129  -0.014  1.00  0.00    -0.360 OA
HETATM   38  H   UNL     1      42.264 -15.520  -0.755  1.00  0.00     0.217 HD
ENDBRANCH  30  37
BRANCH  31  39
HETATM   39  C   UNL     1      43.178 -17.554   2.296  1.00  0.00    -0.021 C 
HETATM   40  C   UNL     1      43.663 -17.949   3.709  1.00  0.00     0.019 C 
HETATM   41  C   UNL     1      42.378 -18.775   1.766  1.00  0.00     0.019 C 
HETATM   42  C   UNL     1      44.385 -17.396   1.344  1.00  0.00     0.019 C 
ENDBRANCH  31  39
ENDBRANCH  26  27
ENDBRANCH   2  25
TORSDOF 12
ENDMDL
MODEL 3
REMARK VINA RESULT:      -7.9      6.542     10.893
REMARK  12 active torsions:
REMARK  status: ('A' for Active; 'I' for Inactive)
REMARK    1  A    between atoms: C_2  and  N_3 
REMARK    2  A    between atoms: N_3  and  C_5 
REMARK    3  A    between atoms: N_3  and  C_37 
REMARK    4  A    between atoms: C_5  and  C_6 
REMARK    5  A    between atoms: N_7  and  C_8 
REMARK    6  A    between atoms: C_12  and  N_13 
REMARK    7  A    between atoms: C_16  and  C_17 
REMARK       I    between atoms: C_17  and  N_18 
REMARK    8  A    between atoms: N_18  and  N_19 
REMARK    9  A    between atoms: C_20  and  C_21 
REMARK   10  A    between atoms: C_23  and  C_24 
REMARK   11  A    between atoms: C_28  and  O_29 
REMARK   12  A    between atoms: C_30  and  C_31 
ROOT
HETATM    1  C   UNL     1      41.454 -14.879  -0.568  1.00  0.00     0.293 C 
HETATM    2  N   UNL     1      41.575 -16.216  -0.244  1.00  0.00    -0.242 N 
HETATM    3  O   UNL     1      41.931 -13.941   0.067  1.00  0.00    -0.264 OA
HETATM    4  H   UNL     1      41.154 -16.936  -0.825  1.00  0.00     0.192 HD
ENDROOT
BRANCH   1   5
HETATM    5  C   UNL     1      40.672 -14.617  -1.768  1.00  0.00     0.170 A 
HETATM    6  C   UNL     1      39.328 -14.274  -1.814  1.00  0.00     0.096 A 
HETATM    7  N   UNL     1      39.029 -14.236  -3.172  1.00  0.00    -0.215 N 
HETATM    8  N   UNL     1      40.178 -14.421  -3.876  1.00  0.00     0.012 NA
HETATM    9  N   UNL     1      41.167 -14.680  -3.036  1.00  0.00    -0.152 NA
BRANCH   6  10
HETATM   10  C   UNL     1      38.404 -13.912  -0.711  1.00  0.00     0.296 C 
BRANCH  10  11
HETATM   11  N   UNL     1      38.859 -12.801   0.218  1.00  0.00    -0.066 N 
HETATM   12  H   UNL     1      39.823 -12.565  -0.062  1.00  0.00     0.280 HD
BRANCH  11  13
HETATM   13  C   UNL     1      38.908 -13.285   1.662  1.00  0.00     0.231 C 
HETATM   14  C   UNL     1      38.724 -14.789   1.751  1.00  0.00     0.034 C 
ENDBRANCH  11  13
BRANCH  11  15
HETATM   15  C   UNL     1      38.004 -11.547   0.089  1.00  0.00     0.231 C 
HETATM   16  C   UNL     1      36.611 -11.777   0.655  1.00  0.00     0.034 C 
ENDBRANCH  11  15
ENDBRANCH  10  11
ENDBRANCH   6  10
BRANCH   7  17
HETATM   17  C   UNL     1      37.766 -14.094  -3.793  1.00  0.00     0.225 A 
HETATM   18  N   UNL     1      37.210 -15.139  -4.414  1.00  0.00    -0.081 NA
HETATM   19  O   UNL     1      36.009 -14.623  -4.912  1.00  0.00    -0.103 OA
HETATM   20  N   UNL     1      35.878 -13.276  -4.611  1.00  0.00    -0.083 NA
HETATM   21  C   UNL     1      36.968 -12.946  -3.920  1.00  0.00     0.201 A 
BRANCH  21  22
HETATM   22  N   UNL     1      37.223 -11.720  -3.438  1.00  0.00    -0.379 N 
HETATM   23  H   UNL     1      37.521 -11.600  -2.473  1.00  0.00     0.158 HD
HETATM   24  H   UNL     1      36.964 -10.857  -3.913  1.00  0.00     0.158 HD
ENDBRANCH  21  22
ENDBRANCH   7  17
ENDBRANCH   1   5
BRANCH   2  25
HETATM   25  N   UNL     1      42.282 -16.555   0.867  1.00  0.00    -0.184 NA
HETATM   26  C   UNL     1      41.820 -17.530   1.582  1.00  0.00     0.150 C 
BRANCH  26  27
HETATM   27  C   UNL     1      42.527 -17.971   2.804  1.00  0.00    -0.016 A 
HETATM   28  C   UNL     1      42.499 -17.181   3.957  1.00  0.00     0.023 A 
HETATM   29  C   UNL     1      43.163 -17.559   5.140  1.00  0.00    -0.016 A 
HETATM   30  C   UNL     1      43.880 -18.784   5.086  1.00  0.00     0.079 A 
HETATM   31  C   UNL     1      43.932 -19.612   3.924  1.00  0.00    -0.016 A 
HETATM   32  C   UNL     1      43.228 -19.174   2.788  1.00  0.00     0.023 A 
BRANCH  29  33
HETATM   33  C   UNL     1      43.070 -16.637   6.386  1.00  0.00    -0.021 C 
HETATM   34  C   UNL     1      42.760 -17.398   7.709  1.00  0.00     0.019 C 
HETATM   35  C   UNL     1      44.415 -15.922   6.645  1.00  0.00     0.019 C 
HETATM   36  C   UNL     1      41.915 -15.621   6.226  1.00  0.00     0.019 C 
ENDBRANCH  29  33
BRANCH  30  37
HETATM   37  O   UNL     1      44.576 -19.255   6.165  1.00  0.00    -0.360 OA
HETATM   38  H   UNL     1      45.497 -19.433   5.944  1.00  0.00     0.217 HD
ENDBRANCH  30  37
BRANCH  31  39
HETATM   39  C   UNL     1      44.742 -20.937   3.884  1.00  0.00    -0.021 C 
HETATM   40  C   UNL     1      44.422 -21.815   5.115  1.00  0.00     0.019 C 
HETATM   41  C   UNL     1      44.433 -21.818   2.643  1.00  0.00     0.019 C 
HETATM   42  C   UNL     1      46.258 -20.640   3.822  1.00  0.00     0.019 C 
ENDBRANCH  31  39
ENDBRANCH  26  27
ENDBRANCH   2  25
TORSDOF 12
ENDMDL
MODEL 4
REMARK VINA RESULT:      -7.9      6.400     10.587
REMARK  12 active torsions:
REMARK  status: ('A' for Active; 'I' for Inactive)
REMARK    1  A    between atoms: C_2  and  N_3 
REMARK    2  A    between atoms: N_3  and  C_5 
REMARK    3  A    between atoms: N_3  and  C_37 
REMARK    4  A    between atoms: C_5  and  C_6 
REMARK    5  A    between atoms: N_7  and  C_8 
REMARK    6  A    between atoms: C_12  and  N_13 
REMARK    7  A    between atoms: C_16  and  C_17 
REMARK       I    between atoms: C_17  and  N_18 
REMARK    8  A    between atoms: N_18  and  N_19 
REMARK    9  A    between atoms: C_20  and  C_21 
REMARK   10  A    between atoms: C_23  and  C_24 
REMARK   11  A    between atoms: C_28  and  O_29 
REMARK   12  A    between atoms: C_30  and  C_31 
ROOT
HETATM    1  C   UNL     1      41.466 -14.825  -0.547  1.00  0.00     0.293 C 
HETATM    2  N   UNL     1      41.672 -16.165  -0.279  1.00  0.00    -0.242 N 
HETATM    3  O   UNL     1      41.867 -13.886   0.138  1.00  0.00    -0.264 OA
HETATM    4  H   UNL     1      41.310 -16.884  -0.899  1.00  0.00     0.192 HD
ENDROOT
BRANCH   1   5
HETATM    5  C   UNL     1      40.688 -14.562  -1.748  1.00  0.00     0.170 A 
HETATM    6  C   UNL     1      39.328 -14.289  -1.804  1.00  0.00     0.096 A 
HETATM    7  N   UNL     1      39.046 -14.219  -3.165  1.00  0.00    -0.215 N 
HETATM    8  N   UNL     1      40.213 -14.319  -3.856  1.00  0.00     0.012 NA
HETATM    9  N   UNL     1      41.203 -14.556  -3.010  1.00  0.00    -0.152 NA
BRANCH   6  10
HETATM   10  C   UNL     1      38.371 -14.014  -0.704  1.00  0.00     0.296 C 
BRANCH  10  11
HETATM   11  N   UNL     1      38.971 -13.662   0.645  1.00  0.00    -0.066 N 
HETATM   12  H   UNL     1      39.989 -13.583   0.498  1.00  0.00     0.280 HD
BRANCH  11  13
HETATM   13  C   UNL     1      38.742 -14.783   1.652  1.00  0.00     0.231 C 
HETATM   14  C   UNL     1      39.688 -14.672   2.832  1.00  0.00     0.034 C 
ENDBRANCH  11  13
BRANCH  11  15
HETATM   15  C   UNL     1      38.460 -12.331   1.180  1.00  0.00     0.231 C 
HETATM   16  C   UNL     1      37.025 -12.083   0.745  1.00  0.00     0.034 C 
ENDBRANCH  11  15
ENDBRANCH  10  11
ENDBRANCH   6  10
BRANCH   7  17
HETATM   17  C   UNL     1      37.787 -14.121  -3.801  1.00  0.00     0.225 A 
HETATM   18  N   UNL     1      37.281 -15.181  -4.439  1.00  0.00    -0.081 NA
HETATM   19  O   UNL     1      36.066 -14.708  -4.948  1.00  0.00    -0.103 OA
HETATM   20  N   UNL     1      35.877 -13.371  -4.634  1.00  0.00    -0.083 NA
HETATM   21  C   UNL     1      36.944 -13.005  -3.925  1.00  0.00     0.201 A 
BRANCH  21  22
HETATM   22  N   UNL     1      37.143 -11.775  -3.427  1.00  0.00    -0.379 N 
HETATM   23  H   UNL     1      36.650 -11.475  -2.589  1.00  0.00     0.158 HD
HETATM   24  H   UNL     1      37.621 -11.029  -3.929  1.00  0.00     0.158 HD
ENDBRANCH  21  22
ENDBRANCH   7  17
ENDBRANCH   1   5
BRANCH   2  25
HETATM   25  N   UNL     1      42.382 -16.504   0.829  1.00  0.00    -0.184 NA
HETATM   26  C   UNL     1      41.882 -17.430   1.585  1.00  0.00     0.150 C 
BRANCH  26  27
HETATM   27  C   UNL     1      42.589 -17.869   2.808  1.00  0.00    -0.016 A 
HETATM   28  C   UNL     1      43.268 -19.091   2.828  1.00  0.00     0.023 A 
HETATM   29  C   UNL     1      43.948 -19.552   3.971  1.00  0.00    -0.016 A 
HETATM   30  C   UNL     1      43.888 -18.707   5.112  1.00  0.00     0.079 A 
HETATM   31  C   UNL     1      43.202 -17.456   5.126  1.00  0.00    -0.016 A 
HETATM   32  C   UNL     1      42.562 -17.058   3.939  1.00  0.00     0.023 A 
BRANCH  29  33
HETATM   33  C   UNL     1      44.695 -20.911   3.909  1.00  0.00    -0.021 C 
HETATM   34  C   UNL     1      46.246 -20.779   3.941  1.00  0.00     0.019 C 
HETATM   35  C   UNL     1      44.346 -21.788   5.133  1.00  0.00     0.019 C 
HETATM   36  C   UNL     1      44.381 -21.646   2.585  1.00  0.00     0.019 C 
ENDBRANCH  29  33
BRANCH  30  37
HETATM   37  O   UNL     1      44.499 -19.047   6.288  1.00  0.00    -0.360 OA
HETATM   38  H   UNL     1      43.884 -19.468   6.899  1.00  0.00     0.217 HD
ENDBRANCH  30  37
BRANCH  31  39
HETATM   39  C   UNL     1      43.133 -16.560   6.394  1.00  0.00    -0.021 C 
HETATM   40  C   UNL     1      42.738 -17.393   7.635  1.00  0.00     0.019 C 
HETATM   41  C   UNL     1      44.484 -15.883   6.751  1.00  0.00     0.019 C 
HETATM   42  C   UNL     1      42.126 -15.406   6.185  1.00  0.00     0.019 C 
ENDBRANCH  31  39
ENDBRANCH  26  27
ENDBRANCH   2  25
TORSDOF 12
ENDMDL
MODEL 5
REMARK VINA RESULT:      -7.5      2.263      3.542
REMARK  12 active torsions:
REMARK  status: ('A' for Active; 'I' for Inactive)
REMARK    1  A    between atoms: C_2  and  N_3 
REMARK    2  A    between atoms: N_3  and  C_5 
REMARK    3  A    between atoms: N_3  and  C_37 
REMARK    4  A    between atoms: C_5  and  C_6 
REMARK    5  A    between atoms: N_7  and  C_8 
REMARK    6  A    between atoms: C_12  and  N_13 
REMARK    7  A    between atoms: C_16  and  C_17 
REMARK       I    between atoms: C_17  and  N_18 
REMARK    8  A    between atoms: N_18  and  N_19 
REMARK    9  A    between atoms: C_20  and  C_21 
REMARK   10  A    between atoms: C_23  and  C_24 
REMARK   11  A    between atoms: C_28  and  O_29 
REMARK   12  A    between atoms: C_30  and  C_31 
ROOT
HETATM    1  C   UNL     1      42.350 -11.276   7.767  1.00  0.00     0.293 C 
HETATM    2  N   UNL     1      41.632 -12.033   6.861  1.00  0.00    -0.242 N 
HETATM    3  O   UNL     1      43.523 -11.459   8.085  1.00  0.00    -0.264 OA
HETATM    4  H   UNL     1      40.664 -11.813   6.647  1.00  0.00     0.192 HD
ENDROOT
BRANCH   1   5
HETATM    5  C   UNL     1      41.598 -10.188   8.376  1.00  0.00     0.170 A 
HETATM    6  C   UNL     1      41.288 -10.056   9.722  1.00  0.00     0.096 A 
HETATM    7  N   UNL     1      40.479  -8.926   9.780  1.00  0.00    -0.215 N 
HETATM    8  N   UNL     1      40.432  -8.361   8.544  1.00  0.00     0.012 NA
HETATM    9  N   UNL     1      41.079  -9.133   7.686  1.00  0.00    -0.152 NA
BRANCH   6  10
HETATM   10  C   UNL     1      41.769 -10.840  10.887  1.00  0.00     0.296 C 
BRANCH  10  11
HETATM   11  N   UNL     1      42.822 -10.180  11.760  1.00  0.00    -0.066 N 
HETATM   12  H   UNL     1      42.818  -9.179  11.513  1.00  0.00     0.280 HD
BRANCH  11  13
HETATM   13  C   UNL     1      44.210 -10.723  11.442  1.00  0.00     0.231 C 
HETATM   14  C   UNL     1      44.203 -12.236  11.328  1.00  0.00     0.034 C 
ENDBRANCH  11  13
BRANCH  11  15
HETATM   15  C   UNL     1      42.510 -10.309  13.245  1.00  0.00     0.231 C 
HETATM   16  C   UNL     1      43.156  -9.183  14.036  1.00  0.00     0.034 C 
ENDBRANCH  11  15
ENDBRANCH  10  11
ENDBRANCH   6  10
BRANCH   7  17
HETATM   17  C   UNL     1      39.748  -8.420  10.881  1.00  0.00     0.225 A 
HETATM   18  N   UNL     1      40.312  -7.524  11.697  1.00  0.00    -0.081 NA
HETATM   19  O   UNL     1      39.320  -7.284  12.654  1.00  0.00    -0.103 OA
HETATM   20  N   UNL     1      38.194  -8.057  12.416  1.00  0.00    -0.083 NA
HETATM   21  C   UNL     1      38.459  -8.764  11.318  1.00  0.00     0.201 A 
BRANCH  21  22
HETATM   22  N   UNL     1      37.614  -9.639  10.753  1.00  0.00    -0.379 N 
HETATM   23  H   UNL     1      37.107 -10.308  11.329  1.00  0.00     0.158 HD
HETATM   24  H   UNL     1      37.568  -9.820   9.752  1.00  0.00     0.158 HD
ENDBRANCH  21  22
ENDBRANCH   7  17
ENDBRANCH   1   5
BRANCH   2  25
HETATM   25  N   UNL     1      42.253 -13.075   6.249  1.00  0.00    -0.184 NA
HETATM   26  C   UNL     1      41.527 -14.113   5.977  1.00  0.00     0.150 C 
BRANCH  26  27
HETATM   27  C   UNL     1      42.116 -15.292   5.306  1.00  0.00    -0.016 A 
HETATM   28  C   UNL     1      42.826 -16.241   6.047  1.00  0.00     0.023 A 
HETATM   29  C   UNL     1      43.409 -17.375   5.449  1.00  0.00    -0.016 A 
HETATM   30  C   UNL     1      43.248 -17.487   4.042  1.00  0.00     0.079 A 
HETATM   31  C   UNL     1      42.533 -16.533   3.256  1.00  0.00    -0.016 A 
HETATM   32  C   UNL     1      41.966 -15.438   3.930  1.00  0.00     0.023 A 
BRANCH  29  33
HETATM   33  C   UNL     1      44.165 -18.395   6.341  1.00  0.00    -0.021 C 
HETATM   34  C   UNL     1      43.995 -19.875   5.888  1.00  0.00     0.019 C 
HETATM   35  C   UNL     1      45.688 -18.141   6.301  1.00  0.00     0.019 C 
HETATM   36  C   UNL     1      43.628 -18.355   7.791  1.00  0.00     0.019 C 
ENDBRANCH  29  33
BRANCH  30  37
HETATM   37  O   UNL     1      43.777 -18.535   3.341  1.00  0.00    -0.360 OA
HETATM   38  H   UNL     1      43.155 -19.267   3.272  1.00  0.00     0.217 HD
ENDBRANCH  30  37
BRANCH  31  39
HETATM   39  C   UNL     1      42.391 -16.667   1.714  1.00  0.00    -0.021 C 
HETATM   40  C   UNL     1      43.686 -17.233   1.089  1.00  0.00     0.019 C 
HETATM   41  C   UNL     1      41.254 -17.628   1.276  1.00  0.00     0.019 C 
HETATM   42  C   UNL     1      42.051 -15.297   1.084  1.00  0.00     0.019 C 
ENDBRANCH  31  39
ENDBRANCH  26  27
ENDBRANCH   2  25
TORSDOF 12
ENDMDL
MODEL 6
REMARK VINA RESULT:      -7.5      3.386     10.826
REMARK  12 active torsions:
REMARK  status: ('A' for Active; 'I' for Inactive)
REMARK    1  A    between atoms: C_2  and  N_3 
REMARK    2  A    between atoms: N_3  and  C_5 
REMARK    3  A    between atoms: N_3  and  C_37 
REMARK    4  A    between atoms: C_5  and  C_6 
REMARK    5  A    between atoms: N_7  and  C_8 
REMARK    6  A    between atoms: C_12  and  N_13 
REMARK    7  A    between atoms: C_16  and  C_17 
REMARK       I    between atoms: C_17  and  N_18 
REMARK    8  A    between atoms: N_18  and  N_19 
REMARK    9  A    between atoms: C_20  and  C_21 
REMARK   10  A    between atoms: C_23  and  C_24 
REMARK   11  A    between atoms: C_28  and  O_29 
REMARK   12  A    between atoms: C_30  and  C_31 
ROOT
HETATM    1  C   UNL     1      42.481 -12.908   3.137  1.00  0.00     0.293 C 
HETATM    2  N   UNL     1      41.730 -12.063   3.930  1.00  0.00    -0.242 N 
HETATM    3  O   UNL     1      43.385 -13.645   3.527  1.00  0.00    -0.264 OA
HETATM    4  H   UNL     1      40.994 -11.487   3.531  1.00  0.00     0.192 HD
ENDROOT
BRANCH   1   5
HETATM    5  C   UNL     1      42.139 -12.871   1.722  1.00  0.00     0.170 A 
HETATM    6  C   UNL     1      41.595 -13.910   0.980  1.00  0.00     0.096 A 
HETATM    7  N   UNL     1      41.554 -13.420  -0.321  1.00  0.00    -0.215 N 
HETATM    8  N   UNL     1      41.936 -12.115  -0.306  1.00  0.00     0.012 NA
HETATM    9  N   UNL     1      42.319 -11.786   0.917  1.00  0.00    -0.152 NA
BRANCH   6  10
HETATM   10  C   UNL     1      41.059 -15.218   1.432  1.00  0.00     0.296 C 
BRANCH  10  11
HETATM   11  N   UNL     1      42.065 -16.202   2.004  1.00  0.00    -0.066 N 
HETATM   12  H   UNL     1      42.769 -15.638   2.506  1.00  0.00     0.280 HD
BRANCH  11  13
HETATM   13  C   UNL     1      42.788 -16.950   0.890  1.00  0.00     0.231 C 
HETATM   14  C   UNL     1      44.063 -17.600   1.395  1.00  0.00     0.034 C 
ENDBRANCH  11  13
BRANCH  11  15
HETATM   15  C   UNL     1      41.433 -17.170   2.995  1.00  0.00     0.231 C 
HETATM   16  C   UNL     1      41.868 -16.855   4.418  1.00  0.00     0.034 C 
ENDBRANCH  11  15
ENDBRANCH  10  11
ENDBRANCH   6  10
BRANCH   7  17
HETATM   17  C   UNL     1      41.238 -14.111  -1.514  1.00  0.00     0.225 A 
HETATM   18  N   UNL     1      40.192 -14.944  -1.543  1.00  0.00    -0.081 NA
HETATM   19  O   UNL     1      40.210 -15.446  -2.849  1.00  0.00    -0.103 OA
HETATM   20  N   UNL     1      41.277 -14.934  -3.570  1.00  0.00    -0.083 NA
HETATM   21  C   UNL     1      41.917 -14.108  -2.743  1.00  0.00     0.201 A 
BRANCH  21  22
HETATM   22  N   UNL     1      43.015 -13.407  -3.065  1.00  0.00    -0.379 N 
HETATM   23  H   UNL     1      43.192 -13.148  -4.033  1.00  0.00     0.158 HD
HETATM   24  H   UNL     1      43.802 -13.261  -2.435  1.00  0.00     0.158 HD
ENDBRANCH  21  22
ENDBRANCH   7  17
ENDBRANCH   1   5
BRANCH   2  25
HETATM   25  N   UNL     1      41.987 -12.026   5.265  1.00  0.00    -0.184 NA
HETATM   26  C   UNL     1      41.570 -10.986   5.913  1.00  0.00     0.150 C 
BRANCH  26  27
HETATM   27  C   UNL     1      41.798 -10.862   7.370  1.00  0.00    -0.016 A 
HETATM   28  C   UNL     1      40.836 -10.256   8.183  1.00  0.00     0.023 A 
HETATM   29  C   UNL     1      41.014 -10.111   9.572  1.00  0.00    -0.016 A 
HETATM   30  C   UNL     1      42.239 -10.603  10.096  1.00  0.00     0.079 A 
HETATM   31  C   UNL     1      43.243 -11.224   9.293  1.00  0.00    -0.016 A 
HETATM   32  C   UNL     1      42.982 -11.346   7.917  1.00  0.00     0.023 A 
BRANCH  29  33
HETATM   33  C   UNL     1      39.892  -9.444  10.412  1.00  0.00    -0.021 C 
HETATM   34  C   UNL     1      38.516  -9.379   9.685  1.00  0.00     0.019 C 
HETATM   35  C   UNL     1      39.620 -10.245  11.705  1.00  0.00     0.019 C 
HETATM   36  C   UNL     1      40.249  -7.973  10.728  1.00  0.00     0.019 C 
ENDBRANCH  29  33
BRANCH  30  37
HETATM   37  O   UNL     1      42.538 -10.512  11.428  1.00  0.00    -0.360 OA
HETATM   38  H   UNL     1      41.850 -10.907  11.975  1.00  0.00     0.217 HD
ENDBRANCH  30  37
BRANCH  31  39
HETATM   39  C   UNL     1      44.585 -11.733   9.888  1.00  0.00    -0.021 C 
HETATM   40  C   UNL     1      45.381 -12.541   8.838  1.00  0.00     0.019 C 
HETATM   41  C   UNL     1      45.531 -10.594  10.353  1.00  0.00     0.019 C 
HETATM   42  C   UNL     1      44.324 -12.602  11.140  1.00  0.00     0.019 C 
ENDBRANCH  31  39
ENDBRANCH  26  27
ENDBRANCH   2  25
TORSDOF 12
ENDMDL
MODEL 7
REMARK VINA RESULT:      -7.4      3.386     10.525
REMARK  12 active torsions:
REMARK  status: ('A' for Active; 'I' for Inactive)
REMARK    1  A    between atoms: C_2  and  N_3 
REMARK    2  A    between atoms: N_3  and  C_5 
REMARK    3  A    between atoms: N_3  and  C_37 
REMARK    4  A    between atoms: C_5  and  C_6 
REMARK    5  A    between atoms: N_7  and  C_8 
REMARK    6  A    between atoms: C_12  and  N_13 
REMARK    7  A    between atoms: C_16  and  C_17 
REMARK       I    between atoms: C_17  and  N_18 
REMARK    8  A    between atoms: N_18  and  N_19 
REMARK    9  A    between atoms: C_20  and  C_21 
REMARK   10  A    between atoms: C_23  and  C_24 
REMARK   11  A    between atoms: C_28  and  O_29 
REMARK   12  A    between atoms: C_30  and  C_31 
ROOT
HETATM    1  C   UNL     1      42.576 -12.835   3.074  1.00  0.00     0.293 C 
HETATM    2  N   UNL     1      41.724 -12.120   3.892  1.00  0.00    -0.242 N 
HETATM    3  O   UNL     1      43.601 -13.410   3.433  1.00  0.00    -0.264 OA
HETATM    4  H   UNL     1      40.890 -11.675   3.519  1.00  0.00     0.192 HD
ENDROOT
BRANCH   1   5
HETATM    5  C   UNL     1      42.184 -12.864   1.672  1.00  0.00     0.170 A 
HETATM    6  C   UNL     1      41.763 -13.978   0.959  1.00  0.00     0.096 A 
HETATM    7  N   UNL     1      41.611 -13.516  -0.344  1.00  0.00    -0.215 N 
HETATM    8  N   UNL     1      41.811 -12.171  -0.355  1.00  0.00     0.012 NA
HETATM    9  N   UNL     1      42.186 -11.776   0.851  1.00  0.00    -0.152 NA
BRANCH   6  10
HETATM   10  C   UNL     1      41.427 -15.341   1.442  1.00  0.00     0.296 C 
BRANCH  10  11
HETATM   11  N   UNL     1      42.529 -16.094   2.165  1.00  0.00    -0.066 N 
HETATM   12  H   UNL     1      43.190 -15.381   2.511  1.00  0.00     0.280 HD
BRANCH  11  13
HETATM   13  C   UNL     1      43.293 -16.996   1.203  1.00  0.00     0.231 C 
HETATM   14  C   UNL     1      43.583 -18.350   1.823  1.00  0.00     0.034 C 
ENDBRANCH  11  13
BRANCH  11  15
HETATM   15  C   UNL     1      42.008 -16.882   3.359  1.00  0.00     0.231 C 
HETATM   16  C   UNL     1      41.081 -16.030   4.212  1.00  0.00     0.034 C 
ENDBRANCH  11  15
ENDBRANCH  10  11
ENDBRANCH   6  10
BRANCH   7  17
HETATM   17  C   UNL     1      41.353 -14.260  -1.519  1.00  0.00     0.225 A 
HETATM   18  N   UNL     1      40.413 -15.211  -1.510  1.00  0.00    -0.081 NA
HETATM   19  O   UNL     1      40.460 -15.730  -2.809  1.00  0.00    -0.103 OA
HETATM   20  N   UNL     1      41.443 -15.107  -3.563  1.00  0.00    -0.083 NA
HETATM   21  C   UNL     1      41.999 -14.197  -2.765  1.00  0.00     0.201 A 
BRANCH  21  22
HETATM   22  N   UNL     1      42.997 -13.376  -3.123  1.00  0.00    -0.379 N 
HETATM   23  H   UNL     1      43.869 -13.756  -3.484  1.00  0.00     0.158 HD
HETATM   24  H   UNL     1      43.030 -12.385  -2.892  1.00  0.00     0.158 HD
ENDBRANCH  21  22
ENDBRANCH   7  17
ENDBRANCH   1   5
BRANCH   2  25
HETATM   25  N   UNL     1      42.016 -12.032   5.217  1.00  0.00    -0.184 NA
HETATM   26  C   UNL     1      41.511 -11.030   5.864  1.00  0.00     0.150 C 
BRANCH  26  27
HETATM   27  C   UNL     1      41.770 -10.857   7.310  1.00  0.00    -0.016 A 
HETATM   28  C   UNL     1      42.951 -11.346   7.876  1.00  0.00     0.023 A 
HETATM   29  C   UNL     1      43.236 -11.210   9.248  1.00  0.00    -0.016 A 
HETATM   30  C   UNL     1      42.241 -10.562  10.028  1.00  0.00     0.079 A 
HETATM   31  C   UNL     1      41.023 -10.056   9.482  1.00  0.00    -0.016 A 
HETATM   32  C   UNL     1      40.821 -10.215   8.100  1.00  0.00     0.023 A 
BRANCH  29  33
HETATM   33  C   UNL     1      44.579 -11.761   9.799  1.00  0.00    -0.021 C 
HETATM   34  C   UNL     1      45.580 -10.652  10.242  1.00  0.00     0.019 C 
HETATM   35  C   UNL     1      44.346 -12.614  11.066  1.00  0.00     0.019 C 
HETATM   36  C   UNL     1      45.326 -12.565   8.710  1.00  0.00     0.019 C 
ENDBRANCH  29  33
BRANCH  30  37
HETATM   37  O   UNL     1      42.393 -10.379  11.375  1.00  0.00    -0.360 OA
HETATM   38  H   UNL     1      42.317  -9.450  11.618  1.00  0.00     0.217 HD
ENDBRANCH  30  37
BRANCH  31  39
HETATM   39  C   UNL     1      39.940  -9.371  10.361  1.00  0.00    -0.021 C 
HETATM   40  C   UNL     1      38.624  -9.188   9.572  1.00  0.00     0.019 C 
HETATM   41  C   UNL     1      39.564 -10.183  11.629  1.00  0.00     0.019 C 
HETATM   42  C   UNL     1      40.448  -8.003  10.872  1.00  0.00     0.019 C 
ENDBRANCH  31  39
ENDBRANCH  26  27
ENDBRANCH   2  25
TORSDOF 12
ENDMDL
MODEL 8
REMARK VINA RESULT:      -7.4      6.621     10.162
REMARK  12 active torsions:
REMARK  status: ('A' for Active; 'I' for Inactive)
REMARK    1  A    between atoms: C_2  and  N_3 
REMARK    2  A    between atoms: N_3  and  C_5 
REMARK    3  A    between atoms: N_3  and  C_37 
REMARK    4  A    between atoms: C_5  and  C_6 
REMARK    5  A    between atoms: N_7  and  C_8 
REMARK    6  A    between atoms: C_12  and  N_13 
REMARK    7  A    between atoms: C_16  and  C_17 
REMARK       I    between atoms: C_17  and  N_18 
REMARK    8  A    between atoms: N_18  and  N_19 
REMARK    9  A    between atoms: C_20  and  C_21 
REMARK   10  A    between atoms: C_23  and  C_24 
REMARK   11  A    between atoms: C_28  and  O_29 
REMARK   12  A    between atoms: C_30  and  C_31 
ROOT
HETATM    1  C   UNL     1      39.818 -14.693   1.289  1.00  0.00     0.293 C 
HETATM    2  N   UNL     1      40.237 -15.947   0.891  1.00  0.00    -0.242 N 
HETATM    3  O   UNL     1      39.935 -14.222   2.418  1.00  0.00    -0.264 OA
HETATM    4  H   UNL     1      40.108 -16.263  -0.067  1.00  0.00     0.192 HD
ENDROOT
BRANCH   1   5
HETATM    5  C   UNL     1      39.175 -13.910   0.243  1.00  0.00     0.170 A 
HETATM    6  C   UNL     1      39.803 -13.040  -0.636  1.00  0.00     0.096 A 
HETATM    7  N   UNL     1      38.761 -12.466  -1.357  1.00  0.00    -0.215 N 
HETATM    8  N   UNL     1      37.598 -13.074  -0.998  1.00  0.00     0.012 NA
HETATM    9  N   UNL     1      37.836 -13.925  -0.013  1.00  0.00    -0.152 NA
BRANCH   6  10
HETATM   10  C   UNL     1      41.250 -12.814  -0.874  1.00  0.00     0.296 C 
BRANCH  10  11
HETATM   11  N   UNL     1      41.905 -13.676  -1.938  1.00  0.00    -0.066 N 
HETATM   12  H   UNL     1      42.410 -14.423  -1.436  1.00  0.00     0.280 HD
BRANCH  11  13
HETATM   13  C   UNL     1      42.937 -12.878  -2.726  1.00  0.00     0.231 C 
HETATM   14  C   UNL     1      42.280 -11.810  -3.579  1.00  0.00     0.034 C 
ENDBRANCH  11  13
BRANCH  11  15
HETATM   15  C   UNL     1      40.889 -14.327  -2.867  1.00  0.00     0.231 C 
HETATM   16  C   UNL     1      40.947 -15.842  -2.763  1.00  0.00     0.034 C 
ENDBRANCH  11  15
ENDBRANCH  10  11
ENDBRANCH   6  10
BRANCH   7  17
HETATM   17  C   UNL     1      38.811 -11.393  -2.278  1.00  0.00     0.225 A 
HETATM   18  N   UNL     1      39.277 -10.203  -1.886  1.00  0.00    -0.081 NA
HETATM   19  O   UNL     1      39.153  -9.410  -3.032  1.00  0.00    -0.103 OA
HETATM   20  N   UNL     1      38.590 -10.124  -4.079  1.00  0.00    -0.083 NA
HETATM   21  C   UNL     1      38.375 -11.353  -3.612  1.00  0.00     0.201 A 
BRANCH  21  22
HETATM   22  N   UNL     1      37.839 -12.356  -4.324  1.00  0.00    -0.379 N 
HETATM   23  H   UNL     1      37.968 -13.321  -4.029  1.00  0.00     0.158 HD
HETATM   24  H   UNL     1      37.453 -12.246  -5.260  1.00  0.00     0.158 HD
ENDBRANCH  21  22
ENDBRANCH   7  17
ENDBRANCH   1   5
BRANCH   2  25
HETATM   25  N   UNL     1      40.841 -16.752   1.805  1.00  0.00    -0.184 NA
HETATM   26  C   UNL     1      42.103 -16.989   1.634  1.00  0.00     0.150 C 
BRANCH  26  27
HETATM   27  C   UNL     1      42.845 -17.848   2.584  1.00  0.00    -0.016 A 
HETATM   28  C   UNL     1      43.250 -19.130   2.203  1.00  0.00     0.023 A 
HETATM   29  C   UNL     1      43.951 -19.984   3.075  1.00  0.00    -0.016 A 
HETATM   30  C   UNL     1      44.207 -19.470   4.374  1.00  0.00     0.079 A 
HETATM   31  C   UNL     1      43.804 -18.167   4.796  1.00  0.00    -0.016 A 
HETATM   32  C   UNL     1      43.123 -17.369   3.860  1.00  0.00     0.023 A 
BRANCH  29  33
HETATM   33  C   UNL     1      44.385 -21.387   2.572  1.00  0.00    -0.021 C 
HETATM   34  C   UNL     1      43.486 -21.953   1.433  1.00  0.00     0.019 C 
HETATM   35  C   UNL     1      45.807 -21.343   1.971  1.00  0.00     0.019 C 
HETATM   36  C   UNL     1      44.290 -22.427   3.713  1.00  0.00     0.019 C 
ENDBRANCH  29  33
BRANCH  30  37
HETATM   37  O   UNL     1      44.870 -20.206   5.318  1.00  0.00    -0.360 OA
HETATM   38  H   UNL     1      44.261 -20.698   5.878  1.00  0.00     0.217 HD
ENDBRANCH  30  37
BRANCH  31  39
HETATM   39  C   UNL     1      44.077 -17.637   6.231  1.00  0.00    -0.021 C 
HETATM   40  C   UNL     1      43.142 -18.317   7.256  1.00  0.00     0.019 C 
HETATM   41  C   UNL     1      45.522 -17.909   6.730  1.00  0.00     0.019 C 
HETATM   42  C   UNL     1      43.895 -16.103   6.282  1.00  0.00     0.019 C 
ENDBRANCH  31  39
ENDBRANCH  26  27
ENDBRANCH   2  25
TORSDOF 12
ENDMDL
MODEL 9
REMARK VINA RESULT:      -7.3      6.495     10.355
REMARK  12 active torsions:
REMARK  status: ('A' for Active; 'I' for Inactive)
REMARK    1  A    between atoms: C_2  and  N_3 
REMARK    2  A    between atoms: N_3  and  C_5 
REMARK    3  A    between atoms: N_3  and  C_37 
REMARK    4  A    between atoms: C_5  and  C_6 
REMARK    5  A    between atoms: N_7  and  C_8 
REMARK    6  A    between atoms: C_12  and  N_13 
REMARK    7  A    between atoms: C_16  and  C_17 
REMARK       I    between atoms: C_17  and  N_18 
REMARK    8  A    between atoms: N_18  and  N_19 
REMARK    9  A    between atoms: C_20  and  C_21 
REMARK   10  A    between atoms: C_23  and  C_24 
REMARK   11  A    between atoms: C_28  and  O_29 
REMARK   12  A    between atoms: C_30  and  C_31 
ROOT
HETATM    1  C   UNL     1      39.672 -14.791   1.674  1.00  0.00     0.293 C 
HETATM    2  N   UNL     1      39.813 -16.136   1.392  1.00  0.00    -0.242 N 
HETATM    3  O   UNL     1      40.138 -14.210   2.652  1.00  0.00    -0.264 OA
HETATM    4  H   UNL     1      39.400 -16.542   0.557  1.00  0.00     0.192 HD
ENDROOT
BRANCH   1   5
HETATM    5  C   UNL     1      38.882 -14.050   0.702  1.00  0.00     0.170 A 
HETATM    6  C   UNL     1      39.318 -13.590  -0.533  1.00  0.00     0.096 A 
HETATM    7  N   UNL     1      38.242 -12.861  -1.029  1.00  0.00    -0.215 N 
HETATM    8  N   UNL     1      37.191 -13.003  -0.177  1.00  0.00     0.012 NA
HETATM    9  N   UNL     1      37.579 -13.693   0.883  1.00  0.00    -0.152 NA
BRANCH   6  10
HETATM   10  C   UNL     1      40.583 -13.871  -1.256  1.00  0.00     0.296 C 
BRANCH  10  11
HETATM   11  N   UNL     1      40.467 -14.146  -2.745  1.00  0.00    -0.066 N 
HETATM   12  H   UNL     1      39.549 -13.777  -3.037  1.00  0.00     0.280 HD
BRANCH  11  13
HETATM   13  C   UNL     1      40.466 -15.645  -3.023  1.00  0.00     0.231 C 
HETATM   14  C   UNL     1      39.275 -16.052  -3.870  1.00  0.00     0.034 C 
ENDBRANCH  11  13
BRANCH  11  15
HETATM   15  C   UNL     1      41.546 -13.439  -3.553  1.00  0.00     0.231 C 
HETATM   16  C   UNL     1      41.854 -12.069  -2.971  1.00  0.00     0.034 C 
ENDBRANCH  11  15
ENDBRANCH  10  11
ENDBRANCH   6  10
BRANCH   7  17
HETATM   17  C   UNL     1      38.188 -12.041  -2.180  1.00  0.00     0.225 A 
HETATM   18  N   UNL     1      37.840 -12.570  -3.357  1.00  0.00    -0.081 NA
HETATM   19  O   UNL     1      37.921 -11.487  -4.240  1.00  0.00    -0.103 OA
HETATM   20  N   UNL     1      38.343 -10.339  -3.588  1.00  0.00    -0.083 NA
HETATM   21  C   UNL     1      38.512 -10.681  -2.312  1.00  0.00     0.201 A 
BRANCH  21  22
HETATM   22  N   UNL     1      38.918  -9.844  -1.345  1.00  0.00    -0.379 N 
HETATM   23  H   UNL     1      38.290  -9.597  -0.584  1.00  0.00     0.158 HD
HETATM   24  H   UNL     1      39.760  -9.274  -1.402  1.00  0.00     0.158 HD
ENDBRANCH  21  22
ENDBRANCH   7  17
ENDBRANCH   1   5
BRANCH   2  25
HETATM   25  N   UNL     1      40.529 -16.909   2.251  1.00  0.00    -0.184 NA
HETATM   26  C   UNL     1      41.714 -17.266   1.870  1.00  0.00     0.150 C 
BRANCH  26  27
HETATM   27  C   UNL     1      42.567 -18.102   2.743  1.00  0.00    -0.016 A 
HETATM   28  C   UNL     1      42.906 -17.661   4.026  1.00  0.00     0.023 A 
HETATM   29  C   UNL     1      43.721 -18.419   4.888  1.00  0.00    -0.016 A 
HETATM   30  C   UNL     1      44.194 -19.654   4.368  1.00  0.00     0.079 A 
HETATM   31  C   UNL     1      43.870 -20.131   3.062  1.00  0.00    -0.016 A 
HETATM   32  C   UNL     1      43.037 -19.323   2.269  1.00  0.00     0.023 A 
BRANCH  29  33
HETATM   33  C   UNL     1      44.037 -17.872   6.305  1.00  0.00    -0.021 C 
HETATM   34  C   UNL     1      43.440 -18.730   7.460  1.00  0.00     0.019 C 
HETATM   35  C   UNL     1      45.560 -17.861   6.566  1.00  0.00     0.019 C 
HETATM   36  C   UNL     1      43.426 -16.464   6.494  1.00  0.00     0.019 C 
ENDBRANCH  29  33
BRANCH  30  37
HETATM   37  O   UNL     1      45.003 -20.478   5.102  1.00  0.00    -0.360 OA
HETATM   38  H   UNL     1      44.511 -20.937   5.791  1.00  0.00     0.217 HD
ENDBRANCH  30  37
BRANCH  31  39
HETATM   39  C   UNL     1      44.419 -21.475   2.509  1.00  0.00    -0.021 C 
HETATM   40  C   UNL     1      43.552 -21.984   1.336  1.00  0.00     0.019 C 
HETATM   41  C   UNL     1      45.866 -21.375   1.955  1.00  0.00     0.019 C 
HETATM   42  C   UNL     1      44.471 -22.538   3.631  1.00  0.00     0.019 C 
ENDBRANCH  31  39
ENDBRANCH  26  27
ENDBRANCH   2  25
TORSDOF 12
ENDMDL
MODEL 10
REMARK VINA RESULT:      -7.3      6.631     10.092
REMARK  12 active torsions:
REMARK  status: ('A' for Active; 'I' for Inactive)
REMARK    1  A    between atoms: C_2  and  N_3 
REMARK    2  A    between atoms: N_3  and  C_5 
REMARK    3  A    between atoms: N_3  and  C_37 
REMARK    4  A    between atoms: C_5  and  C_6 
REMARK    5  A    between atoms: N_7  and  C_8 
REMARK    6  A    between atoms: C_12  and  N_13 
REMARK    7  A    between atoms: C_16  and  C_17 
REMARK       I    between atoms: C_17  and  N_18 
REMARK    8  A    between atoms: N_18  and  N_19 
REMARK    9  A    between atoms: C_20  and  C_21 
REMARK   10  A    between atoms: C_23  and  C_24 
REMARK   11  A    between atoms: C_28  and  O_29 
REMARK   12  A    between atoms: C_30  and  C_31 
ROOT
HETATM    1  C   UNL     1      39.627 -15.044   1.684  1.00  0.00     0.293 C 
HETATM    2  N   UNL     1      40.082 -16.243   1.171  1.00  0.00    -0.242 N 
HETATM    3  O   UNL     1      39.727 -14.680   2.854  1.00  0.00    -0.264 OA
HETATM    4  H   UNL     1      39.965 -16.470   0.187  1.00  0.00     0.192 HD
ENDROOT
BRANCH   1   5
HETATM    5  C   UNL     1      38.967 -14.183   0.713  1.00  0.00     0.170 A 
HETATM    6  C   UNL     1      39.576 -13.512  -0.338  1.00  0.00     0.096 A 
HETATM    7  N   UNL     1      38.554 -12.752  -0.900  1.00  0.00    -0.215 N 
HETATM    8  N   UNL     1      37.385 -13.071  -0.281  1.00  0.00     0.012 NA
HETATM    9  N   UNL     1      37.632 -13.910   0.712  1.00  0.00    -0.152 NA
BRANCH   6  10
HETATM   10  C   UNL     1      40.961 -13.624  -0.859  1.00  0.00     0.296 C 
BRANCH  10  11
HETATM   11  N   UNL     1      41.118 -13.646  -2.368  1.00  0.00    -0.066 N 
HETATM   12  H   UNL     1      40.289 -13.168  -2.754  1.00  0.00     0.280 HD
BRANCH  11  13
HETATM   13  C   UNL     1      41.106 -15.076  -2.896  1.00  0.00     0.231 C 
HETATM   14  C   UNL     1      39.789 -15.407  -3.574  1.00  0.00     0.034 C 
ENDBRANCH  11  13
BRANCH  11  15
HETATM   15  C   UNL     1      42.361 -12.901  -2.835  1.00  0.00     0.231 C 
HETATM   16  C   UNL     1      42.021 -11.912  -3.939  1.00  0.00     0.034 C 
ENDBRANCH  11  15
ENDBRANCH  10  11
ENDBRANCH   6  10
BRANCH   7  17
HETATM   17  C   UNL     1      38.644 -11.757  -1.901  1.00  0.00     0.225 A 
HETATM   18  N   UNL     1      38.389 -12.072  -3.175  1.00  0.00    -0.081 NA
HETATM   19  O   UNL     1      38.597 -10.868  -3.857  1.00  0.00    -0.103 OA
HETATM   20  N   UNL     1      39.001  -9.864  -2.992  1.00  0.00    -0.083 NA
HETATM   21  C   UNL     1      39.033 -10.413  -1.779  1.00  0.00     0.201 A 
BRANCH  21  22
HETATM   22  N   UNL     1      39.377  -9.764  -0.656  1.00  0.00    -0.379 N 
HETATM   23  H   UNL     1      39.069  -8.806  -0.503  1.00  0.00     0.158 HD
HETATM   24  H   UNL     1      40.088 -10.091  -0.005  1.00  0.00     0.158 HD
ENDBRANCH  21  22
ENDBRANCH   7  17
ENDBRANCH   1   5
BRANCH   2  25
HETATM   25  N   UNL     1      40.704 -17.114   2.009  1.00  0.00    -0.184 NA
HETATM   26  C   UNL     1      41.997 -17.159   1.954  1.00  0.00     0.150 C 
BRANCH  26  27
HETATM   27  C   UNL     1      42.759 -18.072   2.834  1.00  0.00    -0.016 A 
HETATM   28  C   UNL     1      43.199 -19.309   2.351  1.00  0.00     0.023 A 
HETATM   29  C   UNL     1      43.921 -20.212   3.155  1.00  0.00    -0.016 A 
HETATM   30  C   UNL     1      44.160 -19.799   4.493  1.00  0.00     0.079 A 
HETATM   31  C   UNL     1      43.721 -18.546   5.017  1.00  0.00    -0.016 A 
HETATM   32  C   UNL     1      43.021 -17.692   4.146  1.00  0.00     0.023 A 
BRANCH  29  33
HETATM   33  C   UNL     1      44.392 -21.558   2.542  1.00  0.00    -0.021 C 
HETATM   34  C   UNL     1      45.810 -21.495   1.900  1.00  0.00     0.019 C 
HETATM   35  C   UNL     1      44.496 -22.652   3.628  1.00  0.00     0.019 C 
HETATM   36  C   UNL     1      43.451 -21.994   1.394  1.00  0.00     0.019 C 
ENDBRANCH  29  33
BRANCH  30  37
HETATM   37  O   UNL     1      44.840 -20.591   5.376  1.00  0.00    -0.360 OA
HETATM   38  H   UNL     1      45.644 -20.949   4.987  1.00  0.00     0.217 HD
ENDBRANCH  30  37
BRANCH  31  39
HETATM   39  C   UNL     1      43.977 -18.127   6.491  1.00  0.00    -0.021 C 
HETATM   40  C   UNL     1      43.559 -19.253   7.463  1.00  0.00     0.019 C 
HETATM   41  C   UNL     1      45.468 -17.829   6.803  1.00  0.00     0.019 C 
HETATM   42  C   UNL     1      43.209 -16.827   6.823  1.00  0.00     0.019 C 
ENDBRANCH  31  39
ENDBRANCH  26  27
ENDBRANCH   2  25
TORSDOF 12
ENDMDL
