MODEL 1
REMARK VINA RESULT:     -10.3      0.000      0.000
REMARK  6 active torsions:
REMARK  status: ('A' for Active; 'I' for Inactive)
REMARK    1  A    between atoms: C_2  and  N_3 
REMARK    2  A    between atoms: C_2  and  C_32 
REMARK       I    between atoms: N_3  and  C_4 
REMARK    3  A    between atoms: C_4  and  C_5 
REMARK    4  A    between atoms: C_6  and  N_7 
REMARK       I    between atoms: N_7  and  C_8 
REMARK    5  A    between atoms: C_8  and  C_9 
REMARK    6  A    between atoms: C_9  and  N_10 
ROOT
HETATM    1  N   UNL     1      41.781 -13.979   4.271  1.00  0.00    -0.325 N 
HETATM    2  C   UNL     1      42.068 -13.272   3.121  1.00  0.00     0.240 C 
HETATM    3  O   UNL     1      43.154 -13.293   2.540  1.00  0.00    -0.271 OA
HETATM    4  H   UNL     1      40.800 -14.163   4.490  1.00  0.00     0.169 HD
ENDROOT
BRANCH   1   5
HETATM    5  C   UNL     1      42.722 -14.520   5.185  1.00  0.00     0.050 A 
HETATM    6  C   UNL     1      43.045 -15.892   5.142  1.00  0.00     0.058 A 
HETATM    7  C   UNL     1      43.903 -16.448   6.109  1.00  0.00     0.019 A 
HETATM    8  C   UNL     1      44.473 -15.644   7.093  1.00  0.00     0.001 A 
HETATM    9  C   UNL     1      44.182 -14.286   7.124  1.00  0.00     0.002 A 
HETATM   10  C   UNL     1      43.310 -13.731   6.183  1.00  0.00     0.030 A 
BRANCH   6  11
HETATM   11  C   UNL     1      42.499 -16.768   4.066  1.00  0.00     0.254 C 
HETATM   12  N   UNL     1      43.433 -17.281   3.194  1.00  0.00    -0.349 N 
HETATM   13  H   UNL     1      44.405 -17.026   3.293  1.00  0.00     0.163 HD
HETATM   14  O   UNL     1      41.290 -16.959   3.980  1.00  0.00    -0.268 OA
BRANCH  12  15
HETATM   15  C   UNL     1      43.124 -18.286   2.190  1.00  0.00     0.114 C 
HETATM   16  C   UNL     1      43.605 -17.819   0.815  1.00  0.00     0.037 C 
BRANCH  15  17
HETATM   17  C   UNL     1      43.722 -19.607   2.645  1.00  0.00    -0.036 A 
HETATM   18  C   UNL     1      43.594 -20.733   1.813  1.00  0.00     0.009 A 
HETATM   19  C   UNL     1      44.081 -21.979   2.211  1.00  0.00     0.001 A 
HETATM   20  C   UNL     1      44.693 -22.123   3.453  1.00  0.00     0.000 A 
HETATM   21  C   UNL     1      44.816 -21.023   4.298  1.00  0.00     0.001 A 
HETATM   22  C   UNL     1      44.330 -19.774   3.901  1.00  0.00     0.009 A 
ENDBRANCH  15  17
ENDBRANCH  12  15
ENDBRANCH   6  11
ENDBRANCH   1   5
BRANCH   2  23
HETATM   23  C   UNL     1      40.875 -12.572   2.472  1.00  0.00     0.240 C 
BRANCH  23  24
HETATM   24  N   UNL     1      40.539 -13.049   1.147  1.00  0.00    -0.259 N 
HETATM   25  C   UNL     1      39.966 -14.262   0.927  1.00  0.00     0.326 C 
HETATM   26  O   UNL     1      39.463 -15.007   1.749  1.00  0.00    -0.247 OA
HETATM   27  N   UNL     1      40.116 -14.584  -0.401  1.00  0.00    -0.324 N 
HETATM   28  C   UNL     1      40.759 -13.529  -1.167  1.00  0.00     0.120 C 
HETATM   29  H   UNL     1      39.730 -15.441  -0.774  1.00  0.00     0.165 HD
HETATM   30  C   UNL     1      39.710 -12.797  -2.013  1.00  0.00     0.080 C 
HETATM   31  C   UNL     1      41.923 -14.061  -1.995  1.00  0.00     0.046 C 
HETATM   32  C   UNL     1      41.221 -12.661   0.022  1.00  0.00     0.257 C 
HETATM   33  C   UNL     1      40.270 -11.975  -3.145  1.00  0.00    -0.049 A 
HETATM   34  C   UNL     1      41.612 -12.077  -3.548  1.00  0.00    -0.052 A 
HETATM   35  C   UNL     1      39.404 -11.116  -3.841  1.00  0.00     0.007 A 
HETATM   36  C   UNL     1      42.591 -12.968  -2.828  1.00  0.00     0.042 C 
HETATM   37  C   UNL     1      42.070 -11.282  -4.610  1.00  0.00     0.007 A 
HETATM   38  C   UNL     1      41.202 -10.425  -5.286  1.00  0.00     0.001 A 
HETATM   39  C   UNL     1      39.867 -10.347  -4.906  1.00  0.00     0.001 A 
HETATM   40  O   UNL     1      42.047 -11.761  -0.022  1.00  0.00    -0.270 OA
ENDBRANCH  23  24
ENDBRANCH   2  23
TORSDOF 6
ENDMDL
MODEL 2
REMARK VINA RESULT:     -10.3      2.243      8.160
REMARK  6 active torsions:
REMARK  status: ('A' for Active; 'I' for Inactive)
REMARK    1  A    between atoms: C_2  and  N_3 
REMARK    2  A    between atoms: C_2  and  C_32 
REMARK       I    between atoms: N_3  and  C_4 
REMARK    3  A    between atoms: C_4  and  C_5 
REMARK    4  A    between atoms: C_6  and  N_7 
REMARK       I    between atoms: N_7  and  C_8 
REMARK    5  A    between atoms: C_8  and  C_9 
REMARK    6  A    between atoms: C_9  and  N_10 
ROOT
HETATM    1  N   UNL     1      40.470 -13.027   3.719  1.00  0.00    -0.325 N 
HETATM    2  C   UNL     1      39.954 -14.306   3.667  1.00  0.00     0.240 C 
HETATM    3  O   UNL     1      39.236 -14.733   2.761  1.00  0.00    -0.271 OA
HETATM    4  H   UNL     1      41.293 -12.865   4.303  1.00  0.00     0.169 HD
ENDROOT
BRANCH   1   5
HETATM    5  C   UNL     1      39.994 -11.895   3.008  1.00  0.00     0.050 A 
HETATM    6  C   UNL     1      40.379 -11.685   1.669  1.00  0.00     0.058 A 
HETATM    7  C   UNL     1      39.986 -10.514   0.994  1.00  0.00     0.019 A 
HETATM    8  C   UNL     1      39.181  -9.570   1.628  1.00  0.00     0.001 A 
HETATM    9  C   UNL     1      38.774  -9.785   2.938  1.00  0.00     0.002 A 
HETATM   10  C   UNL     1      39.181 -10.933   3.624  1.00  0.00     0.030 A 
BRANCH   6  11
HETATM   11  C   UNL     1      41.191 -12.704   0.942  1.00  0.00     0.254 C 
HETATM   12  N   UNL     1      40.473 -13.583   0.163  1.00  0.00    -0.349 N 
HETATM   13  H   UNL     1      39.464 -13.527   0.143  1.00  0.00     0.163 HD
HETATM   14  O   UNL     1      42.408 -12.742   1.089  1.00  0.00    -0.268 OA
BRANCH  12  15
HETATM   15  C   UNL     1      41.088 -14.531  -0.750  1.00  0.00     0.114 C 
HETATM   16  C   UNL     1      41.489 -15.801   0.003  1.00  0.00     0.037 C 
BRANCH  15  17
HETATM   17  C   UNL     1      40.128 -14.767  -1.905  1.00  0.00    -0.036 A 
HETATM   18  C   UNL     1      38.903 -14.079  -1.921  1.00  0.00     0.009 A 
HETATM   19  C   UNL     1      37.967 -14.301  -2.932  1.00  0.00     0.001 A 
HETATM   20  C   UNL     1      38.236 -15.224  -3.939  1.00  0.00     0.000 A 
HETATM   21  C   UNL     1      39.439 -15.927  -3.933  1.00  0.00     0.001 A 
HETATM   22  C   UNL     1      40.378 -15.704  -2.921  1.00  0.00     0.009 A 
ENDBRANCH  15  17
ENDBRANCH  12  15
ENDBRANCH   6  11
ENDBRANCH   1   5
BRANCH   2  23
HETATM   23  C   UNL     1      40.478 -15.265   4.733  1.00  0.00     0.240 C 
BRANCH  23  24
HETATM   24  N   UNL     1      41.806 -15.786   4.481  1.00  0.00    -0.259 N 
HETATM   25  C   UNL     1      42.923 -15.016   4.558  1.00  0.00     0.326 C 
HETATM   26  O   UNL     1      43.026 -13.899   5.036  1.00  0.00    -0.247 OA
HETATM   27  N   UNL     1      43.949 -15.666   3.916  1.00  0.00    -0.324 N 
HETATM   28  C   UNL     1      43.564 -16.978   3.424  1.00  0.00     0.120 C 
HETATM   29  H   UNL     1      44.879 -15.267   3.885  1.00  0.00     0.165 HD
HETATM   30  C   UNL     1      44.159 -18.061   4.332  1.00  0.00     0.080 C 
HETATM   31  C   UNL     1      43.936 -17.164   1.957  1.00  0.00     0.046 C 
HETATM   32  C   UNL     1      42.043 -16.842   3.640  1.00  0.00     0.257 C 
HETATM   33  C   UNL     1      44.196 -19.443   3.731  1.00  0.00    -0.049 A 
HETATM   34  C   UNL     1      43.947 -19.670   2.367  1.00  0.00    -0.052 A 
HETATM   35  C   UNL     1      44.534 -20.524   4.560  1.00  0.00     0.007 A 
HETATM   36  C   UNL     1      43.563 -18.551   1.434  1.00  0.00     0.042 C 
HETATM   37  C   UNL     1      43.997 -20.981   1.871  1.00  0.00     0.007 A 
HETATM   38  C   UNL     1      44.324 -22.049   2.707  1.00  0.00     0.001 A 
HETATM   39  C   UNL     1      44.599 -21.820   4.051  1.00  0.00     0.001 A 
HETATM   40  O   UNL     1      41.180 -17.563   3.158  1.00  0.00    -0.270 OA
ENDBRANCH  23  24
ENDBRANCH   2  23
TORSDOF 6
ENDMDL
MODEL 3
REMARK VINA RESULT:     -10.0      2.214      3.075
REMARK  6 active torsions:
REMARK  status: ('A' for Active; 'I' for Inactive)
REMARK    1  A    between atoms: C_2  and  N_3 
REMARK    2  A    between atoms: C_2  and  C_32 
REMARK       I    between atoms: N_3  and  C_4 
REMARK    3  A    between atoms: C_4  and  C_5 
REMARK    4  A    between atoms: C_6  and  N_7 
REMARK       I    between atoms: N_7  and  C_8 
REMARK    5  A    between atoms: C_8  and  C_9 
REMARK    6  A    between atoms: C_9  and  N_10 
ROOT
HETATM    1  N   UNL     1      42.495 -15.902   3.836  1.00  0.00    -0.325 N 
HETATM    2  C   UNL     1      41.133 -15.840   3.624  1.00  0.00     0.240 C 
HETATM    3  O   UNL     1      40.370 -15.068   4.207  1.00  0.00    -0.271 OA
HETATM    4  H   UNL     1      43.077 -16.315   3.105  1.00  0.00     0.169 HD
ENDROOT
BRANCH   1   5
HETATM    5  C   UNL     1      43.195 -15.414   4.970  1.00  0.00     0.050 A 
HETATM    6  C   UNL     1      43.632 -16.305   5.971  1.00  0.00     0.058 A 
HETATM    7  C   UNL     1      44.241 -15.813   7.141  1.00  0.00     0.019 A 
HETATM    8  C   UNL     1      44.454 -14.446   7.305  1.00  0.00     0.001 A 
HETATM    9  C   UNL     1      44.052 -13.565   6.309  1.00  0.00     0.002 A 
HETATM   10  C   UNL     1      43.423 -14.043   5.156  1.00  0.00     0.030 A 
BRANCH   6  11
HETATM   11  C   UNL     1      43.474 -17.778   5.800  1.00  0.00     0.254 C 
HETATM   12  N   UNL     1      44.643 -18.477   5.600  1.00  0.00    -0.349 N 
HETATM   13  H   UNL     1      45.521 -17.981   5.544  1.00  0.00     0.163 HD
HETATM   14  O   UNL     1      42.355 -18.283   5.806  1.00  0.00    -0.268 OA
BRANCH  12  15
HETATM   15  C   UNL     1      44.715 -19.928   5.584  1.00  0.00     0.114 C 
HETATM   16  C   UNL     1      43.810 -20.511   6.671  1.00  0.00     0.037 C 
BRANCH  15  17
HETATM   17  C   UNL     1      44.388 -20.403   4.178  1.00  0.00    -0.036 A 
HETATM   18  C   UNL     1      44.603 -21.752   3.849  1.00  0.00     0.009 A 
HETATM   19  C   UNL     1      44.366 -22.223   2.557  1.00  0.00     0.001 A 
HETATM   20  C   UNL     1      43.922 -21.349   1.567  1.00  0.00     0.000 A 
HETATM   21  C   UNL     1      43.718 -20.005   1.870  1.00  0.00     0.001 A 
HETATM   22  C   UNL     1      43.954 -19.532   3.165  1.00  0.00     0.009 A 
ENDBRANCH  15  17
ENDBRANCH  12  15
ENDBRANCH   6  11
ENDBRANCH   1   5
BRANCH   2  23
HETATM   23  C   UNL     1      40.615 -16.681   2.459  1.00  0.00     0.240 C 
BRANCH  23  24
HETATM   24  N   UNL     1      40.858 -16.116   1.148  1.00  0.00    -0.259 N 
HETATM   25  C   UNL     1      42.081 -16.136   0.555  1.00  0.00     0.326 C 
HETATM   26  O   UNL     1      43.059 -16.780   0.890  1.00  0.00    -0.247 OA
HETATM   27  N   UNL     1      42.086 -15.221  -0.470  1.00  0.00    -0.324 N 
HETATM   28  C   UNL     1      40.797 -14.576  -0.656  1.00  0.00     0.120 C 
HETATM   29  H   UNL     1      42.902 -15.103  -1.057  1.00  0.00     0.165 HD
HETATM   30  C   UNL     1      40.105 -15.161  -1.894  1.00  0.00     0.080 C 
HETATM   31  C   UNL     1      40.926 -13.058  -0.711  1.00  0.00     0.046 C 
HETATM   32  C   UNL     1      40.128 -15.071   0.643  1.00  0.00     0.257 C 
HETATM   33  C   UNL     1      38.978 -14.325  -2.444  1.00  0.00    -0.049 A 
HETATM   34  C   UNL     1      38.751 -13.006  -2.018  1.00  0.00    -0.052 A 
HETATM   35  C   UNL     1      38.163 -14.877  -3.446  1.00  0.00     0.007 A 
HETATM   36  C   UNL     1      39.581 -12.368  -0.935  1.00  0.00     0.042 C 
HETATM   37  C   UNL     1      37.683 -12.282  -2.571  1.00  0.00     0.007 A 
HETATM   38  C   UNL     1      36.874 -12.846  -3.558  1.00  0.00     0.001 A 
HETATM   39  C   UNL     1      37.118 -14.142  -4.000  1.00  0.00     0.001 A 
HETATM   40  O   UNL     1      39.104 -14.624   1.141  1.00  0.00    -0.270 OA
ENDBRANCH  23  24
ENDBRANCH   2  23
TORSDOF 6
ENDMDL
MODEL 4
REMARK VINA RESULT:     -10.0      1.595      2.797
REMARK  6 active torsions:
REMARK  status: ('A' for Active; 'I' for Inactive)
REMARK    1  A    between atoms: C_2  and  N_3 
REMARK    2  A    between atoms: C_2  and  C_32 
REMARK       I    between atoms: N_3  and  C_4 
REMARK    3  A    between atoms: C_4  and  C_5 
REMARK    4  A    between atoms: C_6  and  N_7 
REMARK       I    between atoms: N_7  and  C_8 
REMARK    5  A    between atoms: C_8  and  C_9 
REMARK    6  A    between atoms: C_9  and  N_10 
ROOT
HETATM    1  N   UNL     1      41.760 -13.897   4.451  1.00  0.00    -0.325 N 
HETATM    2  C   UNL     1      41.984 -13.153   3.311  1.00  0.00     0.240 C 
HETATM    3  O   UNL     1      43.032 -13.164   2.664  1.00  0.00    -0.271 OA
HETATM    4  H   UNL     1      40.793 -14.081   4.723  1.00  0.00     0.169 HD
ENDROOT
BRANCH   1   5
HETATM    5  C   UNL     1      42.749 -14.475   5.288  1.00  0.00     0.050 A 
HETATM    6  C   UNL     1      43.081 -15.839   5.156  1.00  0.00     0.058 A 
HETATM    7  C   UNL     1      43.990 -16.437   6.049  1.00  0.00     0.019 A 
HETATM    8  C   UNL     1      44.602 -15.681   7.046  1.00  0.00     0.001 A 
HETATM    9  C   UNL     1      44.302 -14.329   7.164  1.00  0.00     0.002 A 
HETATM   10  C   UNL     1      43.379 -13.734   6.298  1.00  0.00     0.030 A 
BRANCH   6  11
HETATM   11  C   UNL     1      42.490 -16.663   4.062  1.00  0.00     0.254 C 
HETATM   12  N   UNL     1      43.397 -17.223   3.191  1.00  0.00    -0.349 N 
HETATM   13  H   UNL     1      44.383 -17.033   3.302  1.00  0.00     0.163 HD
HETATM   14  O   UNL     1      41.272 -16.774   3.963  1.00  0.00    -0.268 OA
BRANCH  12  15
HETATM   15  C   UNL     1      43.034 -18.192   2.170  1.00  0.00     0.114 C 
HETATM   16  C   UNL     1      43.527 -17.721   0.801  1.00  0.00     0.037 C 
BRANCH  15  17
HETATM   17  C   UNL     1      43.569 -19.549   2.595  1.00  0.00    -0.036 A 
HETATM   18  C   UNL     1      44.258 -19.657   3.815  1.00  0.00     0.009 A 
HETATM   19  C   UNL     1      44.812 -20.871   4.223  1.00  0.00     0.001 A 
HETATM   20  C   UNL     1      44.699 -21.996   3.410  1.00  0.00     0.000 A 
HETATM   21  C   UNL     1      44.033 -21.906   2.190  1.00  0.00     0.001 A 
HETATM   22  C   UNL     1      43.476 -20.690   1.781  1.00  0.00     0.009 A 
ENDBRANCH  15  17
ENDBRANCH  12  15
ENDBRANCH   6  11
ENDBRANCH   1   5
BRANCH   2  23
HETATM   23  C   UNL     1      40.761 -12.423   2.759  1.00  0.00     0.240 C 
BRANCH  23  24
HETATM   24  N   UNL     1      40.749 -12.261   1.320  1.00  0.00    -0.259 N 
HETATM   25  C   UNL     1      41.301 -11.186   0.697  1.00  0.00     0.326 C 
HETATM   26  O   UNL     1      42.045 -10.349   1.178  1.00  0.00    -0.247 OA
HETATM   27  N   UNL     1      40.814 -11.124  -0.586  1.00  0.00    -0.324 N 
HETATM   28  C   UNL     1      39.935 -12.237  -0.909  1.00  0.00     0.120 C 
HETATM   29  H   UNL     1      41.127 -10.407  -1.227  1.00  0.00     0.165 HD
HETATM   30  C   UNL     1      40.678 -13.233  -1.809  1.00  0.00     0.080 C 
HETATM   31  C   UNL     1      38.619 -11.761  -1.512  1.00  0.00     0.046 C 
HETATM   32  C   UNL     1      39.770 -12.792   0.521  1.00  0.00     0.257 C 
HETATM   33  C   UNL     1      39.792 -14.201  -2.549  1.00  0.00    -0.049 A 
HETATM   34  C   UNL     1      38.398 -14.039  -2.611  1.00  0.00    -0.052 A 
HETATM   35  C   UNL     1      40.393 -15.270  -3.233  1.00  0.00     0.007 A 
HETATM   36  C   UNL     1      37.696 -12.921  -1.883  1.00  0.00     0.042 C 
HETATM   37  C   UNL     1      37.630 -14.977  -3.318  1.00  0.00     0.007 A 
HETATM   38  C   UNL     1      38.239 -16.041  -3.983  1.00  0.00     0.001 A 
HETATM   39  C   UNL     1      39.622 -16.184  -3.946  1.00  0.00     0.001 A 
HETATM   40  O   UNL     1      38.918 -13.589   0.889  1.00  0.00    -0.270 OA
ENDBRANCH  23  24
ENDBRANCH   2  23
TORSDOF 6
ENDMDL
MODEL 5
REMARK VINA RESULT:     -10.0      2.085      2.935
REMARK  6 active torsions:
REMARK  status: ('A' for Active; 'I' for Inactive)
REMARK    1  A    between atoms: C_2  and  N_3 
REMARK    2  A    between atoms: C_2  and  C_32 
REMARK       I    between atoms: N_3  and  C_4 
REMARK    3  A    between atoms: C_4  and  C_5 
REMARK    4  A    between atoms: C_6  and  N_7 
REMARK       I    between atoms: N_7  and  C_8 
REMARK    5  A    between atoms: C_8  and  C_9 
REMARK    6  A    between atoms: C_9  and  N_10 
ROOT
HETATM    1  N   UNL     1      40.028 -13.972   1.546  1.00  0.00    -0.325 N 
HETATM    2  C   UNL     1      38.840 -13.806   0.863  1.00  0.00     0.240 C 
HETATM    3  O   UNL     1      37.803 -13.370   1.364  1.00  0.00    -0.271 OA
HETATM    4  H   UNL     1      40.892 -14.017   1.002  1.00  0.00     0.169 HD
ENDROOT
BRANCH   1   5
HETATM    5  C   UNL     1      40.188 -14.054   2.953  1.00  0.00     0.050 A 
HETATM    6  C   UNL     1      40.568 -15.272   3.553  1.00  0.00     0.058 A 
HETATM    7  C   UNL     1      40.634 -15.382   4.954  1.00  0.00     0.019 A 
HETATM    8  C   UNL     1      40.362 -14.280   5.762  1.00  0.00     0.001 A 
HETATM    9  C   UNL     1      40.015 -13.068   5.177  1.00  0.00     0.002 A 
HETATM   10  C   UNL     1      39.923 -12.959   3.786  1.00  0.00     0.030 A 
BRANCH   6  11
HETATM   11  C   UNL     1      40.924 -16.454   2.715  1.00  0.00     0.254 C 
HETATM   12  N   UNL     1      42.236 -16.861   2.798  1.00  0.00    -0.349 N 
HETATM   13  H   UNL     1      42.887 -16.344   3.370  1.00  0.00     0.163 HD
HETATM   14  O   UNL     1      40.080 -16.972   1.990  1.00  0.00    -0.268 OA
BRANCH  12  15
HETATM   15  C   UNL     1      42.734 -18.088   2.197  1.00  0.00     0.114 C 
HETATM   16  C   UNL     1      43.596 -17.762   0.976  1.00  0.00     0.037 C 
BRANCH  15  17
HETATM   17  C   UNL     1      43.452 -18.884   3.274  1.00  0.00    -0.036 A 
HETATM   18  C   UNL     1      44.211 -20.006   2.897  1.00  0.00     0.009 A 
HETATM   19  C   UNL     1      44.845 -20.799   3.854  1.00  0.00     0.001 A 
HETATM   20  C   UNL     1      44.721 -20.490   5.207  1.00  0.00     0.000 A 
HETATM   21  C   UNL     1      43.961 -19.391   5.601  1.00  0.00     0.001 A 
HETATM   22  C   UNL     1      43.326 -18.596   4.643  1.00  0.00     0.009 A 
ENDBRANCH  15  17
ENDBRANCH  12  15
ENDBRANCH   6  11
ENDBRANCH   1   5
BRANCH   2  23
HETATM   23  C   UNL     1      38.919 -14.026  -0.646  1.00  0.00     0.240 C 
BRANCH  23  24
HETATM   24  N   UNL     1      40.185 -13.662  -1.247  1.00  0.00    -0.259 N 
HETATM   25  C   UNL     1      41.289 -14.451  -1.169  1.00  0.00     0.326 C 
HETATM   26  O   UNL     1      41.348 -15.613  -0.809  1.00  0.00    -0.247 OA
HETATM   27  N   UNL     1      42.392 -13.695  -1.487  1.00  0.00    -0.324 N 
HETATM   28  C   UNL     1      42.051 -12.335  -1.871  1.00  0.00     0.120 C 
HETATM   29  H   UNL     1      43.315 -14.109  -1.514  1.00  0.00     0.165 HD
HETATM   30  C   UNL     1      42.174 -12.187  -3.393  1.00  0.00     0.080 C 
HETATM   31  C   UNL     1      42.877 -11.307  -1.107  1.00  0.00     0.046 C 
HETATM   32  C   UNL     1      40.573 -12.360  -1.431  1.00  0.00     0.257 C 
HETATM   33  C   UNL     1      42.257 -10.765  -3.886  1.00  0.00    -0.049 A 
HETATM   34  C   UNL     1      42.464  -9.684  -3.014  1.00  0.00    -0.052 A 
HETATM   35  C   UNL     1      42.168 -10.530  -5.268  1.00  0.00     0.007 A 
HETATM   36  C   UNL     1      42.550  -9.874  -1.522  1.00  0.00     0.042 C 
HETATM   37  C   UNL     1      42.532  -8.384  -3.539  1.00  0.00     0.007 A 
HETATM   38  C   UNL     1      42.431  -8.163  -4.912  1.00  0.00     0.001 A 
HETATM   39  C   UNL     1      42.255  -9.237  -5.778  1.00  0.00     0.001 A 
HETATM   40  O   UNL     1      39.851 -11.384  -1.282  1.00  0.00    -0.270 OA
ENDBRANCH  23  24
ENDBRANCH   2  23
TORSDOF 6
ENDMDL
MODEL 6
REMARK VINA RESULT:      -9.8      1.691      2.469
REMARK  6 active torsions:
REMARK  status: ('A' for Active; 'I' for Inactive)
REMARK    1  A    between atoms: C_2  and  N_3 
REMARK    2  A    between atoms: C_2  and  C_32 
REMARK       I    between atoms: N_3  and  C_4 
REMARK    3  A    between atoms: C_4  and  C_5 
REMARK    4  A    between atoms: C_6  and  N_7 
REMARK       I    between atoms: N_7  and  C_8 
REMARK    5  A    between atoms: C_8  and  C_9 
REMARK    6  A    between atoms: C_9  and  N_10 
ROOT
HETATM    1  N   UNL     1      42.133 -16.060   3.801  1.00  0.00    -0.325 N 
HETATM    2  C   UNL     1      42.496 -16.221   2.480  1.00  0.00     0.240 C 
HETATM    3  O   UNL     1      43.658 -16.233   2.071  1.00  0.00    -0.271 OA
HETATM    4  H   UNL     1      41.208 -16.384   4.089  1.00  0.00     0.169 HD
ENDROOT
BRANCH   1   5
HETATM    5  C   UNL     1      42.935 -15.511   4.835  1.00  0.00     0.050 A 
HETATM    6  C   UNL     1      43.525 -16.355   5.799  1.00  0.00     0.058 A 
HETATM    7  C   UNL     1      44.240 -15.806   6.879  1.00  0.00     0.019 A 
HETATM    8  C   UNL     1      44.406 -14.427   6.988  1.00  0.00     0.001 A 
HETATM    9  C   UNL     1      43.852 -13.591   6.026  1.00  0.00     0.002 A 
HETATM   10  C   UNL     1      43.119 -14.127   4.964  1.00  0.00     0.030 A 
BRANCH   6  11
HETATM   11  C   UNL     1      43.417 -17.838   5.679  1.00  0.00     0.254 C 
HETATM   12  N   UNL     1      44.607 -18.502   5.484  1.00  0.00    -0.349 N 
HETATM   13  H   UNL     1      45.466 -17.977   5.398  1.00  0.00     0.163 HD
HETATM   14  O   UNL     1      42.317 -18.381   5.720  1.00  0.00    -0.268 OA
BRANCH  12  15
HETATM   15  C   UNL     1      44.731 -19.949   5.516  1.00  0.00     0.114 C 
HETATM   16  C   UNL     1      43.855 -20.527   6.629  1.00  0.00     0.037 C 
BRANCH  15  17
HETATM   17  C   UNL     1      44.412 -20.481   4.129  1.00  0.00    -0.036 A 
HETATM   18  C   UNL     1      44.645 -21.840   3.852  1.00  0.00     0.009 A 
HETATM   19  C   UNL     1      44.416 -22.362   2.578  1.00  0.00     0.001 A 
HETATM   20  C   UNL     1      43.960 -21.533   1.556  1.00  0.00     0.000 A 
HETATM   21  C   UNL     1      43.737 -20.181   1.807  1.00  0.00     0.001 A 
HETATM   22  C   UNL     1      43.966 -19.656   3.083  1.00  0.00     0.009 A 
ENDBRANCH  15  17
ENDBRANCH  12  15
ENDBRANCH   6  11
ENDBRANCH   1   5
BRANCH   2  23
HETATM   23  C   UNL     1      41.354 -16.577   1.529  1.00  0.00     0.240 C 
BRANCH  23  24
HETATM   24  N   UNL     1      40.693 -15.441   0.922  1.00  0.00    -0.259 N 
HETATM   25  C   UNL     1      39.442 -15.044   1.278  1.00  0.00     0.326 C 
HETATM   26  O   UNL     1      38.797 -15.399   2.249  1.00  0.00    -0.247 OA
HETATM   27  N   UNL     1      38.951 -14.213   0.300  1.00  0.00    -0.324 N 
HETATM   28  C   UNL     1      39.916 -13.956  -0.757  1.00  0.00     0.120 C 
HETATM   29  H   UNL     1      38.039 -13.786   0.391  1.00  0.00     0.165 HD
HETATM   30  C   UNL     1      40.491 -12.544  -0.594  1.00  0.00     0.080 C 
HETATM   31  C   UNL     1      39.318 -14.197  -2.139  1.00  0.00     0.046 C 
HETATM   32  C   UNL     1      40.950 -15.030  -0.360  1.00  0.00     0.257 C 
HETATM   33  C   UNL     1      41.173 -11.992  -1.820  1.00  0.00    -0.049 A 
HETATM   34  C   UNL     1      41.064 -12.610  -3.076  1.00  0.00    -0.052 A 
HETATM   35  C   UNL     1      41.900 -10.797  -1.699  1.00  0.00     0.007 A 
HETATM   36  C   UNL     1      40.312 -13.903  -3.262  1.00  0.00     0.042 C 
HETATM   37  C   UNL     1      41.725 -12.045  -4.178  1.00  0.00     0.007 A 
HETATM   38  C   UNL     1      42.453 -10.863  -4.043  1.00  0.00     0.001 A 
HETATM   39  C   UNL     1      42.536 -10.235  -2.804  1.00  0.00     0.001 A 
HETATM   40  O   UNL     1      41.864 -15.442  -1.060  1.00  0.00    -0.270 OA
ENDBRANCH  23  24
ENDBRANCH   2  23
TORSDOF 6
ENDMDL
MODEL 7
REMARK VINA RESULT:      -9.7      1.902      8.153
REMARK  6 active torsions:
REMARK  status: ('A' for Active; 'I' for Inactive)
REMARK    1  A    between atoms: C_2  and  N_3 
REMARK    2  A    between atoms: C_2  and  C_32 
REMARK       I    between atoms: N_3  and  C_4 
REMARK    3  A    between atoms: C_4  and  C_5 
REMARK    4  A    between atoms: C_6  and  N_7 
REMARK       I    between atoms: N_7  and  C_8 
REMARK    5  A    between atoms: C_8  and  C_9 
REMARK    6  A    between atoms: C_9  and  N_10 
ROOT
HETATM    1  N   UNL     1      39.860 -13.561   4.271  1.00  0.00    -0.325 N 
HETATM    2  C   UNL     1      39.902 -13.930   5.600  1.00  0.00     0.240 C 
HETATM    3  O   UNL     1      39.494 -13.234   6.531  1.00  0.00    -0.271 OA
HETATM    4  H   UNL     1      39.906 -14.299   3.566  1.00  0.00     0.169 HD
ENDROOT
BRANCH   1   5
HETATM    5  C   UNL     1      39.723 -12.243   3.765  1.00  0.00     0.050 A 
HETATM    6  C   UNL     1      40.497 -11.822   2.664  1.00  0.00     0.058 A 
HETATM    7  C   UNL     1      40.433 -10.487   2.222  1.00  0.00     0.019 A 
HETATM    8  C   UNL     1      39.578  -9.578   2.842  1.00  0.00     0.001 A 
HETATM    9  C   UNL     1      38.791  -9.994   3.909  1.00  0.00     0.002 A 
HETATM   10  C   UNL     1      38.868 -11.311   4.371  1.00  0.00     0.030 A 
BRANCH   6  11
HETATM   11  C   UNL     1      41.377 -12.785   1.941  1.00  0.00     0.254 C 
HETATM   12  N   UNL     1      40.928 -13.176   0.700  1.00  0.00    -0.349 N 
HETATM   13  H   UNL     1      40.039 -12.838   0.358  1.00  0.00     0.163 HD
HETATM   14  O   UNL     1      42.402 -13.200   2.472  1.00  0.00    -0.268 OA
BRANCH  12  15
HETATM   15  C   UNL     1      41.721 -13.968  -0.226  1.00  0.00     0.114 C 
HETATM   16  C   UNL     1      41.026 -15.302  -0.505  1.00  0.00     0.037 C 
BRANCH  15  17
HETATM   17  C   UNL     1      41.979 -13.127  -1.465  1.00  0.00    -0.036 A 
HETATM   18  C   UNL     1      42.631 -11.890  -1.323  1.00  0.00     0.009 A 
HETATM   19  C   UNL     1      42.844 -11.059  -2.424  1.00  0.00     0.001 A 
HETATM   20  C   UNL     1      42.398 -11.446  -3.685  1.00  0.00     0.000 A 
HETATM   21  C   UNL     1      41.737 -12.662  -3.844  1.00  0.00     0.001 A 
HETATM   22  C   UNL     1      41.523 -13.495  -2.741  1.00  0.00     0.009 A 
ENDBRANCH  15  17
ENDBRANCH  12  15
ENDBRANCH   6  11
ENDBRANCH   1   5
BRANCH   2  23
HETATM   23  C   UNL     1      40.331 -15.372   5.864  1.00  0.00     0.240 C 
BRANCH  23  24
HETATM   24  N   UNL     1      41.619 -15.733   5.310  1.00  0.00    -0.259 N 
HETATM   25  C   UNL     1      42.669 -14.870   5.269  1.00  0.00     0.326 C 
HETATM   26  O   UNL     1      42.778 -13.804   5.849  1.00  0.00    -0.247 OA
HETATM   27  N   UNL     1      43.596 -15.349   4.375  1.00  0.00    -0.324 N 
HETATM   28  C   UNL     1      43.222 -16.636   3.811  1.00  0.00     0.120 C 
HETATM   29  H   UNL     1      44.468 -14.862   4.221  1.00  0.00     0.165 HD
HETATM   30  C   UNL     1      44.062 -17.743   4.458  1.00  0.00     0.080 C 
HETATM   31  C   UNL     1      43.313 -16.634   2.289  1.00  0.00     0.046 C 
HETATM   32  C   UNL     1      41.766 -16.670   4.320  1.00  0.00     0.257 C 
HETATM   33  C   UNL     1      44.085 -19.046   3.700  1.00  0.00    -0.049 A 
HETATM   34  C   UNL     1      43.593 -19.155   2.389  1.00  0.00    -0.052 A 
HETATM   35  C   UNL     1      44.659 -20.169   4.318  1.00  0.00     0.007 A 
HETATM   36  C   UNL     1      42.951 -17.989   1.683  1.00  0.00     0.042 C 
HETATM   37  C   UNL     1      43.644 -20.398   1.740  1.00  0.00     0.007 A 
HETATM   38  C   UNL     1      44.207 -21.509   2.368  1.00  0.00     0.001 A 
HETATM   39  C   UNL     1      44.721 -21.393   3.656  1.00  0.00     0.001 A 
HETATM   40  O   UNL     1      40.883 -17.418   3.924  1.00  0.00    -0.270 OA
ENDBRANCH  23  24
ENDBRANCH   2  23
TORSDOF 6
ENDMDL
MODEL 8
REMARK VINA RESULT:      -9.6      2.290      8.202
REMARK  6 active torsions:
REMARK  status: ('A' for Active; 'I' for Inactive)
REMARK    1  A    between atoms: C_2  and  N_3 
REMARK    2  A    between atoms: C_2  and  C_32 
REMARK       I    between atoms: N_3  and  C_4 
REMARK    3  A    between atoms: C_4  and  C_5 
REMARK    4  A    between atoms: C_6  and  N_7 
REMARK       I    between atoms: N_7  and  C_8 
REMARK    5  A    between atoms: C_8  and  C_9 
REMARK    6  A    between atoms: C_9  and  N_10 
ROOT
HETATM    1  N   UNL     1      41.475 -11.165   2.481  1.00  0.00    -0.325 N 
HETATM    2  C   UNL     1      40.908 -12.310   3.002  1.00  0.00     0.240 C 
HETATM    3  O   UNL     1      39.998 -12.945   2.467  1.00  0.00    -0.271 OA
HETATM    4  H   UNL     1      42.408 -10.902   2.802  1.00  0.00     0.169 HD
ENDROOT
BRANCH   1   5
HETATM    5  C   UNL     1      40.904 -10.312   1.501  1.00  0.00     0.050 A 
HETATM    6  C   UNL     1      41.044 -10.613   0.131  1.00  0.00     0.058 A 
HETATM    7  C   UNL     1      40.563  -9.719  -0.844  1.00  0.00     0.019 A 
HETATM    8  C   UNL     1      39.910  -8.547  -0.466  1.00  0.00     0.001 A 
HETATM    9  C   UNL     1      39.743  -8.259   0.883  1.00  0.00     0.002 A 
HETATM   10  C   UNL     1      40.241  -9.129   1.857  1.00  0.00     0.030 A 
BRANCH   6  11
HETATM   11  C   UNL     1      41.685 -11.887  -0.307  1.00  0.00     0.254 C 
HETATM   12  N   UNL     1      40.818 -12.930  -0.547  1.00  0.00    -0.349 N 
HETATM   13  H   UNL     1      39.828 -12.806  -0.390  1.00  0.00     0.163 HD
HETATM   14  O   UNL     1      42.906 -11.964  -0.395  1.00  0.00    -0.268 OA
BRANCH  12  15
HETATM   15  C   UNL     1      41.229 -14.191  -1.142  1.00  0.00     0.114 C 
HETATM   16  C   UNL     1      41.516 -15.219  -0.046  1.00  0.00     0.037 C 
BRANCH  15  17
HETATM   17  C   UNL     1      40.157 -14.616  -2.133  1.00  0.00    -0.036 A 
HETATM   18  C   UNL     1      38.892 -14.008  -2.068  1.00  0.00     0.009 A 
HETATM   19  C   UNL     1      37.861 -14.402  -2.922  1.00  0.00     0.001 A 
HETATM   20  C   UNL     1      38.075 -15.420  -3.848  1.00  0.00     0.000 A 
HETATM   21  C   UNL     1      39.317 -16.045  -3.917  1.00  0.00     0.001 A 
HETATM   22  C   UNL     1      40.351 -15.651  -3.063  1.00  0.00     0.009 A 
ENDBRANCH  15  17
ENDBRANCH  12  15
ENDBRANCH   6  11
ENDBRANCH   1   5
BRANCH   2  23
HETATM   23  C   UNL     1      41.608 -12.882   4.233  1.00  0.00     0.240 C 
BRANCH  23  24
HETATM   24  N   UNL     1      41.359 -14.288   4.475  1.00  0.00    -0.259 N 
HETATM   25  C   UNL     1      40.292 -14.733   5.190  1.00  0.00     0.326 C 
HETATM   26  O   UNL     1      39.310 -14.098   5.533  1.00  0.00    -0.247 OA
HETATM   27  N   UNL     1      40.525 -16.035   5.562  1.00  0.00    -0.324 N 
HETATM   28  C   UNL     1      41.775 -16.557   5.033  1.00  0.00     0.120 C 
HETATM   29  H   UNL     1      39.833 -16.559   6.081  1.00  0.00     0.165 HD
HETATM   30  C   UNL     1      41.480 -17.505   3.864  1.00  0.00     0.080 C 
HETATM   31  C   UNL     1      42.624 -17.203   6.122  1.00  0.00     0.046 C 
HETATM   32  C   UNL     1      42.362 -15.221   4.533  1.00  0.00     0.257 C 
HETATM   33  C   UNL     1      42.615 -18.424   3.491  1.00  0.00    -0.049 A 
HETATM   34  C   UNL     1      43.748 -18.578   4.307  1.00  0.00    -0.052 A 
HETATM   35  C   UNL     1      42.506 -19.178   2.312  1.00  0.00     0.007 A 
HETATM   36  C   UNL     1      43.928 -17.782   5.574  1.00  0.00     0.042 C 
HETATM   37  C   UNL     1      44.770 -19.450   3.902  1.00  0.00     0.007 A 
HETATM   38  C   UNL     1      44.654 -20.186   2.723  1.00  0.00     0.001 A 
HETATM   39  C   UNL     1      43.519 -20.055   1.930  1.00  0.00     0.001 A 
HETATM   40  O   UNL     1      43.528 -15.019   4.221  1.00  0.00    -0.270 OA
ENDBRANCH  23  24
ENDBRANCH   2  23
TORSDOF 6
ENDMDL
MODEL 9
REMARK VINA RESULT:      -9.5      3.094      9.711
REMARK  6 active torsions:
REMARK  status: ('A' for Active; 'I' for Inactive)
REMARK    1  A    between atoms: C_2  and  N_3 
REMARK    2  A    between atoms: C_2  and  C_32 
REMARK       I    between atoms: N_3  and  C_4 
REMARK    3  A    between atoms: C_4  and  C_5 
REMARK    4  A    between atoms: C_6  and  N_7 
REMARK       I    between atoms: N_7  and  C_8 
REMARK    5  A    between atoms: C_8  and  C_9 
REMARK    6  A    between atoms: C_9  and  N_10 
ROOT
HETATM    1  N   UNL     1      40.549 -14.257   0.226  1.00  0.00    -0.325 N 
HETATM    2  C   UNL     1      41.436 -13.305   0.686  1.00  0.00     0.240 C 
HETATM    3  O   UNL     1      41.581 -12.188   0.188  1.00  0.00    -0.271 OA
HETATM    4  H   UNL     1      40.263 -14.997   0.869  1.00  0.00     0.169 HD
ENDROOT
BRANCH   1   5
HETATM    5  C   UNL     1      39.953 -14.304  -1.061  1.00  0.00     0.050 A 
HETATM    6  C   UNL     1      38.584 -14.008  -1.219  1.00  0.00     0.058 A 
HETATM    7  C   UNL     1      37.970 -14.147  -2.478  1.00  0.00     0.019 A 
HETATM    8  C   UNL     1      38.715 -14.540  -3.587  1.00  0.00     0.001 A 
HETATM    9  C   UNL     1      40.071 -14.805  -3.444  1.00  0.00     0.002 A 
HETATM   10  C   UNL     1      40.683 -14.695  -2.192  1.00  0.00     0.030 A 
BRANCH   6  11
HETATM   11  C   UNL     1      37.771 -13.527  -0.065  1.00  0.00     0.254 C 
HETATM   12  N   UNL     1      37.487 -12.180  -0.065  1.00  0.00    -0.349 N 
HETATM   13  H   UNL     1      37.855 -11.589  -0.798  1.00  0.00     0.163 HD
HETATM   14  O   UNL     1      37.435 -14.307   0.820  1.00  0.00    -0.268 OA
BRANCH  12  15
HETATM   15  C   UNL     1      36.571 -11.554   0.874  1.00  0.00     0.114 C 
HETATM   16  C   UNL     1      37.292 -10.458   1.661  1.00  0.00     0.037 C 
BRANCH  15  17
HETATM   17  C   UNL     1      35.357 -11.070   0.098  1.00  0.00    -0.036 A 
HETATM   18  C   UNL     1      34.198 -10.708   0.806  1.00  0.00     0.009 A 
HETATM   19  C   UNL     1      33.042 -10.308   0.135  1.00  0.00     0.001 A 
HETATM   20  C   UNL     1      33.021 -10.273  -1.257  1.00  0.00     0.000 A 
HETATM   21  C   UNL     1      34.155 -10.642  -1.977  1.00  0.00     0.001 A 
HETATM   22  C   UNL     1      35.314 -11.043  -1.306  1.00  0.00     0.009 A 
ENDBRANCH  15  17
ENDBRANCH  12  15
ENDBRANCH   6  11
ENDBRANCH   1   5
BRANCH   2  23
HETATM   23  C   UNL     1      42.132 -13.644   2.003  1.00  0.00     0.240 C 
BRANCH  23  24
HETATM   24  N   UNL     1      41.791 -14.938   2.554  1.00  0.00    -0.259 N 
HETATM   25  C   UNL     1      40.631 -15.168   3.225  1.00  0.00     0.326 C 
HETATM   26  O   UNL     1      39.648 -14.449   3.280  1.00  0.00    -0.247 OA
HETATM   27  N   UNL     1      40.758 -16.338   3.934  1.00  0.00    -0.324 N 
HETATM   28  C   UNL     1      42.032 -17.000   3.704  1.00  0.00     0.120 C 
HETATM   29  H   UNL     1      39.988 -16.701   4.480  1.00  0.00     0.165 HD
HETATM   30  C   UNL     1      41.824 -18.207   2.780  1.00  0.00     0.080 C 
HETATM   31  C   UNL     1      42.723 -17.367   5.012  1.00  0.00     0.046 C 
HETATM   32  C   UNL     1      42.735 -15.844   2.962  1.00  0.00     0.257 C 
HETATM   33  C   UNL     1      42.948 -19.211   2.786  1.00  0.00    -0.049 A 
HETATM   34  C   UNL     1      43.975 -19.175   3.744  1.00  0.00    -0.052 A 
HETATM   35  C   UNL     1      42.933 -20.236   1.827  1.00  0.00     0.007 A 
HETATM   36  C   UNL     1      44.051 -18.089   4.786  1.00  0.00     0.042 C 
HETATM   37  C   UNL     1      44.992 -20.141   3.693  1.00  0.00     0.007 A 
HETATM   38  C   UNL     1      44.973 -21.148   2.728  1.00  0.00     0.001 A 
HETATM   39  C   UNL     1      43.940 -21.199   1.798  1.00  0.00     0.001 A 
HETATM   40  O   UNL     1      43.936 -15.750   2.751  1.00  0.00    -0.270 OA
ENDBRANCH  23  24
ENDBRANCH   2  23
TORSDOF 6
ENDMDL
MODEL 10
REMARK VINA RESULT:      -9.5      4.460      9.186
REMARK  6 active torsions:
REMARK  status: ('A' for Active; 'I' for Inactive)
REMARK    1  A    between atoms: C_2  and  N_3 
REMARK    2  A    between atoms: C_2  and  C_32 
REMARK       I    between atoms: N_3  and  C_4 
REMARK    3  A    between atoms: C_4  and  C_5 
REMARK    4  A    between atoms: C_6  and  N_7 
REMARK       I    between atoms: N_7  and  C_8 
REMARK    5  A    between atoms: C_8  and  C_9 
REMARK    6  A    between atoms: C_9  and  N_10 
ROOT
HETATM    1  N   UNL     1      41.343 -13.057   4.194  1.00  0.00    -0.325 N 
HETATM    2  C   UNL     1      41.275 -13.064   5.573  1.00  0.00     0.240 C 
HETATM    3  O   UNL     1      40.905 -14.025   6.249  1.00  0.00    -0.271 OA
HETATM    4  H   UNL     1      41.952 -12.369   3.747  1.00  0.00     0.169 HD
ENDROOT
BRANCH   1   5
HETATM    5  C   UNL     1      40.670 -13.941   3.312  1.00  0.00     0.050 A 
HETATM    6  C   UNL     1      41.278 -15.151   2.920  1.00  0.00     0.058 A 
HETATM    7  C   UNL     1      40.655 -15.982   1.971  1.00  0.00     0.019 A 
HETATM    8  C   UNL     1      39.414 -15.639   1.438  1.00  0.00     0.001 A 
HETATM    9  C   UNL     1      38.795 -14.463   1.842  1.00  0.00     0.002 A 
HETATM   10  C   UNL     1      39.420 -13.618   2.765  1.00  0.00     0.030 A 
BRANCH   6  11
HETATM   11  C   UNL     1      42.578 -15.577   3.516  1.00  0.00     0.254 C 
HETATM   12  N   UNL     1      42.584 -16.834   4.077  1.00  0.00    -0.349 N 
HETATM   13  H   UNL     1      41.735 -17.380   4.094  1.00  0.00     0.163 HD
HETATM   14  O   UNL     1      43.536 -14.810   3.517  1.00  0.00    -0.268 OA
BRANCH  12  15
HETATM   15  C   UNL     1      43.790 -17.493   4.551  1.00  0.00     0.114 C 
HETATM   16  C   UNL     1      43.769 -17.591   6.078  1.00  0.00     0.037 C 
BRANCH  15  17
HETATM   17  C   UNL     1      43.907 -18.831   3.840  1.00  0.00    -0.036 A 
HETATM   18  C   UNL     1      44.658 -19.856   4.441  1.00  0.00     0.009 A 
HETATM   19  C   UNL     1      44.838 -21.084   3.803  1.00  0.00     0.001 A 
HETATM   20  C   UNL     1      44.279 -21.304   2.547  1.00  0.00     0.000 A 
HETATM   21  C   UNL     1      43.544 -20.295   1.928  1.00  0.00     0.001 A 
HETATM   22  C   UNL     1      43.363 -19.065   2.567  1.00  0.00     0.009 A 
ENDBRANCH  15  17
ENDBRANCH  12  15
ENDBRANCH   6  11
ENDBRANCH   1   5
BRANCH   2  23
HETATM   23  C   UNL     1      41.874 -11.839   6.261  1.00  0.00     0.240 C 
BRANCH  23  24
HETATM   24  N   UNL     1      41.139 -11.374   7.419  1.00  0.00    -0.259 N 
HETATM   25  C   UNL     1      39.789 -11.216   7.417  1.00  0.00     0.326 C 
HETATM   26  O   UNL     1      38.994 -11.621   6.587  1.00  0.00    -0.247 OA
HETATM   27  N   UNL     1      39.438 -10.427   8.486  1.00  0.00    -0.324 N 
HETATM   28  C   UNL     1      40.574 -10.068   9.318  1.00  0.00     0.120 C 
HETATM   29  H   UNL     1      38.468 -10.214   8.678  1.00  0.00     0.165 HD
HETATM   30  C   UNL     1      40.549 -10.899  10.607  1.00  0.00     0.080 C 
HETATM   31  C   UNL     1      40.631  -8.567   9.581  1.00  0.00     0.046 C 
HETATM   32  C   UNL     1      41.689 -10.549   8.366  1.00  0.00     0.257 C 
HETATM   33  C   UNL     1      41.403 -10.358  11.726  1.00  0.00    -0.049 A 
HETATM   34  C   UNL     1      41.965  -9.072  11.680  1.00  0.00    -0.052 A 
HETATM   35  C   UNL     1      41.597 -11.157  12.864  1.00  0.00     0.007 A 
HETATM   36  C   UNL     1      41.804  -8.178  10.478  1.00  0.00     0.042 C 
HETATM   37  C   UNL     1      42.751  -8.630  12.756  1.00  0.00     0.007 A 
HETATM   38  C   UNL     1      42.946  -9.437  13.877  1.00  0.00     0.001 A 
HETATM   39  C   UNL     1      42.364 -10.699  13.934  1.00  0.00     0.001 A 
HETATM   40  O   UNL     1      42.875 -10.260   8.443  1.00  0.00    -0.270 OA
ENDBRANCH  23  24
ENDBRANCH   2  23
TORSDOF 6
ENDMDL
