MODEL 1
REMARK VINA RESULT:      -9.7      0.000      0.000
REMARK  5 active torsions:
REMARK  status: ('A' for Active; 'I' for Inactive)
REMARK    1  A    between atoms: C_7  and  C_8 
REMARK    2  A    between atoms: C_16  and  C_17 
REMARK    3  A    between atoms: C_20  and  O_21 
REMARK    4  A    between atoms: C_24  and  C_25 
REMARK       I    between atoms: C_25  and  N_26 
REMARK    5  A    between atoms: N_26  and  C_27 
ROOT
HETATM    1  C   UNL     1      40.253 -16.849   1.388  1.00  0.00     0.070 C 
HETATM    2  C   UNL     1      40.703 -15.958   2.524  1.00  0.00     0.037 A 
HETATM    3  N   UNL     1      39.778 -14.993   2.915  1.00  0.00    -0.192 N 
HETATM    4  C   UNL     1      40.037 -14.040   3.823  1.00  0.00     0.726 A 
HETATM    5  N   UNL     1      41.234 -14.051   4.473  1.00  0.00    -0.083 N 
HETATM    6  N   UNL     1      41.390 -12.958   5.245  1.00  0.00    -0.135 NA
HETATM    7  C   UNL     1      40.189 -12.364   5.104  1.00  0.00     0.199 A 
HETATM    8  N   UNL     1      39.341 -13.007   4.218  1.00  0.00    -0.041 NA
HETATM    9  C   UNL     1      42.282 -15.053   4.247  1.00  0.00     0.202 A 
HETATM   10  C   UNL     1      41.923 -16.029   3.128  1.00  0.00     0.062 A 
HETATM   11  H   UNL     1      38.895 -14.958   2.413  1.00  0.00     0.184 HD
ENDROOT
BRANCH  10  12
HETATM   12  C   UNL     1      42.910 -17.098   2.739  1.00  0.00     0.256 C 
HETATM   13  N   UNL     1      42.589 -18.381   3.135  1.00  0.00    -0.323 N 
HETATM   14  H   UNL     1      41.681 -18.563   3.534  1.00  0.00     0.169 HD
HETATM   15  O   UNL     1      43.900 -16.799   2.077  1.00  0.00    -0.267 OA
BRANCH  13  16
HETATM   16  C   UNL     1      43.387 -19.540   2.987  1.00  0.00     0.035 A 
HETATM   17  C   UNL     1      44.357 -19.946   3.903  1.00  0.00     0.029 A 
HETATM   18  C   UNL     1      45.080 -21.126   3.696  1.00  0.00     0.002 A 
HETATM   19  C   UNL     1      44.843 -21.906   2.567  1.00  0.00     0.000 A 
HETATM   20  C   UNL     1      43.879 -21.510   1.645  1.00  0.00     0.002 A 
HETATM   21  C   UNL     1      43.150 -20.337   1.857  1.00  0.00     0.029 A 
ENDBRANCH  13  16
ENDBRANCH  10  12
BRANCH   9  22
HETATM   22  C   UNL     1      42.631 -15.722   5.575  1.00  0.00    -0.028 A 
HETATM   23  C   UNL     1      41.795 -16.688   6.163  1.00  0.00     0.012 A 
HETATM   24  C   UNL     1      42.127 -17.266   7.391  1.00  0.00     0.037 A 
HETATM   25  C   UNL     1      43.291 -16.872   8.042  1.00  0.00     0.065 A 
HETATM   26  C   UNL     1      44.125 -15.911   7.488  1.00  0.00     0.037 A 
HETATM   27  C   UNL     1      43.797 -15.335   6.261  1.00  0.00     0.012 A 
BRANCH  25  28
HETATM   28  O   UNL     1      43.648 -17.404   9.246  1.00  0.00    -0.361 OA
HETATM   29  H   UNL     1      44.587 -17.650   9.210  1.00  0.00     0.217 HD
ENDBRANCH  25  28
ENDBRANCH   9  22
BRANCH   7  30
HETATM   30  C   UNL     1      39.806 -11.140   5.800  1.00  0.00     0.016 A 
HETATM   31  C   UNL     1      39.763 -11.095   7.201  1.00  0.00     0.039 A 
HETATM   32  C   UNL     1      39.391  -9.920   7.853  1.00  0.00     0.035 A 
HETATM   33 CL   UNL     1      39.340  -9.878   9.574  1.00  0.00    -0.084 Cl
HETATM   34  C   UNL     1      39.057  -8.779   7.126  1.00  0.00     0.024 A 
HETATM   35  C   UNL     1      39.096  -8.813   5.733  1.00  0.00     0.003 A 
HETATM   36  C   UNL     1      39.467  -9.988   5.074  1.00  0.00     0.015 A 
ENDBRANCH   7  30
TORSDOF 5
ENDMDL
MODEL 2
REMARK VINA RESULT:      -9.3      1.645      3.874
REMARK  5 active torsions:
REMARK  status: ('A' for Active; 'I' for Inactive)
REMARK    1  A    between atoms: C_7  and  C_8 
REMARK    2  A    between atoms: C_16  and  C_17 
REMARK    3  A    between atoms: C_20  and  O_21 
REMARK    4  A    between atoms: C_24  and  C_25 
REMARK       I    between atoms: C_25  and  N_26 
REMARK    5  A    between atoms: N_26  and  C_27 
ROOT
HETATM    1  C   UNL     1      44.332 -15.974   6.869  1.00  0.00     0.070 C 
HETATM    2  C   UNL     1      43.170 -15.421   6.074  1.00  0.00     0.037 A 
HETATM    3  N   UNL     1      42.933 -14.060   6.249  1.00  0.00    -0.192 N 
HETATM    4  C   UNL     1      41.882 -13.415   5.721  1.00  0.00     0.726 A 
HETATM    5  N   UNL     1      41.036 -14.090   4.896  1.00  0.00    -0.083 N 
HETATM    6  N   UNL     1      39.965 -13.343   4.563  1.00  0.00    -0.135 NA
HETATM    7  C   UNL     1      40.277 -12.166   5.139  1.00  0.00     0.199 A 
HETATM    8  N   UNL     1      41.451 -12.190   5.874  1.00  0.00    -0.041 NA
HETATM    9  C   UNL     1      41.195 -15.503   4.533  1.00  0.00     0.202 A 
HETATM   10  C   UNL     1      42.363 -16.163   5.264  1.00  0.00     0.062 A 
HETATM   11  H   UNL     1      43.541 -13.556   6.889  1.00  0.00     0.184 HD
ENDROOT
BRANCH  10  12
HETATM   12  C   UNL     1      42.640 -17.626   5.037  1.00  0.00     0.256 C 
HETATM   13  N   UNL     1      43.515 -17.916   4.009  1.00  0.00    -0.323 N 
HETATM   14  H   UNL     1      44.015 -17.167   3.558  1.00  0.00     0.169 HD
HETATM   15  O   UNL     1      42.127 -18.464   5.774  1.00  0.00    -0.267 OA
BRANCH  13  16
HETATM   16  C   UNL     1      43.863 -19.201   3.527  1.00  0.00     0.035 A 
HETATM   17  C   UNL     1      44.663 -20.109   4.222  1.00  0.00     0.029 A 
HETATM   18  C   UNL     1      44.932 -21.373   3.687  1.00  0.00     0.002 A 
HETATM   19  C   UNL     1      44.410 -21.737   2.449  1.00  0.00     0.000 A 
HETATM   20  C   UNL     1      43.613 -20.838   1.745  1.00  0.00     0.002 A 
HETATM   21  C   UNL     1      43.337 -19.579   2.284  1.00  0.00     0.029 A 
ENDBRANCH  13  16
ENDBRANCH  10  12
BRANCH   9  22
HETATM   22  C   UNL     1      41.256 -15.627   3.012  1.00  0.00    -0.028 A 
HETATM   23  C   UNL     1      40.601 -16.664   2.324  1.00  0.00     0.012 A 
HETATM   24  C   UNL     1      40.694 -16.768   0.934  1.00  0.00     0.037 A 
HETATM   25  C   UNL     1      41.453 -15.842   0.226  1.00  0.00     0.065 A 
HETATM   26  C   UNL     1      42.120 -14.818   0.884  1.00  0.00     0.037 A 
HETATM   27  C   UNL     1      42.026 -14.711   2.272  1.00  0.00     0.012 A 
BRANCH  25  28
HETATM   28  O   UNL     1      41.578 -15.912  -1.130  1.00  0.00    -0.361 OA
HETATM   29  H   UNL     1      41.097 -16.695  -1.445  1.00  0.00     0.217 HD
ENDBRANCH  25  28
ENDBRANCH   9  22
BRANCH   7  30
HETATM   30  C   UNL     1      39.454 -10.967   5.027  1.00  0.00     0.016 A 
HETATM   31  C   UNL     1      39.517  -9.960   6.001  1.00  0.00     0.039 A 
HETATM   32  C   UNL     1      38.722  -8.821   5.884  1.00  0.00     0.035 A 
HETATM   33 CL   UNL     1      38.808  -7.592   7.087  1.00  0.00    -0.084 Cl
HETATM   34  C   UNL     1      37.856  -8.667   4.803  1.00  0.00     0.024 A 
HETATM   35  C   UNL     1      37.784  -9.662   3.830  1.00  0.00     0.003 A 
HETATM   36  C   UNL     1      38.578 -10.806   3.942  1.00  0.00     0.015 A 
ENDBRANCH   7  30
TORSDOF 5
ENDMDL
MODEL 3
REMARK VINA RESULT:      -9.2      2.004      4.173
REMARK  5 active torsions:
REMARK  status: ('A' for Active; 'I' for Inactive)
REMARK    1  A    between atoms: C_7  and  C_8 
REMARK    2  A    between atoms: C_16  and  C_17 
REMARK    3  A    between atoms: C_20  and  O_21 
REMARK    4  A    between atoms: C_24  and  C_25 
REMARK       I    between atoms: C_25  and  N_26 
REMARK    5  A    between atoms: N_26  and  C_27 
ROOT
HETATM    1  C   UNL     1      44.278 -16.083   6.823  1.00  0.00     0.070 C 
HETATM    2  C   UNL     1      43.124 -15.502   6.038  1.00  0.00     0.037 A 
HETATM    3  N   UNL     1      42.910 -14.139   6.230  1.00  0.00    -0.192 N 
HETATM    4  C   UNL     1      41.867 -13.471   5.712  1.00  0.00     0.726 A 
HETATM    5  N   UNL     1      41.008 -14.123   4.881  1.00  0.00    -0.083 N 
HETATM    6  N   UNL     1      39.949 -13.355   4.560  1.00  0.00    -0.135 NA
HETATM    7  C   UNL     1      40.282 -12.190   5.149  1.00  0.00     0.199 A 
HETATM    8  N   UNL     1      41.457 -12.242   5.880  1.00  0.00    -0.041 NA
HETATM    9  C   UNL     1      41.144 -15.534   4.501  1.00  0.00     0.202 A 
HETATM   10  C   UNL     1      42.303 -16.221   5.221  1.00  0.00     0.062 A 
HETATM   11  H   UNL     1      43.527 -13.653   6.874  1.00  0.00     0.184 HD
ENDROOT
BRANCH  10  12
HETATM   12  C   UNL     1      42.556 -17.686   4.976  1.00  0.00     0.256 C 
HETATM   13  N   UNL     1      43.397 -17.978   3.921  1.00  0.00    -0.323 N 
HETATM   14  H   UNL     1      43.893 -17.231   3.461  1.00  0.00     0.169 HD
HETATM   15  O   UNL     1      42.055 -18.522   5.722  1.00  0.00    -0.267 OA
BRANCH  13  16
HETATM   16  C   UNL     1      43.716 -19.263   3.420  1.00  0.00     0.035 A 
HETATM   17  C   UNL     1      43.275 -19.757   2.192  1.00  0.00     0.029 A 
HETATM   18  C   UNL     1      43.664 -21.029   1.757  1.00  0.00     0.002 A 
HETATM   19  C   UNL     1      44.493 -21.819   2.549  1.00  0.00     0.000 A 
HETATM   20  C   UNL     1      44.938 -21.337   3.777  1.00  0.00     0.002 A 
HETATM   21  C   UNL     1      44.556 -20.063   4.207  1.00  0.00     0.029 A 
ENDBRANCH  13  16
ENDBRANCH  10  12
BRANCH   9  22
HETATM   22  C   UNL     1      41.200 -15.641   2.978  1.00  0.00    -0.028 A 
HETATM   23  C   UNL     1      40.513 -16.649   2.279  1.00  0.00     0.012 A 
HETATM   24  C   UNL     1      40.601 -16.738   0.887  1.00  0.00     0.037 A 
HETATM   25  C   UNL     1      41.386 -15.827   0.190  1.00  0.00     0.065 A 
HETATM   26  C   UNL     1      42.084 -14.831   0.859  1.00  0.00     0.037 A 
HETATM   27  C   UNL     1      41.994 -14.738   2.248  1.00  0.00     0.012 A 
BRANCH  25  28
HETATM   28  O   UNL     1      41.507 -15.884  -1.167  1.00  0.00    -0.361 OA
HETATM   29  H   UNL     1      41.189 -16.750  -1.470  1.00  0.00     0.217 HD
ENDBRANCH  25  28
ENDBRANCH   9  22
BRANCH   7  30
HETATM   30  C   UNL     1      39.477 -10.976   5.053  1.00  0.00     0.016 A 
HETATM   31  C   UNL     1      38.535 -10.820   4.026  1.00  0.00     0.039 A 
HETATM   32  C   UNL     1      37.776  -9.653   3.944  1.00  0.00     0.035 A 
HETATM   33 CL   UNL     1      36.624  -9.471   2.677  1.00  0.00    -0.084 Cl
HETATM   34  C   UNL     1      37.941  -8.631   4.876  1.00  0.00     0.024 A 
HETATM   35  C   UNL     1      38.874  -8.776   5.901  1.00  0.00     0.003 A 
HETATM   36  C   UNL     1      39.639  -9.942   5.988  1.00  0.00     0.015 A 
ENDBRANCH   7  30
TORSDOF 5
ENDMDL
MODEL 4
REMARK VINA RESULT:      -9.0      4.095      8.844
REMARK  5 active torsions:
REMARK  status: ('A' for Active; 'I' for Inactive)
REMARK    1  A    between atoms: C_7  and  C_8 
REMARK    2  A    between atoms: C_16  and  C_17 
REMARK    3  A    between atoms: C_20  and  O_21 
REMARK    4  A    between atoms: C_24  and  C_25 
REMARK       I    between atoms: C_25  and  N_26 
REMARK    5  A    between atoms: N_26  and  C_27 
ROOT
HETATM    1  C   UNL     1      40.128 -13.950  -1.347  1.00  0.00     0.070 C 
HETATM    2  C   UNL     1      40.458 -14.617  -0.031  1.00  0.00     0.037 A 
HETATM    3  N   UNL     1      41.521 -15.515  -0.078  1.00  0.00    -0.192 N 
HETATM    4  C   UNL     1      41.888 -16.288   0.957  1.00  0.00     0.726 A 
HETATM    5  N   UNL     1      41.255 -16.138   2.153  1.00  0.00    -0.083 N 
HETATM    6  N   UNL     1      41.643 -17.074   3.040  1.00  0.00    -0.135 NA
HETATM    7  C   UNL     1      42.610 -17.707   2.349  1.00  0.00     0.199 A 
HETATM    8  N   UNL     1      42.770 -17.247   1.051  1.00  0.00    -0.041 NA
HETATM    9  C   UNL     1      40.178 -15.172   2.397  1.00  0.00     0.202 A 
HETATM   10  C   UNL     1      39.775 -14.417   1.131  1.00  0.00     0.062 A 
HETATM   11  H   UNL     1      41.978 -15.656  -0.975  1.00  0.00     0.184 HD
ENDROOT
BRANCH  10  12
HETATM   12  C   UNL     1      38.652 -13.415   1.199  1.00  0.00     0.256 C 
HETATM   13  N   UNL     1      39.029 -12.112   1.456  1.00  0.00    -0.323 N 
HETATM   14  H   UNL     1      40.007 -11.870   1.456  1.00  0.00     0.169 HD
HETATM   15  O   UNL     1      37.499 -13.780   0.989  1.00  0.00    -0.267 OA
BRANCH  13  16
HETATM   16  C   UNL     1      38.172 -11.006   1.668  1.00  0.00     0.035 A 
HETATM   17  C   UNL     1      37.497 -10.331   0.650  1.00  0.00     0.029 A 
HETATM   18  C   UNL     1      36.641  -9.266   0.950  1.00  0.00     0.002 A 
HETATM   19  C   UNL     1      36.458  -8.862   2.270  1.00  0.00     0.000 A 
HETATM   20  C   UNL     1      37.128  -9.527   3.294  1.00  0.00     0.002 A 
HETATM   21  C   UNL     1      37.975 -10.596   2.994  1.00  0.00     0.029 A 
ENDBRANCH  13  16
ENDBRANCH  10  12
BRANCH   9  22
HETATM   22  C   UNL     1      40.567 -14.271   3.568  1.00  0.00    -0.028 A 
HETATM   23  C   UNL     1      41.661 -13.391   3.496  1.00  0.00     0.012 A 
HETATM   24  C   UNL     1      42.009 -12.597   4.592  1.00  0.00     0.037 A 
HETATM   25  C   UNL     1      41.272 -12.687   5.768  1.00  0.00     0.065 A 
HETATM   26  C   UNL     1      40.197 -13.559   5.866  1.00  0.00     0.037 A 
HETATM   27  C   UNL     1      39.845 -14.351   4.773  1.00  0.00     0.012 A 
BRANCH  25  28
HETATM   28  O   UNL     1      41.584 -11.938   6.863  1.00  0.00    -0.361 OA
HETATM   29  H   UNL     1      41.071 -11.113   6.829  1.00  0.00     0.217 HD
ENDBRANCH  25  28
ENDBRANCH   9  22
BRANCH   7  30
HETATM   30  C   UNL     1      43.415 -18.795   2.893  1.00  0.00     0.016 A 
HETATM   31  C   UNL     1      43.661 -19.952   2.139  1.00  0.00     0.039 A 
HETATM   32  C   UNL     1      44.428 -20.986   2.673  1.00  0.00     0.035 A 
HETATM   33 CL   UNL     1      44.721 -22.402   1.739  1.00  0.00    -0.084 Cl
HETATM   34  C   UNL     1      44.958 -20.887   3.958  1.00  0.00     0.024 A 
HETATM   35  C   UNL     1      44.720 -19.742   4.716  1.00  0.00     0.003 A 
HETATM   36  C   UNL     1      43.951 -18.703   4.186  1.00  0.00     0.015 A 
ENDBRANCH   7  30
TORSDOF 5
ENDMDL
MODEL 5
REMARK VINA RESULT:      -8.7      3.751      8.586
REMARK  5 active torsions:
REMARK  status: ('A' for Active; 'I' for Inactive)
REMARK    1  A    between atoms: C_7  and  C_8 
REMARK    2  A    between atoms: C_16  and  C_17 
REMARK    3  A    between atoms: C_20  and  O_21 
REMARK    4  A    between atoms: C_24  and  C_25 
REMARK       I    between atoms: C_25  and  N_26 
REMARK    5  A    between atoms: N_26  and  C_27 
ROOT
HETATM    1  C   UNL     1      41.443 -13.772  -1.063  1.00  0.00     0.070 C 
HETATM    2  C   UNL     1      41.627 -14.641   0.161  1.00  0.00     0.037 A 
HETATM    3  N   UNL     1      42.429 -15.762  -0.030  1.00  0.00    -0.192 N 
HETATM    4  C   UNL     1      42.615 -16.711   0.902  1.00  0.00     0.726 A 
HETATM    5  N   UNL     1      42.067 -16.543   2.137  1.00  0.00    -0.083 N 
HETATM    6  N   UNL     1      42.230 -17.638   2.905  1.00  0.00    -0.135 NA
HETATM    7  C   UNL     1      42.991 -18.409   2.105  1.00  0.00     0.199 A 
HETATM    8  N   UNL     1      43.230 -17.863   0.854  1.00  0.00    -0.041 NA
HETATM    9  C   UNL     1      41.273 -15.374   2.532  1.00  0.00     0.202 A 
HETATM   10  C   UNL     1      41.042 -14.408   1.371  1.00  0.00     0.062 A 
HETATM   11  H   UNL     1      42.816 -15.911  -0.958  1.00  0.00     0.184 HD
ENDROOT
BRANCH  10  12
HETATM   12  C   UNL     1      40.208 -13.174   1.595  1.00  0.00     0.256 C 
HETATM   13  N   UNL     1      38.854 -13.320   1.370  1.00  0.00    -0.323 N 
HETATM   14  H   UNL     1      38.476 -14.238   1.201  1.00  0.00     0.169 HD
HETATM   15  O   UNL     1      40.743 -12.143   1.994  1.00  0.00    -0.267 OA
BRANCH  13  16
HETATM   16  C   UNL     1      37.872 -12.301   1.411  1.00  0.00     0.035 A 
HETATM   17  C   UNL     1      37.917 -11.203   2.270  1.00  0.00     0.029 A 
HETATM   18  C   UNL     1      36.920 -10.222   2.222  1.00  0.00     0.002 A 
HETATM   19  C   UNL     1      35.866 -10.336   1.320  1.00  0.00     0.000 A 
HETATM   20  C   UNL     1      35.809 -11.429   0.459  1.00  0.00     0.002 A 
HETATM   21  C   UNL     1      36.810 -12.402   0.501  1.00  0.00     0.029 A 
ENDBRANCH  13  16
ENDBRANCH  10  12
BRANCH   9  22
HETATM   22  C   UNL     1      41.902 -14.733   3.767  1.00  0.00    -0.028 A 
HETATM   23  C   UNL     1      43.275 -14.434   3.831  1.00  0.00     0.012 A 
HETATM   24  C   UNL     1      43.828 -13.870   4.983  1.00  0.00     0.037 A 
HETATM   25  C   UNL     1      43.014 -13.612   6.080  1.00  0.00     0.065 A 
HETATM   26  C   UNL     1      41.659 -13.911   6.045  1.00  0.00     0.037 A 
HETATM   27  C   UNL     1      41.104 -14.471   4.895  1.00  0.00     0.012 A 
BRANCH  25  28
HETATM   28  O   UNL     1      43.515 -13.071   7.227  1.00  0.00    -0.361 OA
HETATM   29  H   UNL     1      44.359 -13.507   7.432  1.00  0.00     0.217 HD
ENDBRANCH  25  28
ENDBRANCH   9  22
BRANCH   7  30
HETATM   30  C   UNL     1      43.510 -19.715   2.495  1.00  0.00     0.016 A 
HETATM   31  C   UNL     1      43.877 -19.973   3.824  1.00  0.00     0.039 A 
HETATM   32  C   UNL     1      44.375 -21.225   4.184  1.00  0.00     0.035 A 
HETATM   33 CL   UNL     1      44.824 -21.529   5.818  1.00  0.00    -0.084 Cl
HETATM   34  C   UNL     1      44.515 -22.233   3.232  1.00  0.00     0.024 A 
HETATM   35  C   UNL     1      44.154 -21.988   1.908  1.00  0.00     0.003 A 
HETATM   36  C   UNL     1      43.655 -20.735   1.543  1.00  0.00     0.015 A 
ENDBRANCH   7  30
TORSDOF 5
ENDMDL
MODEL 6
REMARK VINA RESULT:      -8.6      4.974      6.322
REMARK  5 active torsions:
REMARK  status: ('A' for Active; 'I' for Inactive)
REMARK    1  A    between atoms: C_7  and  C_8 
REMARK    2  A    between atoms: C_16  and  C_17 
REMARK    3  A    between atoms: C_20  and  O_21 
REMARK    4  A    between atoms: C_24  and  C_25 
REMARK       I    between atoms: C_25  and  N_26 
REMARK    5  A    between atoms: N_26  and  C_27 
ROOT
HETATM    1  C   UNL     1      41.043 -17.598   1.385  1.00  0.00     0.070 C 
HETATM    2  C   UNL     1      41.360 -16.121   1.469  1.00  0.00     0.037 A 
HETATM    3  N   UNL     1      41.287 -15.435   0.259  1.00  0.00    -0.192 N 
HETATM    4  C   UNL     1      41.644 -14.150   0.111  1.00  0.00     0.726 A 
HETATM    5  N   UNL     1      42.019 -13.436   1.208  1.00  0.00    -0.083 N 
HETATM    6  N   UNL     1      42.474 -12.213   0.872  1.00  0.00    -0.135 NA
HETATM    7  C   UNL     1      42.245 -12.203  -0.456  1.00  0.00     0.199 A 
HETATM    8  N   UNL     1      41.745 -13.396  -0.952  1.00  0.00    -0.041 NA
HETATM    9  C   UNL     1      42.061 -13.981   2.569  1.00  0.00     0.202 A 
HETATM   10  C   UNL     1      41.731 -15.473   2.609  1.00  0.00     0.062 A 
HETATM   11  H   UNL     1      41.038 -15.969  -0.569  1.00  0.00     0.184 HD
ENDROOT
BRANCH  10  12
HETATM   12  C   UNL     1      41.771 -16.200   3.927  1.00  0.00     0.256 C 
HETATM   13  N   UNL     1      43.017 -16.633   4.333  1.00  0.00    -0.323 N 
HETATM   14  H   UNL     1      43.834 -16.342   3.820  1.00  0.00     0.169 HD
HETATM   15  O   UNL     1      40.739 -16.334   4.579  1.00  0.00    -0.267 OA
BRANCH  13  16
HETATM   16  C   UNL     1      43.314 -17.420   5.472  1.00  0.00     0.035 A 
HETATM   17  C   UNL     1      43.397 -16.919   6.771  1.00  0.00     0.029 A 
HETATM   18  C   UNL     1      43.663 -17.774   7.846  1.00  0.00     0.002 A 
HETATM   19  C   UNL     1      43.855 -19.136   7.630  1.00  0.00     0.000 A 
HETATM   20  C   UNL     1      43.776 -19.647   6.337  1.00  0.00     0.002 A 
HETATM   21  C   UNL     1      43.501 -18.794   5.265  1.00  0.00     0.029 A 
ENDBRANCH  13  16
ENDBRANCH  10  12
BRANCH   9  22
HETATM   22  C   UNL     1      41.189 -13.121   3.482  1.00  0.00    -0.028 A 
HETATM   23  C   UNL     1      39.819 -12.927   3.233  1.00  0.00     0.012 A 
HETATM   24  C   UNL     1      39.051 -12.115   4.072  1.00  0.00     0.037 A 
HETATM   25  C   UNL     1      39.651 -11.484   5.156  1.00  0.00     0.065 A 
HETATM   26  C   UNL     1      41.005 -11.650   5.413  1.00  0.00     0.037 A 
HETATM   27  C   UNL     1      41.774 -12.463   4.580  1.00  0.00     0.012 A 
BRANCH  25  28
HETATM   28  O   UNL     1      38.941 -10.676   5.993  1.00  0.00    -0.361 OA
HETATM   29  H   UNL     1      39.284  -9.770   5.913  1.00  0.00     0.217 HD
ENDBRANCH  25  28
ENDBRANCH   9  22
BRANCH   7  30
HETATM   30  C   UNL     1      42.512 -11.055  -1.315  1.00  0.00     0.016 A 
HETATM   31  C   UNL     1      42.329 -11.139  -2.703  1.00  0.00     0.039 A 
HETATM   32  C   UNL     1      42.592 -10.035  -3.512  1.00  0.00     0.035 A 
HETATM   33 CL   UNL     1      42.365 -10.151  -5.215  1.00  0.00    -0.084 Cl
HETATM   34  C   UNL     1      43.039  -8.837  -2.958  1.00  0.00     0.024 A 
HETATM   35  C   UNL     1      43.225  -8.742  -1.579  1.00  0.00     0.003 A 
HETATM   36  C   UNL     1      42.963  -9.846  -0.763  1.00  0.00     0.015 A 
ENDBRANCH   7  30
TORSDOF 5
ENDMDL
MODEL 7
REMARK VINA RESULT:      -8.6      3.749      9.282
REMARK  5 active torsions:
REMARK  status: ('A' for Active; 'I' for Inactive)
REMARK    1  A    between atoms: C_7  and  C_8 
REMARK    2  A    between atoms: C_16  and  C_17 
REMARK    3  A    between atoms: C_20  and  O_21 
REMARK    4  A    between atoms: C_24  and  C_25 
REMARK       I    between atoms: C_25  and  N_26 
REMARK    5  A    between atoms: N_26  and  C_27 
ROOT
HETATM    1  C   UNL     1      39.191 -12.466   7.117  1.00  0.00     0.070 C 
HETATM    2  C   UNL     1      39.948 -13.204   6.037  1.00  0.00     0.037 A 
HETATM    3  N   UNL     1      40.356 -14.491   6.380  1.00  0.00    -0.192 N 
HETATM    4  C   UNL     1      41.136 -15.256   5.600  1.00  0.00     0.726 A 
HETATM    5  N   UNL     1      41.487 -14.802   4.365  1.00  0.00    -0.083 N 
HETATM    6  N   UNL     1      42.375 -15.622   3.770  1.00  0.00    -0.135 NA
HETATM    7  C   UNL     1      42.444 -16.628   4.663  1.00  0.00     0.199 A 
HETATM    8  N   UNL     1      41.697 -16.417   5.810  1.00  0.00    -0.041 NA
HETATM    9  C   UNL     1      41.063 -13.511   3.813  1.00  0.00     0.202 A 
HETATM   10  C   UNL     1      40.264 -12.682   4.818  1.00  0.00     0.062 A 
HETATM   11  H   UNL     1      40.126 -14.823   7.312  1.00  0.00     0.184 HD
ENDROOT
BRANCH  10  12
HETATM   12  C   UNL     1      39.788 -11.308   4.425  1.00  0.00     0.256 C 
HETATM   13  N   UNL     1      38.458 -11.216   4.067  1.00  0.00    -0.323 N 
HETATM   14  H   UNL     1      37.852 -12.009   4.206  1.00  0.00     0.169 HD
HETATM   15  O   UNL     1      40.565 -10.358   4.477  1.00  0.00    -0.267 OA
BRANCH  13  16
HETATM   16  C   UNL     1      37.790 -10.074   3.565  1.00  0.00     0.035 A 
HETATM   17  C   UNL     1      37.364  -9.005   4.355  1.00  0.00     0.029 A 
HETATM   18  C   UNL     1      36.739  -7.897   3.773  1.00  0.00     0.002 A 
HETATM   19  C   UNL     1      36.530  -7.851   2.397  1.00  0.00     0.000 A 
HETATM   20  C   UNL     1      36.949  -8.912   1.600  1.00  0.00     0.002 A 
HETATM   21  C   UNL     1      37.581 -10.014   2.181  1.00  0.00     0.029 A 
ENDBRANCH  13  16
ENDBRANCH  10  12
BRANCH   9  22
HETATM   22  C   UNL     1      40.350 -13.742   2.482  1.00  0.00    -0.028 A 
HETATM   23  C   UNL     1      40.873 -13.267   1.267  1.00  0.00     0.012 A 
HETATM   24  C   UNL     1      40.186 -13.472   0.067  1.00  0.00     0.037 A 
HETATM   25  C   UNL     1      38.969 -14.143   0.079  1.00  0.00     0.065 A 
HETATM   26  C   UNL     1      38.427 -14.610   1.268  1.00  0.00     0.037 A 
HETATM   27  C   UNL     1      39.111 -14.409   2.467  1.00  0.00     0.012 A 
BRANCH  25  28
HETATM   28  O   UNL     1      38.262 -14.356  -1.067  1.00  0.00    -0.361 OA
HETATM   29  H   UNL     1      37.385 -13.950  -0.970  1.00  0.00     0.217 HD
ENDBRANCH  25  28
ENDBRANCH   9  22
BRANCH   7  30
HETATM   30  C   UNL     1      43.244 -17.832   4.465  1.00  0.00     0.016 A 
HETATM   31  C   UNL     1      43.069 -18.630   3.326  1.00  0.00     0.039 A 
HETATM   32  C   UNL     1      43.838 -19.780   3.151  1.00  0.00     0.035 A 
HETATM   33 CL   UNL     1      43.612 -20.754   1.749  1.00  0.00    -0.084 Cl
HETATM   34  C   UNL     1      44.787 -20.151   4.102  1.00  0.00     0.024 A 
HETATM   35  C   UNL     1      44.969 -19.365   5.238  1.00  0.00     0.003 A 
HETATM   36  C   UNL     1      44.200 -18.212   5.419  1.00  0.00     0.015 A 
ENDBRANCH   7  30
TORSDOF 5
ENDMDL
MODEL 8
REMARK VINA RESULT:      -8.5      4.319      5.244
REMARK  5 active torsions:
REMARK  status: ('A' for Active; 'I' for Inactive)
REMARK    1  A    between atoms: C_7  and  C_8 
REMARK    2  A    between atoms: C_16  and  C_17 
REMARK    3  A    between atoms: C_20  and  O_21 
REMARK    4  A    between atoms: C_24  and  C_25 
REMARK       I    between atoms: C_25  and  N_26 
REMARK    5  A    between atoms: N_26  and  C_27 
ROOT
HETATM    1  C   UNL     1      40.689 -17.787   0.660  1.00  0.00     0.070 C 
HETATM    2  C   UNL     1      41.178 -16.388   0.961  1.00  0.00     0.037 A 
HETATM    3  N   UNL     1      40.864 -15.436  -0.004  1.00  0.00    -0.192 N 
HETATM    4  C   UNL     1      41.309 -14.170   0.029  1.00  0.00     0.726 A 
HETATM    5  N   UNL     1      42.037 -13.751   1.101  1.00  0.00    -0.083 N 
HETATM    6  N   UNL     1      42.519 -12.506   0.917  1.00  0.00    -0.135 NA
HETATM    7  C   UNL     1      41.950 -12.175  -0.258  1.00  0.00     0.199 A 
HETATM    8  N   UNL     1      41.209 -13.194  -0.834  1.00  0.00    -0.041 NA
HETATM    9  C   UNL     1      42.375 -14.601   2.248  1.00  0.00     0.202 A 
HETATM   10  C   UNL     1      41.905 -16.043   2.062  1.00  0.00     0.062 A 
HETATM   11  H   UNL     1      40.349 -15.748  -0.823  1.00  0.00     0.184 HD
ENDROOT
BRANCH  10  12
HETATM   12  C   UNL     1      42.210 -17.059   3.130  1.00  0.00     0.256 C 
HETATM   13  N   UNL     1      43.413 -17.725   2.996  1.00  0.00    -0.323 N 
HETATM   14  H   UNL     1      44.070 -17.423   2.294  1.00  0.00     0.169 HD
HETATM   15  O   UNL     1      41.426 -17.216   4.062  1.00  0.00    -0.267 OA
BRANCH  13  16
HETATM   16  C   UNL     1      43.890 -18.788   3.799  1.00  0.00     0.035 A 
HETATM   17  C   UNL     1      43.974 -18.742   5.191  1.00  0.00     0.029 A 
HETATM   18  C   UNL     1      44.427 -19.852   5.912  1.00  0.00     0.002 A 
HETATM   19  C   UNL     1      44.806 -21.015   5.246  1.00  0.00     0.000 A 
HETATM   20  C   UNL     1      44.728 -21.072   3.858  1.00  0.00     0.002 A 
HETATM   21  C   UNL     1      44.266 -19.966   3.139  1.00  0.00     0.029 A 
ENDBRANCH  13  16
ENDBRANCH  10  12
BRANCH   9  22
HETATM   22  C   UNL     1      41.875 -13.939   3.530  1.00  0.00    -0.028 A 
HETATM   23  C   UNL     1      42.759 -13.484   4.524  1.00  0.00     0.012 A 
HETATM   24  C   UNL     1      42.273 -12.903   5.699  1.00  0.00     0.037 A 
HETATM   25  C   UNL     1      40.901 -12.786   5.889  1.00  0.00     0.065 A 
HETATM   26  C   UNL     1      40.009 -13.240   4.927  1.00  0.00     0.037 A 
HETATM   27  C   UNL     1      40.492 -13.817   3.753  1.00  0.00     0.012 A 
BRANCH  25  28
HETATM   28  O   UNL     1      40.384 -12.235   7.023  1.00  0.00    -0.361 OA
HETATM   29  H   UNL     1      39.580 -12.724   7.267  1.00  0.00     0.217 HD
ENDBRANCH  25  28
ENDBRANCH   9  22
BRANCH   7  30
HETATM   30  C   UNL     1      42.107 -10.871  -0.894  1.00  0.00     0.016 A 
HETATM   31  C   UNL     1      43.105  -9.982  -0.469  1.00  0.00     0.039 A 
HETATM   32  C   UNL     1      43.241  -8.737  -1.083  1.00  0.00     0.035 A 
HETATM   33 CL   UNL     1      44.468  -7.653  -0.552  1.00  0.00    -0.084 Cl
HETATM   34  C   UNL     1      42.392  -8.360  -2.121  1.00  0.00     0.024 A 
HETATM   35  C   UNL     1      41.397  -9.236  -2.551  1.00  0.00     0.003 A 
HETATM   36  C   UNL     1      41.255 -10.485  -1.939  1.00  0.00     0.015 A 
ENDBRANCH   7  30
TORSDOF 5
ENDMDL
MODEL 9
REMARK VINA RESULT:      -8.0      5.290      7.392
REMARK  5 active torsions:
REMARK  status: ('A' for Active; 'I' for Inactive)
REMARK    1  A    between atoms: C_7  and  C_8 
REMARK    2  A    between atoms: C_16  and  C_17 
REMARK    3  A    between atoms: C_20  and  O_21 
REMARK    4  A    between atoms: C_24  and  C_25 
REMARK       I    between atoms: C_25  and  N_26 
REMARK    5  A    between atoms: N_26  and  C_27 
ROOT
HETATM    1  C   UNL     1      41.073 -17.833   1.025  1.00  0.00     0.070 C 
HETATM    2  C   UNL     1      41.137 -16.350   0.738  1.00  0.00     0.037 A 
HETATM    3  N   UNL     1      40.889 -15.996  -0.586  1.00  0.00    -0.192 N 
HETATM    4  C   UNL     1      41.013 -14.746  -1.057  1.00  0.00     0.726 A 
HETATM    5  N   UNL     1      41.312 -13.738  -0.191  1.00  0.00    -0.083 N 
HETATM    6  N   UNL     1      41.534 -12.578  -0.838  1.00  0.00    -0.135 NA
HETATM    7  C   UNL     1      41.244 -12.924  -2.106  1.00  0.00     0.199 A 
HETATM    8  N   UNL     1      40.933 -14.265  -2.269  1.00  0.00    -0.041 NA
HETATM    9  C   UNL     1      41.511 -13.925   1.251  1.00  0.00     0.202 A 
HETATM   10  C   UNL     1      41.444 -15.396   1.662  1.00  0.00     0.062 A 
HETATM   11  H   UNL     1      40.697 -16.746  -1.244  1.00  0.00     0.184 HD
ENDROOT
BRANCH  10  12
HETATM   12  C   UNL     1      41.670 -15.767   3.104  1.00  0.00     0.256 C 
HETATM   13  N   UNL     1      42.978 -16.041   3.452  1.00  0.00    -0.323 N 
HETATM   14  H   UNL     1      43.715 -15.860   2.789  1.00  0.00     0.169 HD
HETATM   15  O   UNL     1      40.724 -15.770   3.886  1.00  0.00    -0.267 OA
BRANCH  13  16
HETATM   16  C   UNL     1      43.444 -16.507   4.704  1.00  0.00     0.035 A 
HETATM   17  C   UNL     1      43.874 -17.813   4.944  1.00  0.00     0.029 A 
HETATM   18  C   UNL     1      44.351 -18.183   6.206  1.00  0.00     0.002 A 
HETATM   19  C   UNL     1      44.395 -17.252   7.241  1.00  0.00     0.000 A 
HETATM   20  C   UNL     1      43.967 -15.947   7.014  1.00  0.00     0.002 A 
HETATM   21  C   UNL     1      43.500 -15.575   5.751  1.00  0.00     0.029 A 
ENDBRANCH  13  16
ENDBRANCH  10  12
BRANCH   9  22
HETATM   22  C   UNL     1      40.549 -13.016   2.013  1.00  0.00    -0.028 A 
HETATM   23  C   UNL     1      40.976 -12.220   3.091  1.00  0.00     0.012 A 
HETATM   24  C   UNL     1      40.069 -11.416   3.786  1.00  0.00     0.037 A 
HETATM   25  C   UNL     1      38.729 -11.414   3.415  1.00  0.00     0.065 A 
HETATM   26  C   UNL     1      38.282 -12.203   2.364  1.00  0.00     0.037 A 
HETATM   27  C   UNL     1      39.186 -13.003   1.666  1.00  0.00     0.012 A 
BRANCH  25  28
HETATM   28  O   UNL     1      37.809 -10.652   4.072  1.00  0.00    -0.361 OA
HETATM   29  H   UNL     1      38.266 -10.139   4.759  1.00  0.00     0.217 HD
ENDBRANCH  25  28
ENDBRANCH   9  22
BRANCH   7  30
HETATM   30  C   UNL     1      41.269 -11.990  -3.227  1.00  0.00     0.016 A 
HETATM   31  C   UNL     1      40.078 -11.571  -3.838  1.00  0.00     0.039 A 
HETATM   32  C   UNL     1      40.116 -10.681  -4.910  1.00  0.00     0.035 A 
HETATM   33 CL   UNL     1      38.648 -10.175  -5.654  1.00  0.00    -0.084 Cl
HETATM   34  C   UNL     1      41.333 -10.197  -5.389  1.00  0.00     0.024 A 
HETATM   35  C   UNL     1      42.522 -10.607  -4.789  1.00  0.00     0.003 A 
HETATM   36  C   UNL     1      42.490 -11.500  -3.714  1.00  0.00     0.015 A 
ENDBRANCH   7  30
TORSDOF 5
ENDMDL
MODEL 10
REMARK VINA RESULT:      -7.9      4.706      9.478
REMARK  5 active torsions:
REMARK  status: ('A' for Active; 'I' for Inactive)
REMARK    1  A    between atoms: C_7  and  C_8 
REMARK    2  A    between atoms: C_16  and  C_17 
REMARK    3  A    between atoms: C_20  and  O_21 
REMARK    4  A    between atoms: C_24  and  C_25 
REMARK       I    between atoms: C_25  and  N_26 
REMARK    5  A    between atoms: N_26  and  C_27 
ROOT
HETATM    1  C   UNL     1      39.018 -12.331   3.855  1.00  0.00     0.070 C 
HETATM    2  C   UNL     1      40.057 -13.210   3.197  1.00  0.00     0.037 A 
HETATM    3  N   UNL     1      40.219 -14.465   3.780  1.00  0.00    -0.192 N 
HETATM    4  C   UNL     1      41.169 -15.338   3.412  1.00  0.00     0.726 A 
HETATM    5  N   UNL     1      41.973 -15.037   2.356  1.00  0.00    -0.083 N 
HETATM    6  N   UNL     1      42.954 -15.947   2.203  1.00  0.00    -0.135 NA
HETATM    7  C   UNL     1      42.622 -16.851   3.145  1.00  0.00     0.199 A 
HETATM    8  N   UNL     1      41.529 -16.489   3.916  1.00  0.00    -0.041 NA
HETATM    9  C   UNL     1      41.874 -13.799   1.573  1.00  0.00     0.202 A 
HETATM   10  C   UNL     1      40.829 -12.837   2.137  1.00  0.00     0.062 A 
HETATM   11  H   UNL     1      39.644 -14.684   4.588  1.00  0.00     0.184 HD
ENDROOT
BRANCH  10  12
HETATM   12  C   UNL     1      40.629 -11.499   1.476  1.00  0.00     0.256 C 
HETATM   13  N   UNL     1      39.609 -11.437   0.548  1.00  0.00    -0.323 N 
HETATM   14  H   UNL     1      38.979 -12.218   0.452  1.00  0.00     0.169 HD
HETATM   15  O   UNL     1      41.330 -10.546   1.808  1.00  0.00    -0.267 OA
BRANCH  13  16
HETATM   16  C   UNL     1      39.279 -10.338  -0.281  1.00  0.00     0.035 A 
HETATM   17  C   UNL     1      38.400  -9.317   0.084  1.00  0.00     0.029 A 
HETATM   18  C   UNL     1      38.155  -8.248  -0.784  1.00  0.00     0.002 A 
HETATM   19  C   UNL     1      38.781  -8.194  -2.027  1.00  0.00     0.000 A 
HETATM   20  C   UNL     1      39.658  -9.208  -2.402  1.00  0.00     0.002 A 
HETATM   21  C   UNL     1      39.910 -10.271  -1.531  1.00  0.00     0.029 A 
ENDBRANCH  13  16
ENDBRANCH  10  12
BRANCH   9  22
HETATM   22  C   UNL     1      41.673 -14.150   0.101  1.00  0.00    -0.028 A 
HETATM   23  C   UNL     1      42.122 -13.307  -0.932  1.00  0.00     0.012 A 
HETATM   24  C   UNL     1      41.904 -13.642  -2.271  1.00  0.00     0.037 A 
HETATM   25  C   UNL     1      41.225 -14.815  -2.583  1.00  0.00     0.065 A 
HETATM   26  C   UNL     1      40.761 -15.655  -1.581  1.00  0.00     0.037 A 
HETATM   27  C   UNL     1      40.981 -15.325  -0.244  1.00  0.00     0.012 A 
BRANCH  25  28
HETATM   28  O   UNL     1      40.982 -15.174  -3.875  1.00  0.00    -0.361 OA
HETATM   29  H   UNL     1      40.039 -15.391  -3.964  1.00  0.00     0.217 HD
ENDBRANCH  25  28
ENDBRANCH   9  22
BRANCH   7  30
HETATM   30  C   UNL     1      43.349 -18.097   3.363  1.00  0.00     0.016 A 
HETATM   31  C   UNL     1      43.315 -19.124   2.408  1.00  0.00     0.039 A 
HETATM   32  C   UNL     1      44.011 -20.311   2.631  1.00  0.00     0.035 A 
HETATM   33 CL   UNL     1      43.960 -21.565   1.452  1.00  0.00    -0.084 Cl
HETATM   34  C   UNL     1      44.748 -20.494   3.800  1.00  0.00     0.024 A 
HETATM   35  C   UNL     1      44.788 -19.481   4.756  1.00  0.00     0.003 A 
HETATM   36  C   UNL     1      44.092 -18.289   4.538  1.00  0.00     0.015 A 
ENDBRANCH   7  30
TORSDOF 5
ENDMDL
