MODEL 1
REMARK VINA RESULT:      -8.4      0.000      0.000
REMARK  5 active torsions:
REMARK  status: ('A' for Active; 'I' for Inactive)
REMARK    1  A    between atoms: O_2  and  C_3 
REMARK    2  A    between atoms: C_4  and  O_5 
REMARK    3  A    between atoms: C_10  and  C_11 
REMARK    4  A    between atoms: C_13  and  O_14 
REMARK    5  A    between atoms: O_14  and  C_15 
ROOT
HETATM    1  C   UNL     1      41.638 -16.185   1.424  1.00  0.00     0.102 A 
HETATM    2  C   UNL     1      40.903 -15.129   0.859  1.00  0.00     0.103 A 
HETATM    3  C   UNL     1      40.177 -14.265   1.684  1.00  0.00     0.069 A 
HETATM    4  C   UNL     1      40.244 -14.405   3.073  1.00  0.00     0.044 A 
HETATM    5  C   UNL     1      41.025 -15.406   3.658  1.00  0.00    -0.020 A 
HETATM    6  C   UNL     1      41.026 -15.553   5.174  1.00  0.00     0.063 C 
HETATM    7  C   UNL     1      40.714 -14.227   5.872  1.00  0.00     0.117 C 
HETATM    8  C   UNL     1      39.549 -13.512   5.240  1.00  0.00     0.223 C 
HETATM    9  O   UNL     1      38.769 -12.820   5.889  1.00  0.00    -0.273 OA
HETATM   10  N   UNL     1      39.475 -13.560   3.876  1.00  0.00    -0.327 N 
HETATM   11  C   UNL     1      41.689 -16.317   2.816  1.00  0.00     0.049 A 
HETATM   12  H   UNL     1      38.780 -12.954   3.457  1.00  0.00     0.169 HD
ENDROOT
BRANCH   6  13
HETATM   13  C   UNL     1      42.320 -16.127   5.747  1.00  0.00    -0.046 A 
HETATM   14  C   UNL     1      42.493 -17.515   5.898  1.00  0.00     0.045 A 
HETATM   15  C   UNL     1      43.643 -18.022   6.510  1.00  0.00     0.076 A 
HETATM   16  C   UNL     1      44.669 -17.162   6.893  1.00  0.00     0.037 A 
HETATM   17  C   UNL     1      44.524 -15.787   6.716  1.00  0.00     0.003 A 
HETATM   18  C   UNL     1      43.353 -15.270   6.157  1.00  0.00     0.008 A 
BRANCH  15  19
HETATM   19  O   UNL     1      43.839 -19.368   6.709  1.00  0.00    -0.311 OA
BRANCH  19  20
HETATM   20  C   UNL     1      44.166 -20.153   5.623  1.00  0.00     0.076 A 
HETATM   21  C   UNL     1      44.269 -19.683   4.311  1.00  0.00     0.037 A 
HETATM   22  C   UNL     1      44.594 -20.561   3.275  1.00  0.00     0.003 A 
HETATM   23  C   UNL     1      44.784 -21.917   3.544  1.00  0.00     0.000 A 
HETATM   24  C   UNL     1      44.648 -22.395   4.847  1.00  0.00     0.003 A 
HETATM   25  C   UNL     1      44.338 -21.514   5.884  1.00  0.00     0.037 A 
ENDBRANCH  19  20
ENDBRANCH  15  19
ENDBRANCH   6  13
BRANCH   1  26
HETATM   26  O   UNL     1      42.292 -17.011   0.544  1.00  0.00    -0.353 OA
HETATM   27  C   UNL     1      43.434 -17.704   1.028  1.00  0.00     0.210 C 
ENDBRANCH   1  26
BRANCH   2  28
HETATM   28  O   UNL     1      40.890 -15.048  -0.513  1.00  0.00    -0.353 OA
HETATM   29  C   UNL     1      41.537 -13.912  -1.073  1.00  0.00     0.210 C 
ENDBRANCH   2  28
TORSDOF 5
ENDMDL
MODEL 2
REMARK VINA RESULT:      -8.3      2.471      7.396
REMARK  5 active torsions:
REMARK  status: ('A' for Active; 'I' for Inactive)
REMARK    1  A    between atoms: O_2  and  C_3 
REMARK    2  A    between atoms: C_4  and  O_5 
REMARK    3  A    between atoms: C_10  and  C_11 
REMARK    4  A    between atoms: C_13  and  O_14 
REMARK    5  A    between atoms: O_14  and  C_15 
ROOT
HETATM    1  C   UNL     1      44.419 -19.930   3.133  1.00  0.00     0.102 A 
HETATM    2  C   UNL     1      44.845 -20.350   4.405  1.00  0.00     0.103 A 
HETATM    3  C   UNL     1      44.843 -19.449   5.474  1.00  0.00     0.069 A 
HETATM    4  C   UNL     1      44.345 -18.156   5.296  1.00  0.00     0.044 A 
HETATM    5  C   UNL     1      43.851 -17.739   4.057  1.00  0.00    -0.020 A 
HETATM    6  C   UNL     1      43.367 -16.304   3.897  1.00  0.00     0.063 C 
HETATM    7  C   UNL     1      42.880 -15.719   5.225  1.00  0.00     0.117 C 
HETATM    8  C   UNL     1      43.828 -16.015   6.358  1.00  0.00     0.223 C 
HETATM    9  O   UNL     1      44.000 -15.239   7.294  1.00  0.00    -0.273 OA
HETATM   10  N   UNL     1      44.394 -17.259   6.366  1.00  0.00    -0.327 N 
HETATM   11  C   UNL     1      43.931 -18.629   2.969  1.00  0.00     0.049 A 
HETATM   12  H   UNL     1      44.906 -17.498   7.206  1.00  0.00     0.169 HD
ENDROOT
BRANCH   6  13
HETATM   13  C   UNL     1      42.277 -16.124   2.843  1.00  0.00    -0.046 A 
HETATM   14  C   UNL     1      42.536 -15.438   1.642  1.00  0.00     0.045 A 
HETATM   15  C   UNL     1      41.507 -15.199   0.728  1.00  0.00     0.076 A 
HETATM   16  C   UNL     1      40.234 -15.717   0.956  1.00  0.00     0.037 A 
HETATM   17  C   UNL     1      39.973 -16.428   2.126  1.00  0.00     0.003 A 
HETATM   18  C   UNL     1      40.985 -16.622   3.069  1.00  0.00     0.008 A 
BRANCH  15  19
HETATM   19  O   UNL     1      41.706 -14.505  -0.442  1.00  0.00    -0.311 OA
BRANCH  19  20
HETATM   20  C   UNL     1      40.826 -14.705  -1.485  1.00  0.00     0.076 A 
HETATM   21  C   UNL     1      40.929 -15.742  -2.416  1.00  0.00     0.037 A 
HETATM   22  C   UNL     1      39.993 -15.853  -3.447  1.00  0.00     0.003 A 
HETATM   23  C   UNL     1      38.972 -14.910  -3.568  1.00  0.00     0.000 A 
HETATM   24  C   UNL     1      38.888 -13.855  -2.660  1.00  0.00     0.003 A 
HETATM   25  C   UNL     1      39.815 -13.752  -1.622  1.00  0.00     0.037 A 
ENDBRANCH  19  20
ENDBRANCH  15  19
ENDBRANCH   6  13
BRANCH   1  26
HETATM   26  O   UNL     1      44.488 -20.863   2.129  1.00  0.00    -0.353 OA
HETATM   27  C   UNL     1      43.280 -21.518   1.766  1.00  0.00     0.210 C 
ENDBRANCH   1  26
BRANCH   2  28
HETATM   28  O   UNL     1      45.313 -21.638   4.506  1.00  0.00    -0.353 OA
HETATM   29  C   UNL     1      44.692 -22.447   5.497  1.00  0.00     0.210 C 
ENDBRANCH   2  28
TORSDOF 5
ENDMDL
MODEL 3
REMARK VINA RESULT:      -8.0      2.564      7.620
REMARK  5 active torsions:
REMARK  status: ('A' for Active; 'I' for Inactive)
REMARK    1  A    between atoms: O_2  and  C_3 
REMARK    2  A    between atoms: C_4  and  O_5 
REMARK    3  A    between atoms: C_10  and  C_11 
REMARK    4  A    between atoms: C_13  and  O_14 
REMARK    5  A    between atoms: O_14  and  C_15 
ROOT
HETATM    1  C   UNL     1      43.178 -14.585   6.273  1.00  0.00     0.102 A 
HETATM    2  C   UNL     1      44.269 -14.931   7.089  1.00  0.00     0.103 A 
HETATM    3  C   UNL     1      44.787 -16.229   7.047  1.00  0.00     0.069 A 
HETATM    4  C   UNL     1      44.270 -17.158   6.141  1.00  0.00     0.044 A 
HETATM    5  C   UNL     1      43.231 -16.814   5.271  1.00  0.00    -0.020 A 
HETATM    6  C   UNL     1      42.665 -17.876   4.337  1.00  0.00     0.063 C 
HETATM    7  C   UNL     1      43.702 -18.952   4.008  1.00  0.00     0.117 C 
HETATM    8  C   UNL     1      44.442 -19.422   5.234  1.00  0.00     0.223 C 
HETATM    9  O   UNL     1      44.839 -20.577   5.361  1.00  0.00    -0.273 OA
HETATM   10  N   UNL     1      44.772 -18.461   6.148  1.00  0.00    -0.327 N 
HETATM   11  C   UNL     1      42.666 -15.530   5.376  1.00  0.00     0.049 A 
HETATM   12  H   UNL     1      45.396 -18.762   6.887  1.00  0.00     0.169 HD
ENDROOT
BRANCH   6  13
HETATM   13  C   UNL     1      42.089 -17.322   3.036  1.00  0.00    -0.046 A 
HETATM   14  C   UNL     1      40.783 -16.801   2.984  1.00  0.00     0.045 A 
HETATM   15  C   UNL     1      40.235 -16.385   1.768  1.00  0.00     0.076 A 
HETATM   16  C   UNL     1      41.010 -16.397   0.611  1.00  0.00     0.037 A 
HETATM   17  C   UNL     1      42.317 -16.878   0.656  1.00  0.00     0.003 A 
HETATM   18  C   UNL     1      42.851 -17.348   1.858  1.00  0.00     0.008 A 
BRANCH  15  19
HETATM   19  O   UNL     1      38.952 -15.901   1.665  1.00  0.00    -0.311 OA
BRANCH  19  20
HETATM   20  C   UNL     1      38.761 -14.535   1.669  1.00  0.00     0.076 A 
HETATM   21  C   UNL     1      39.468 -13.642   2.480  1.00  0.00     0.037 A 
HETATM   22  C   UNL     1      39.193 -12.274   2.421  1.00  0.00     0.003 A 
HETATM   23  C   UNL     1      38.188 -11.800   1.577  1.00  0.00     0.000 A 
HETATM   24  C   UNL     1      37.458 -12.693   0.794  1.00  0.00     0.003 A 
HETATM   25  C   UNL     1      37.744 -14.058   0.841  1.00  0.00     0.037 A 
ENDBRANCH  19  20
ENDBRANCH  15  19
ENDBRANCH   6  13
BRANCH   1  26
HETATM   26  O   UNL     1      42.705 -13.303   6.400  1.00  0.00    -0.353 OA
HETATM   27  C   UNL     1      41.778 -12.851   5.423  1.00  0.00     0.210 C 
ENDBRANCH   1  26
BRANCH   2  28
HETATM   28  O   UNL     1      44.731 -13.963   7.948  1.00  0.00    -0.353 OA
HETATM   29  C   UNL     1      45.810 -13.171   7.468  1.00  0.00     0.210 C 
ENDBRANCH   2  28
TORSDOF 5
ENDMDL
MODEL 4
REMARK VINA RESULT:      -7.9      2.329      6.399
REMARK  5 active torsions:
REMARK  status: ('A' for Active; 'I' for Inactive)
REMARK    1  A    between atoms: O_2  and  C_3 
REMARK    2  A    between atoms: C_4  and  O_5 
REMARK    3  A    between atoms: C_10  and  C_11 
REMARK    4  A    between atoms: C_13  and  O_14 
REMARK    5  A    between atoms: O_14  and  C_15 
ROOT
HETATM    1  C   UNL     1      43.891 -18.334   2.608  1.00  0.00     0.102 A 
HETATM    2  C   UNL     1      43.903 -19.723   2.823  1.00  0.00     0.103 A 
HETATM    3  C   UNL     1      43.970 -20.227   4.125  1.00  0.00     0.069 A 
HETATM    4  C   UNL     1      43.947 -19.352   5.214  1.00  0.00     0.044 A 
HETATM    5  C   UNL     1      43.866 -17.969   5.025  1.00  0.00    -0.020 A 
HETATM    6  C   UNL     1      43.897 -17.052   6.241  1.00  0.00     0.063 C 
HETATM    7  C   UNL     1      43.364 -17.752   7.493  1.00  0.00     0.117 C 
HETATM    8  C   UNL     1      43.927 -19.141   7.650  1.00  0.00     0.223 C 
HETATM    9  O   UNL     1      44.142 -19.644   8.750  1.00  0.00    -0.273 OA
HETATM   10  N   UNL     1      44.061 -19.874   6.505  1.00  0.00    -0.327 N 
HETATM   11  C   UNL     1      43.878 -17.470   3.709  1.00  0.00     0.049 A 
HETATM   12  H   UNL     1      44.295 -20.850   6.639  1.00  0.00     0.169 HD
ENDROOT
BRANCH   6  13
HETATM   13  C   UNL     1      43.152 -15.733   6.050  1.00  0.00    -0.046 A 
HETATM   14  C   UNL     1      41.818 -15.712   5.602  1.00  0.00     0.045 A 
HETATM   15  C   UNL     1      41.178 -14.498   5.341  1.00  0.00     0.076 A 
HETATM   16  C   UNL     1      41.825 -13.294   5.610  1.00  0.00     0.037 A 
HETATM   17  C   UNL     1      43.135 -13.301   6.087  1.00  0.00     0.003 A 
HETATM   18  C   UNL     1      43.799 -14.512   6.296  1.00  0.00     0.008 A 
BRANCH  15  19
HETATM   19  O   UNL     1      39.888 -14.430   4.871  1.00  0.00    -0.311 OA
BRANCH  19  20
HETATM   20  C   UNL     1      39.685 -14.070   3.555  1.00  0.00     0.076 A 
HETATM   21  C   UNL     1      39.257 -12.806   3.140  1.00  0.00     0.037 A 
HETATM   22  C   UNL     1      39.068 -12.542   1.782  1.00  0.00     0.003 A 
HETATM   23  C   UNL     1      39.273 -13.549   0.839  1.00  0.00     0.000 A 
HETATM   24  C   UNL     1      39.666 -14.821   1.254  1.00  0.00     0.003 A 
HETATM   25  C   UNL     1      39.870 -15.081   2.610  1.00  0.00     0.037 A 
ENDBRANCH  19  20
ENDBRANCH  15  19
ENDBRANCH   6  13
BRANCH   1  26
HETATM   26  O   UNL     1      43.863 -17.921   1.300  1.00  0.00    -0.353 OA
HETATM   27  C   UNL     1      42.819 -17.035   0.920  1.00  0.00     0.210 C 
ENDBRANCH   1  26
BRANCH   2  28
HETATM   28  O   UNL     1      43.914 -20.522   1.705  1.00  0.00    -0.353 OA
HETATM   29  C   UNL     1      44.260 -21.884   1.920  1.00  0.00     0.210 C 
ENDBRANCH   2  28
TORSDOF 5
ENDMDL
MODEL 5
REMARK VINA RESULT:      -7.9      2.410      7.272
REMARK  5 active torsions:
REMARK  status: ('A' for Active; 'I' for Inactive)
REMARK    1  A    between atoms: O_2  and  C_3 
REMARK    2  A    between atoms: C_4  and  O_5 
REMARK    3  A    between atoms: C_10  and  C_11 
REMARK    4  A    between atoms: C_13  and  O_14 
REMARK    5  A    between atoms: O_14  and  C_15 
ROOT
HETATM    1  C   UNL     1      44.285 -19.623   3.192  1.00  0.00     0.102 A 
HETATM    2  C   UNL     1      44.784 -20.120   4.408  1.00  0.00     0.103 A 
HETATM    3  C   UNL     1      44.835 -19.290   5.532  1.00  0.00     0.069 A 
HETATM    4  C   UNL     1      44.319 -17.993   5.467  1.00  0.00     0.044 A 
HETATM    5  C   UNL     1      43.754 -17.502   4.286  1.00  0.00    -0.020 A 
HETATM    6  C   UNL     1      43.251 -16.065   4.246  1.00  0.00     0.063 C 
HETATM    7  C   UNL     1      42.835 -15.572   5.634  1.00  0.00     0.117 C 
HETATM    8  C   UNL     1      43.847 -15.931   6.692  1.00  0.00     0.223 C 
HETATM    9  O   UNL     1      44.065 -15.215   7.666  1.00  0.00    -0.273 OA
HETATM   10  N   UNL     1      44.421 -17.167   6.587  1.00  0.00    -0.327 N 
HETATM   11  C   UNL     1      43.779 -18.320   3.140  1.00  0.00     0.049 A 
HETATM   12  H   UNL     1      44.981 -17.454   7.381  1.00  0.00     0.169 HD
ENDROOT
BRANCH   6  13
HETATM   13  C   UNL     1      42.104 -15.830   3.268  1.00  0.00    -0.046 A 
HETATM   14  C   UNL     1      41.992 -14.620   2.558  1.00  0.00     0.045 A 
HETATM   15  C   UNL     1      40.887 -14.380   1.737  1.00  0.00     0.076 A 
HETATM   16  C   UNL     1      39.931 -15.374   1.543  1.00  0.00     0.037 A 
HETATM   17  C   UNL     1      40.048 -16.590   2.214  1.00  0.00     0.003 A 
HETATM   18  C   UNL     1      41.121 -16.814   3.079  1.00  0.00     0.008 A 
BRANCH  15  19
HETATM   19  O   UNL     1      40.720 -13.201   1.051  1.00  0.00    -0.311 OA
BRANCH  19  20
HETATM   20  C   UNL     1      41.370 -13.042  -0.155  1.00  0.00     0.076 A 
HETATM   21  C   UNL     1      41.272 -13.935  -1.227  1.00  0.00     0.037 A 
HETATM   22  C   UNL     1      41.981 -13.694  -2.406  1.00  0.00     0.003 A 
HETATM   23  C   UNL     1      42.813 -12.578  -2.505  1.00  0.00     0.000 A 
HETATM   24  C   UNL     1      42.938 -11.705  -1.424  1.00  0.00     0.003 A 
HETATM   25  C   UNL     1      42.218 -11.939  -0.251  1.00  0.00     0.037 A 
ENDBRANCH  19  20
ENDBRANCH  15  19
ENDBRANCH   6  13
BRANCH   1  26
HETATM   26  O   UNL     1      44.304 -20.489   2.127  1.00  0.00    -0.353 OA
HETATM   27  C   UNL     1      43.091 -21.158   1.810  1.00  0.00     0.210 C 
ENDBRANCH   1  26
BRANCH   2  28
HETATM   28  O   UNL     1      45.266 -21.407   4.400  1.00  0.00    -0.353 OA
HETATM   29  C   UNL     1      44.800 -22.250   5.446  1.00  0.00     0.210 C 
ENDBRANCH   2  28
TORSDOF 5
ENDMDL
MODEL 6
REMARK VINA RESULT:      -7.8      2.351      6.545
REMARK  5 active torsions:
REMARK  status: ('A' for Active; 'I' for Inactive)
REMARK    1  A    between atoms: O_2  and  C_3 
REMARK    2  A    between atoms: C_4  and  O_5 
REMARK    3  A    between atoms: C_10  and  C_11 
REMARK    4  A    between atoms: C_13  and  O_14 
REMARK    5  A    between atoms: O_14  and  C_15 
ROOT
HETATM    1  C   UNL     1      43.977 -18.681   2.721  1.00  0.00     0.102 A 
HETATM    2  C   UNL     1      44.316 -19.913   3.306  1.00  0.00     0.103 A 
HETATM    3  C   UNL     1      44.404 -20.023   4.697  1.00  0.00     0.069 A 
HETATM    4  C   UNL     1      44.081 -18.930   5.506  1.00  0.00     0.044 A 
HETATM    5  C   UNL     1      43.675 -17.716   4.946  1.00  0.00    -0.020 A 
HETATM    6  C   UNL     1      43.383 -16.537   5.866  1.00  0.00     0.063 C 
HETATM    7  C   UNL     1      42.945 -16.999   7.257  1.00  0.00     0.117 C 
HETATM    8  C   UNL     1      43.819 -18.103   7.792  1.00  0.00     0.223 C 
HETATM    9  O   UNL     1      44.067 -18.228   8.988  1.00  0.00    -0.273 OA
HETATM   10  N   UNL     1      44.220 -19.049   6.891  1.00  0.00    -0.327 N 
HETATM   11  C   UNL     1      43.665 -17.593   3.544  1.00  0.00     0.049 A 
HETATM   12  H   UNL     1      44.677 -19.861   7.288  1.00  0.00     0.169 HD
ENDROOT
BRANCH   6  13
HETATM   13  C   UNL     1      42.352 -15.555   5.317  1.00  0.00    -0.046 A 
HETATM   14  C   UNL     1      41.328 -15.985   4.452  1.00  0.00     0.045 A 
HETATM   15  C   UNL     1      40.448 -15.061   3.883  1.00  0.00     0.076 A 
HETATM   16  C   UNL     1      40.519 -13.716   4.238  1.00  0.00     0.037 A 
HETATM   17  C   UNL     1      41.506 -13.282   5.121  1.00  0.00     0.003 A 
HETATM   18  C   UNL     1      42.424 -14.193   5.650  1.00  0.00     0.008 A 
BRANCH  15  19
HETATM   19  O   UNL     1      39.455 -15.432   3.007  1.00  0.00    -0.311 OA
BRANCH  19  20
HETATM   20  C   UNL     1      39.518 -14.973   1.708  1.00  0.00     0.076 A 
HETATM   21  C   UNL     1      40.650 -15.065   0.893  1.00  0.00     0.037 A 
HETATM   22  C   UNL     1      40.620 -14.558  -0.408  1.00  0.00     0.003 A 
HETATM   23  C   UNL     1      39.469 -13.929  -0.885  1.00  0.00     0.000 A 
HETATM   24  C   UNL     1      38.351 -13.805  -0.062  1.00  0.00     0.003 A 
HETATM   25  C   UNL     1      38.377 -14.325   1.233  1.00  0.00     0.037 A 
ENDBRANCH  19  20
ENDBRANCH  15  19
ENDBRANCH   6  13
BRANCH   1  26
HETATM   26  O   UNL     1      43.950 -18.646   1.349  1.00  0.00    -0.353 OA
HETATM   27  C   UNL     1      43.536 -17.431   0.738  1.00  0.00     0.210 C 
ENDBRANCH   1  26
BRANCH   2  28
HETATM   28  O   UNL     1      44.611 -20.945   2.449  1.00  0.00    -0.353 OA
HETATM   29  C   UNL     1      44.421 -22.255   2.967  1.00  0.00     0.210 C 
ENDBRANCH   2  28
TORSDOF 5
ENDMDL
MODEL 7
REMARK VINA RESULT:      -7.8      2.448      6.960
REMARK  5 active torsions:
REMARK  status: ('A' for Active; 'I' for Inactive)
REMARK    1  A    between atoms: O_2  and  C_3 
REMARK    2  A    between atoms: C_4  and  O_5 
REMARK    3  A    between atoms: C_10  and  C_11 
REMARK    4  A    between atoms: C_13  and  O_14 
REMARK    5  A    between atoms: O_14  and  C_15 
ROOT
HETATM    1  C   UNL     1      43.677 -18.776   4.096  1.00  0.00     0.102 A 
HETATM    2  C   UNL     1      44.116 -19.233   5.350  1.00  0.00     0.103 A 
HETATM    3  C   UNL     1      44.402 -18.316   6.366  1.00  0.00     0.069 A 
HETATM    4  C   UNL     1      44.178 -16.952   6.159  1.00  0.00     0.044 A 
HETATM    5  C   UNL     1      43.677 -16.482   4.942  1.00  0.00    -0.020 A 
HETATM    6  C   UNL     1      43.499 -14.982   4.743  1.00  0.00     0.063 C 
HETATM    7  C   UNL     1      43.270 -14.259   6.072  1.00  0.00     0.117 C 
HETATM    8  C   UNL     1      44.229 -14.714   7.141  1.00  0.00     0.223 C 
HETATM    9  O   UNL     1      44.645 -13.961   8.017  1.00  0.00    -0.273 OA
HETATM   10  N   UNL     1      44.514 -16.050   7.171  1.00  0.00    -0.327 N 
HETATM   11  C   UNL     1      43.467 -17.406   3.901  1.00  0.00     0.049 A 
HETATM   12  H   UNL     1      45.036 -16.365   7.980  1.00  0.00     0.169 HD
ENDROOT
BRANCH   6  13
HETATM   13  C   UNL     1      42.384 -14.607   3.771  1.00  0.00    -0.046 A 
HETATM   14  C   UNL     1      42.676 -14.048   2.513  1.00  0.00     0.045 A 
HETATM   15  C   UNL     1      41.645 -13.622   1.671  1.00  0.00     0.076 A 
HETATM   16  C   UNL     1      40.316 -13.831   2.031  1.00  0.00     0.037 A 
HETATM   17  C   UNL     1      40.014 -14.417   3.260  1.00  0.00     0.003 A 
HETATM   18  C   UNL     1      41.040 -14.793   4.129  1.00  0.00     0.008 A 
BRANCH  15  19
HETATM   19  O   UNL     1      41.884 -13.040   0.449  1.00  0.00    -0.311 OA
BRANCH  19  20
HETATM   20  C   UNL     1      41.624 -13.771  -0.691  1.00  0.00     0.076 A 
HETATM   21  C   UNL     1      41.226 -15.111  -0.696  1.00  0.00     0.037 A 
HETATM   22  C   UNL     1      40.999 -15.770  -1.906  1.00  0.00     0.003 A 
HETATM   23  C   UNL     1      41.200 -15.101  -3.113  1.00  0.00     0.000 A 
HETATM   24  C   UNL     1      41.631 -13.775  -3.112  1.00  0.00     0.003 A 
HETATM   25  C   UNL     1      41.844 -13.112  -1.902  1.00  0.00     0.037 A 
ENDBRANCH  19  20
ENDBRANCH  15  19
ENDBRANCH   6  13
BRANCH   1  26
HETATM   26  O   UNL     1      43.455 -19.736   3.141  1.00  0.00    -0.353 OA
HETATM   27  C   UNL     1      43.495 -19.324   1.782  1.00  0.00     0.210 C 
ENDBRANCH   1  26
BRANCH   2  28
HETATM   28  O   UNL     1      44.304 -20.588   5.484  1.00  0.00    -0.353 OA
HETATM   29  C   UNL     1      43.805 -21.167   6.683  1.00  0.00     0.210 C 
ENDBRANCH   2  28
TORSDOF 5
ENDMDL
MODEL 8
REMARK VINA RESULT:      -7.8      2.963      7.435
REMARK  5 active torsions:
REMARK  status: ('A' for Active; 'I' for Inactive)
REMARK    1  A    between atoms: O_2  and  C_3 
REMARK    2  A    between atoms: C_4  and  O_5 
REMARK    3  A    between atoms: C_10  and  C_11 
REMARK    4  A    between atoms: C_13  and  O_14 
REMARK    5  A    between atoms: O_14  and  C_15 
ROOT
HETATM    1  C   UNL     1      43.655 -18.249   2.698  1.00  0.00     0.102 A 
HETATM    2  C   UNL     1      44.042 -19.549   3.065  1.00  0.00     0.103 A 
HETATM    3  C   UNL     1      44.275 -19.853   4.410  1.00  0.00     0.069 A 
HETATM    4  C   UNL     1      44.049 -18.887   5.394  1.00  0.00     0.044 A 
HETATM    5  C   UNL     1      43.597 -17.608   5.057  1.00  0.00    -0.020 A 
HETATM    6  C   UNL     1      43.414 -16.572   6.158  1.00  0.00     0.063 C 
HETATM    7  C   UNL     1      43.121 -17.228   7.510  1.00  0.00     0.117 C 
HETATM    8  C   UNL     1      44.037 -18.391   7.788  1.00  0.00     0.223 C 
HETATM    9  O   UNL     1      44.408 -18.681   8.923  1.00  0.00    -0.273 OA
HETATM   10  N   UNL     1      44.332 -19.199   6.726  1.00  0.00    -0.327 N 
HETATM   11  C   UNL     1      43.441 -17.290   3.695  1.00  0.00     0.049 A 
HETATM   12  H   UNL     1      44.821 -20.056   6.954  1.00  0.00     0.169 HD
ENDROOT
BRANCH   6  13
HETATM   13  C   UNL     1      42.340 -15.529   5.865  1.00  0.00    -0.046 A 
HETATM   14  C   UNL     1      42.682 -14.193   5.587  1.00  0.00     0.045 A 
HETATM   15  C   UNL     1      41.686 -13.228   5.413  1.00  0.00     0.076 A 
HETATM   16  C   UNL     1      40.344 -13.599   5.424  1.00  0.00     0.037 A 
HETATM   17  C   UNL     1      39.992 -14.926   5.663  1.00  0.00     0.003 A 
HETATM   18  C   UNL     1      40.982 -15.884   5.893  1.00  0.00     0.008 A 
BRANCH  15  19
HETATM   19  O   UNL     1      41.974 -11.906   5.173  1.00  0.00    -0.311 OA
BRANCH  19  20
HETATM   20  C   UNL     1      41.603 -10.969   6.115  1.00  0.00     0.076 A 
HETATM   21  C   UNL     1      41.948 -11.032   7.468  1.00  0.00     0.037 A 
HETATM   22  C   UNL     1      41.512 -10.040   8.349  1.00  0.00     0.003 A 
HETATM   23  C   UNL     1      40.705  -9.001   7.886  1.00  0.00     0.000 A 
HETATM   24  C   UNL     1      40.331  -8.955   6.543  1.00  0.00     0.003 A 
HETATM   25  C   UNL     1      40.779  -9.939   5.660  1.00  0.00     0.037 A 
ENDBRANCH  19  20
ENDBRANCH  15  19
ENDBRANCH   6  13
BRANCH   1  26
HETATM   26  O   UNL     1      43.483 -18.021   1.356  1.00  0.00    -0.353 OA
HETATM   27  C   UNL     1      42.567 -17.002   0.981  1.00  0.00     0.210 C 
ENDBRANCH   1  26
BRANCH   2  28
HETATM   28  O   UNL     1      44.236 -20.448   2.045  1.00  0.00    -0.353 OA
HETATM   29  C   UNL     1      44.355 -21.811   2.434  1.00  0.00     0.210 C 
ENDBRANCH   2  28
TORSDOF 5
ENDMDL
MODEL 9
REMARK VINA RESULT:      -7.7      2.929      5.457
REMARK  5 active torsions:
REMARK  status: ('A' for Active; 'I' for Inactive)
REMARK    1  A    between atoms: O_2  and  C_3 
REMARK    2  A    between atoms: C_4  and  O_5 
REMARK    3  A    between atoms: C_10  and  C_11 
REMARK    4  A    between atoms: C_13  and  O_14 
REMARK    5  A    between atoms: O_14  and  C_15 
ROOT
HETATM    1  C   UNL     1      39.988 -11.698   6.044  1.00  0.00     0.102 A 
HETATM    2  C   UNL     1      40.358 -10.655   6.909  1.00  0.00     0.103 A 
HETATM    3  C   UNL     1      41.545 -10.747   7.644  1.00  0.00     0.069 A 
HETATM    4  C   UNL     1      42.397 -11.838   7.460  1.00  0.00     0.044 A 
HETATM    5  C   UNL     1      42.081 -12.854   6.553  1.00  0.00    -0.020 A 
HETATM    6  C   UNL     1      43.015 -14.050   6.425  1.00  0.00     0.063 C 
HETATM    7  C   UNL     1      44.454 -13.687   6.798  1.00  0.00     0.117 C 
HETATM    8  C   UNL     1      44.526 -12.877   8.066  1.00  0.00     0.223 C 
HETATM    9  O   UNL     1      45.466 -12.964   8.852  1.00  0.00    -0.273 OA
HETATM   10  N   UNL     1      43.554 -11.932   8.237  1.00  0.00    -0.327 N 
HETATM   11  C   UNL     1      40.848 -12.790   5.878  1.00  0.00     0.049 A 
HETATM   12  H   UNL     1      43.698 -11.296   9.012  1.00  0.00     0.169 HD
ENDROOT
BRANCH   6  13
HETATM   13  C   UNL     1      43.006 -14.707   5.047  1.00  0.00    -0.046 A 
HETATM   14  C   UNL     1      42.469 -15.994   4.860  1.00  0.00     0.045 A 
HETATM   15  C   UNL     1      42.552 -16.621   3.614  1.00  0.00     0.076 A 
HETATM   16  C   UNL     1      43.086 -15.941   2.522  1.00  0.00     0.037 A 
HETATM   17  C   UNL     1      43.590 -14.652   2.686  1.00  0.00     0.003 A 
HETATM   18  C   UNL     1      43.560 -14.041   3.942  1.00  0.00     0.008 A 
BRANCH  15  19
HETATM   19  O   UNL     1      42.071 -17.890   3.394  1.00  0.00    -0.311 OA
BRANCH  19  20
HETATM   20  C   UNL     1      42.976 -18.923   3.262  1.00  0.00     0.076 A 
HETATM   21  C   UNL     1      43.949 -19.246   4.212  1.00  0.00     0.037 A 
HETATM   22  C   UNL     1      44.830 -20.305   3.980  1.00  0.00     0.003 A 
HETATM   23  C   UNL     1      44.761 -21.021   2.785  1.00  0.00     0.000 A 
HETATM   24  C   UNL     1      43.814 -20.678   1.821  1.00  0.00     0.003 A 
HETATM   25  C   UNL     1      42.924 -19.629   2.059  1.00  0.00     0.037 A 
ENDBRANCH  19  20
ENDBRANCH  15  19
ENDBRANCH   6  13
BRANCH   1  26
HETATM   26  O   UNL     1      38.791 -11.550   5.389  1.00  0.00    -0.353 OA
HETATM   27  C   UNL     1      38.837 -11.398   3.977  1.00  0.00     0.210 C 
ENDBRANCH   1  26
BRANCH   2  28
HETATM   28  O   UNL     1      39.475  -9.609   7.032  1.00  0.00    -0.353 OA
HETATM   29  C   UNL     1      39.029  -9.327   8.352  1.00  0.00     0.210 C 
ENDBRANCH   2  28
TORSDOF 5
ENDMDL
MODEL 10
REMARK VINA RESULT:      -7.7      2.664      8.060
REMARK  5 active torsions:
REMARK  status: ('A' for Active; 'I' for Inactive)
REMARK    1  A    between atoms: O_2  and  C_3 
REMARK    2  A    between atoms: C_4  and  O_5 
REMARK    3  A    between atoms: C_10  and  C_11 
REMARK    4  A    between atoms: C_13  and  O_14 
REMARK    5  A    between atoms: O_14  and  C_15 
ROOT
HETATM    1  C   UNL     1      42.086 -14.696   5.285  1.00  0.00     0.102 A 
HETATM    2  C   UNL     1      43.174 -15.387   5.847  1.00  0.00     0.103 A 
HETATM    3  C   UNL     1      43.572 -16.615   5.309  1.00  0.00     0.069 A 
HETATM    4  C   UNL     1      42.939 -17.116   4.169  1.00  0.00     0.044 A 
HETATM    5  C   UNL     1      41.901 -16.411   3.553  1.00  0.00    -0.020 A 
HETATM    6  C   UNL     1      41.206 -17.022   2.343  1.00  0.00     0.063 C 
HETATM    7  C   UNL     1      42.129 -17.975   1.581  1.00  0.00     0.117 C 
HETATM    8  C   UNL     1      42.873 -18.906   2.504  1.00  0.00     0.223 C 
HETATM    9  O   UNL     1      43.171 -20.053   2.184  1.00  0.00    -0.273 OA
HETATM   10  N   UNL     1      43.323 -18.365   3.676  1.00  0.00    -0.327 N 
HETATM   11  C   UNL     1      41.457 -15.216   4.149  1.00  0.00     0.049 A 
HETATM   12  H   UNL     1      43.947 -18.954   4.215  1.00  0.00     0.169 HD
ENDROOT
BRANCH   6  13
HETATM   13  C   UNL     1      40.630 -15.998   1.369  1.00  0.00    -0.046 A 
HETATM   14  C   UNL     1      41.265 -15.727   0.143  1.00  0.00     0.045 A 
HETATM   15  C   UNL     1      40.781 -14.721  -0.698  1.00  0.00     0.076 A 
HETATM   16  C   UNL     1      39.611 -14.039  -0.371  1.00  0.00     0.037 A 
HETATM   17  C   UNL     1      38.953 -14.323   0.824  1.00  0.00     0.003 A 
HETATM   18  C   UNL     1      39.464 -15.289   1.695  1.00  0.00     0.008 A 
BRANCH  15  19
HETATM   19  O   UNL     1      41.389 -14.398  -1.888  1.00  0.00    -0.311 OA
BRANCH  19  20
HETATM   20  C   UNL     1      41.905 -13.129  -2.041  1.00  0.00     0.076 A 
HETATM   21  C   UNL     1      42.467 -12.375  -1.006  1.00  0.00     0.037 A 
HETATM   22  C   UNL     1      42.953 -11.090  -1.259  1.00  0.00     0.003 A 
HETATM   23  C   UNL     1      42.848 -10.544  -2.538  1.00  0.00     0.000 A 
HETATM   24  C   UNL     1      42.256 -11.280  -3.564  1.00  0.00     0.003 A 
HETATM   25  C   UNL     1      41.785 -12.570  -3.314  1.00  0.00     0.037 A 
ENDBRANCH  19  20
ENDBRANCH  15  19
ENDBRANCH   6  13
BRANCH   1  26
HETATM   26  O   UNL     1      41.734 -13.518   5.894  1.00  0.00    -0.353 OA
HETATM   27  C   UNL     1      41.796 -12.335   5.108  1.00  0.00     0.210 C 
ENDBRANCH   1  26
BRANCH   2  28
HETATM   28  O   UNL     1      43.753 -14.829   6.961  1.00  0.00    -0.353 OA
HETATM   29  C   UNL     1      44.971 -14.129   6.741  1.00  0.00     0.210 C 
ENDBRANCH   2  28
TORSDOF 5
ENDMDL
