MODEL 1
REMARK VINA RESULT:      -9.2      0.000      0.000
REMARK  8 active torsions:
REMARK  status: ('A' for Active; 'I' for Inactive)
REMARK    1  A    between atoms: C_4  and  N_5 
REMARK       I    between atoms: N_5  and  C_6 
REMARK    2  A    between atoms: C_6  and  C_7 
REMARK    3  A    between atoms: C_7  and  N_8 
REMARK    4  A    between atoms: C_7  and  C_24 
REMARK    5  A    between atoms: N_8  and  C_11 
REMARK    6  A    between atoms: C_11  and  C_12 
REMARK    7  A    between atoms: C_15  and  N_16 
REMARK    8  A    between atoms: C_31  and  O_32 
ROOT
HETATM    1  C   UNL     1      43.164 -17.882   3.003  1.00  0.00     0.310 C 
ENDROOT
BRANCH   1   2
HETATM    2  C   UNL     1      42.998 -17.163   1.639  1.00  0.00     0.257 C 
HETATM    3  N   UNL     1      41.869 -16.414   1.433  1.00  0.00    -0.323 N 
HETATM    4  H   UNL     1      41.112 -16.418   2.117  1.00  0.00     0.169 HD
HETATM    5  O   UNL     1      43.987 -17.203   0.897  1.00  0.00    -0.270 OA
BRANCH   3   6
HETATM    6  C   UNL     1      41.639 -15.473   0.398  1.00  0.00     0.069 A 
HETATM    7  C   UNL     1      41.201 -15.815  -0.885  1.00  0.00     0.039 A 
HETATM    8  C   UNL     1      41.048 -14.832  -1.872  1.00  0.00    -0.060 A 
HETATM    9  C   UNL     1      40.551 -15.195  -3.242  1.00  0.00     0.048 C 
HETATM   10  C   UNL     1      41.318 -13.498  -1.555  1.00  0.00     0.009 A 
HETATM   11  C   UNL     1      41.746 -13.143  -0.274  1.00  0.00     0.039 A 
HETATM   12  C   UNL     1      41.906 -14.124   0.708  1.00  0.00     0.095 A 
BRANCH  12  13
HETATM   13  O   UNL     1      42.344 -13.894   1.993  1.00  0.00    -0.354 OA
HETATM   14  C   UNL     1      41.743 -12.807   2.689  1.00  0.00     0.210 C 
ENDBRANCH  12  13
ENDBRANCH   3   6
ENDBRANCH   1   2
BRANCH   1  15
HETATM   15  N   UNL     1      41.849 -17.691   3.717  1.00  0.00    -0.054 N 
HETATM   16  H   UNL     1      41.484 -16.790   3.360  1.00  0.00     0.278 HD
HETATM   17  H   UNL     1      41.163 -18.373   3.378  1.00  0.00     0.278 HD
BRANCH  15  18
HETATM   18  C   UNL     1      41.827 -17.650   5.196  1.00  0.00     0.272 C 
BRANCH  18  19
HETATM   19  C   UNL     1      42.762 -16.556   5.631  1.00  0.00    -0.033 A 
HETATM   20  C   UNL     1      43.872 -16.853   6.428  1.00  0.00     0.011 A 
HETATM   21  C   UNL     1      44.604 -15.827   7.035  1.00  0.00     0.030 A 
HETATM   22  C   UNL     1      44.252 -14.481   6.874  1.00  0.00     0.037 A 
HETATM   23  C   UNL     1      43.182 -14.192   6.016  1.00  0.00     0.030 A 
HETATM   24  C   UNL     1      42.439 -15.213   5.407  1.00  0.00     0.011 A 
BRANCH  22  25
HETATM   25  N   UNL     1      44.925 -13.443   7.573  1.00  0.00    -0.318 N 
HETATM   26  C   UNL     1      46.179 -12.902   7.236  1.00  0.00     0.224 C 
HETATM   27  O   UNL     1      46.894 -13.162   6.281  1.00  0.00    -0.273 OA
HETATM   28  C   UNL     1      46.592 -11.961   8.344  1.00  0.00     0.105 C 
HETATM   29  C   UNL     1      45.290 -11.687   9.072  1.00  0.00     0.029 C 
HETATM   30  C   UNL     1      44.500 -12.961   8.867  1.00  0.00     0.133 C 
ENDBRANCH  22  25
ENDBRANCH  18  19
ENDBRANCH  15  18
ENDBRANCH   1  15
BRANCH   1  31
HETATM   31  C   UNL     1      43.636 -19.317   2.963  1.00  0.00    -0.019 A 
HETATM   32  C   UNL     1      43.216 -20.147   1.909  1.00  0.00     0.010 A 
HETATM   33  C   UNL     1      43.614 -21.484   1.851  1.00  0.00     0.001 A 
HETATM   34  C   UNL     1      44.434 -22.009   2.844  1.00  0.00     0.000 A 
HETATM   35  C   UNL     1      44.852 -21.204   3.901  1.00  0.00     0.001 A 
HETATM   36  C   UNL     1      44.455 -19.867   3.966  1.00  0.00     0.010 A 
ENDBRANCH   1  31
TORSDOF 8
ENDMDL
MODEL 2
REMARK VINA RESULT:      -8.6      3.041      6.306
REMARK  8 active torsions:
REMARK  status: ('A' for Active; 'I' for Inactive)
REMARK    1  A    between atoms: C_4  and  N_5 
REMARK       I    between atoms: N_5  and  C_6 
REMARK    2  A    between atoms: C_6  and  C_7 
REMARK    3  A    between atoms: C_7  and  N_8 
REMARK    4  A    between atoms: C_7  and  C_24 
REMARK    5  A    between atoms: N_8  and  C_11 
REMARK    6  A    between atoms: C_11  and  C_12 
REMARK    7  A    between atoms: C_15  and  N_16 
REMARK    8  A    between atoms: C_31  and  O_32 
ROOT
HETATM    1  C   UNL     1      42.453 -15.762   3.711  1.00  0.00     0.310 C 
ENDROOT
BRANCH   1   2
HETATM    2  C   UNL     1      42.678 -17.235   3.282  1.00  0.00     0.257 C 
HETATM    3  N   UNL     1      43.843 -17.851   3.659  1.00  0.00    -0.323 N 
HETATM    4  H   UNL     1      44.586 -17.321   4.114  1.00  0.00     0.169 HD
HETATM    5  O   UNL     1      41.702 -17.788   2.760  1.00  0.00    -0.270 OA
BRANCH   3   6
HETATM    6  C   UNL     1      44.135 -19.238   3.617  1.00  0.00     0.069 A 
HETATM    7  C   UNL     1      44.065 -20.015   2.457  1.00  0.00     0.039 A 
HETATM    8  C   UNL     1      44.316 -21.393   2.506  1.00  0.00    -0.060 A 
HETATM    9  C   UNL     1      44.268 -22.224   1.256  1.00  0.00     0.048 C 
HETATM   10  C   UNL     1      44.662 -21.981   3.726  1.00  0.00     0.009 A 
HETATM   11  C   UNL     1      44.746 -21.212   4.889  1.00  0.00     0.039 A 
HETATM   12  C   UNL     1      44.487 -19.840   4.842  1.00  0.00     0.095 A 
BRANCH  12  13
HETATM   13  O   UNL     1      44.516 -18.991   5.925  1.00  0.00    -0.354 OA
HETATM   14  C   UNL     1      43.943 -19.478   7.135  1.00  0.00     0.210 C 
ENDBRANCH  12  13
ENDBRANCH   3   6
ENDBRANCH   1   2
BRANCH   1  15
HETATM   15  N   UNL     1      40.957 -15.579   3.737  1.00  0.00    -0.054 N 
HETATM   16  H   UNL     1      40.582 -16.392   3.216  1.00  0.00     0.278 HD
HETATM   17  H   UNL     1      40.601 -15.725   4.687  1.00  0.00     0.278 HD
BRANCH  15  18
HETATM   18  C   UNL     1      40.368 -14.348   3.165  1.00  0.00     0.272 C 
BRANCH  18  19
HETATM   19  C   UNL     1      40.294 -13.328   4.268  1.00  0.00    -0.033 A 
HETATM   20  C   UNL     1      40.992 -12.122   4.161  1.00  0.00     0.011 A 
HETATM   21  C   UNL     1      41.126 -11.280   5.271  1.00  0.00     0.030 A 
HETATM   22  C   UNL     1      40.579 -11.614   6.515  1.00  0.00     0.037 A 
HETATM   23  C   UNL     1      39.821 -12.791   6.593  1.00  0.00     0.030 A 
HETATM   24  C   UNL     1      39.684 -13.643   5.488  1.00  0.00     0.011 A 
BRANCH  22  25
HETATM   25  N   UNL     1      40.803 -10.817   7.670  1.00  0.00    -0.318 N 
HETATM   26  C   UNL     1      39.856  -9.983   8.291  1.00  0.00     0.224 C 
HETATM   27  O   UNL     1      38.678  -9.821   8.013  1.00  0.00    -0.273 OA
HETATM   28  C   UNL     1      40.568  -9.189   9.362  1.00  0.00     0.105 C 
HETATM   29  C   UNL     1      41.850  -9.969   9.580  1.00  0.00     0.029 C 
HETATM   30  C   UNL     1      42.118 -10.589   8.226  1.00  0.00     0.133 C 
ENDBRANCH  22  25
ENDBRANCH  18  19
ENDBRANCH  15  18
ENDBRANCH   1  15
BRANCH   1  31
HETATM   31  C   UNL     1      43.148 -15.306   4.973  1.00  0.00    -0.019 A 
HETATM   32  C   UNL     1      42.966 -16.041   6.159  1.00  0.00     0.010 A 
HETATM   33  C   UNL     1      43.573 -15.637   7.348  1.00  0.00     0.001 A 
HETATM   34  C   UNL     1      44.369 -14.497   7.371  1.00  0.00     0.000 A 
HETATM   35  C   UNL     1      44.553 -13.752   6.209  1.00  0.00     0.001 A 
HETATM   36  C   UNL     1      43.946 -14.149   5.015  1.00  0.00     0.010 A 
ENDBRANCH   1  31
TORSDOF 8
ENDMDL
MODEL 3
REMARK VINA RESULT:      -8.5      2.381      7.839
REMARK  8 active torsions:
REMARK  status: ('A' for Active; 'I' for Inactive)
REMARK    1  A    between atoms: C_4  and  N_5 
REMARK       I    between atoms: N_5  and  C_6 
REMARK    2  A    between atoms: C_6  and  C_7 
REMARK    3  A    between atoms: C_7  and  N_8 
REMARK    4  A    between atoms: C_7  and  C_24 
REMARK    5  A    between atoms: N_8  and  C_11 
REMARK    6  A    between atoms: C_11  and  C_12 
REMARK    7  A    between atoms: C_15  and  N_16 
REMARK    8  A    between atoms: C_31  and  O_32 
ROOT
HETATM    1  C   UNL     1      42.094 -15.799   4.191  1.00  0.00     0.310 C 
ENDROOT
BRANCH   1   2
HETATM    2  C   UNL     1      42.314 -17.264   3.734  1.00  0.00     0.257 C 
HETATM    3  N   UNL     1      43.584 -17.776   3.784  1.00  0.00    -0.323 N 
HETATM    4  H   UNL     1      44.377 -17.177   4.014  1.00  0.00     0.169 HD
HETATM    5  O   UNL     1      41.283 -17.907   3.503  1.00  0.00    -0.270 OA
BRANCH   3   6
HETATM    6  C   UNL     1      43.967 -19.137   3.679  1.00  0.00     0.069 A 
HETATM    7  C   UNL     1      43.850 -19.893   2.509  1.00  0.00     0.039 A 
HETATM    8  C   UNL     1      44.199 -21.251   2.499  1.00  0.00    -0.060 A 
HETATM    9  C   UNL     1      44.099 -22.056   1.235  1.00  0.00     0.048 C 
HETATM   10  C   UNL     1      44.690 -21.838   3.668  1.00  0.00     0.009 A 
HETATM   11  C   UNL     1      44.823 -21.090   4.840  1.00  0.00     0.039 A 
HETATM   12  C   UNL     1      44.466 -19.740   4.853  1.00  0.00     0.095 A 
BRANCH  12  13
HETATM   13  O   UNL     1      44.530 -18.913   5.952  1.00  0.00    -0.354 OA
HETATM   14  C   UNL     1      43.895 -19.378   7.139  1.00  0.00     0.210 C 
ENDBRANCH  12  13
ENDBRANCH   3   6
ENDBRANCH   1   2
BRANCH   1  15
HETATM   15  N   UNL     1      40.617 -15.688   4.474  1.00  0.00    -0.054 N 
HETATM   16  H   UNL     1      40.168 -16.322   3.788  1.00  0.00     0.278 HD
HETATM   17  H   UNL     1      40.398 -16.126   5.375  1.00  0.00     0.278 HD
BRANCH  15  18
HETATM   18  C   UNL     1      39.960 -14.366   4.387  1.00  0.00     0.272 C 
BRANCH  18  19
HETATM   19  C   UNL     1      39.874 -13.999   2.931  1.00  0.00    -0.033 A 
HETATM   20  C   UNL     1      39.043 -14.722   2.070  1.00  0.00     0.011 A 
HETATM   21  C   UNL     1      39.137 -14.550   0.684  1.00  0.00     0.030 A 
HETATM   22  C   UNL     1      40.061 -13.665   0.116  1.00  0.00     0.037 A 
HETATM   23  C   UNL     1      40.839 -12.894   0.991  1.00  0.00     0.030 A 
HETATM   24  C   UNL     1      40.756 -13.062   2.380  1.00  0.00     0.011 A 
BRANCH  22  25
HETATM   25  N   UNL     1      40.234 -13.566  -1.291  1.00  0.00    -0.318 N 
HETATM   26  C   UNL     1      40.748 -14.571  -2.130  1.00  0.00     0.224 C 
HETATM   27  O   UNL     1      41.085 -15.710  -1.845  1.00  0.00    -0.273 OA
HETATM   28  C   UNL     1      40.930 -13.978  -3.508  1.00  0.00     0.105 C 
HETATM   29  C   UNL     1      40.065 -12.733  -3.468  1.00  0.00     0.029 C 
HETATM   30  C   UNL     1      40.112 -12.320  -2.013  1.00  0.00     0.133 C 
ENDBRANCH  22  25
ENDBRANCH  18  19
ENDBRANCH  15  18
ENDBRANCH   1  15
BRANCH   1  31
HETATM   31  C   UNL     1      42.972 -15.296   5.313  1.00  0.00    -0.019 A 
HETATM   32  C   UNL     1      43.796 -14.179   5.090  1.00  0.00     0.010 A 
HETATM   33  C   UNL     1      44.637 -13.700   6.095  1.00  0.00     0.001 A 
HETATM   34  C   UNL     1      44.668 -14.330   7.335  1.00  0.00     0.000 A 
HETATM   35  C   UNL     1      43.866 -15.444   7.571  1.00  0.00     0.001 A 
HETATM   36  C   UNL     1      43.025 -15.930   6.568  1.00  0.00     0.010 A 
ENDBRANCH   1  31
TORSDOF 8
ENDMDL
MODEL 4
REMARK VINA RESULT:      -8.4      3.776      6.186
REMARK  8 active torsions:
REMARK  status: ('A' for Active; 'I' for Inactive)
REMARK    1  A    between atoms: C_4  and  N_5 
REMARK       I    between atoms: N_5  and  C_6 
REMARK    2  A    between atoms: C_6  and  C_7 
REMARK    3  A    between atoms: C_7  and  N_8 
REMARK    4  A    between atoms: C_7  and  C_24 
REMARK    5  A    between atoms: N_8  and  C_11 
REMARK    6  A    between atoms: C_11  and  C_12 
REMARK    7  A    between atoms: C_15  and  N_16 
REMARK    8  A    between atoms: C_31  and  O_32 
ROOT
HETATM    1  C   UNL     1      44.317 -14.487   6.624  1.00  0.00     0.310 C 
ENDROOT
BRANCH   1   2
HETATM    2  C   UNL     1      43.299 -13.955   5.582  1.00  0.00     0.257 C 
HETATM    3  N   UNL     1      41.980 -13.876   5.943  1.00  0.00    -0.323 N 
HETATM    4  H   UNL     1      41.662 -14.258   6.834  1.00  0.00     0.169 HD
HETATM    5  O   UNL     1      43.796 -13.494   4.546  1.00  0.00    -0.270 OA
BRANCH   3   6
HETATM    6  C   UNL     1      40.943 -13.183   5.268  1.00  0.00     0.069 A 
HETATM    7  C   UNL     1      40.444 -13.553   4.016  1.00  0.00     0.039 A 
HETATM    8  C   UNL     1      39.455 -12.784   3.388  1.00  0.00    -0.060 A 
HETATM    9  C   UNL     1      38.898 -13.196   2.055  1.00  0.00     0.048 C 
HETATM   10  C   UNL     1      38.953 -11.653   4.037  1.00  0.00     0.009 A 
HETATM   11  C   UNL     1      39.437 -11.280   5.294  1.00  0.00     0.039 A 
HETATM   12  C   UNL     1      40.429 -12.041   5.916  1.00  0.00     0.095 A 
BRANCH  12  13
HETATM   13  O   UNL     1      40.996 -11.757   7.138  1.00  0.00    -0.354 OA
HETATM   14  C   UNL     1      41.641 -10.493   7.265  1.00  0.00     0.210 C 
ENDBRANCH  12  13
ENDBRANCH   3   6
ENDBRANCH   1   2
BRANCH   1  15
HETATM   15  N   UNL     1      44.146 -13.604   7.834  1.00  0.00    -0.054 N 
HETATM   16  H   UNL     1      43.376 -12.958   7.583  1.00  0.00     0.278 HD
HETATM   17  H   UNL     1      43.753 -14.145   8.612  1.00  0.00     0.278 HD
BRANCH  15  18
HETATM   18  C   UNL     1      45.292 -12.800   8.312  1.00  0.00     0.272 C 
BRANCH  18  19
HETATM   19  C   UNL     1      44.881 -12.151   9.605  1.00  0.00    -0.033 A 
HETATM   20  C   UNL     1      44.650 -12.931  10.742  1.00  0.00     0.011 A 
HETATM   21  C   UNL     1      44.039 -12.374  11.872  1.00  0.00     0.030 A 
HETATM   22  C   UNL     1      43.635 -11.035  11.901  1.00  0.00     0.037 A 
HETATM   23  C   UNL     1      43.935 -10.244  10.782  1.00  0.00     0.030 A 
HETATM   24  C   UNL     1      44.543 -10.794   9.645  1.00  0.00     0.011 A 
BRANCH  22  25
HETATM   25  N   UNL     1      42.919 -10.493  13.002  1.00  0.00    -0.318 N 
HETATM   26  C   UNL     1      41.588 -10.791  13.346  1.00  0.00     0.224 C 
HETATM   27  O   UNL     1      40.821 -11.585  12.824  1.00  0.00    -0.273 OA
HETATM   28  C   UNL     1      41.177  -9.859  14.463  1.00  0.00     0.105 C 
HETATM   29  C   UNL     1      42.502  -9.355  15.001  1.00  0.00     0.029 C 
HETATM   30  C   UNL     1      43.406  -9.382  13.788  1.00  0.00     0.133 C 
ENDBRANCH  22  25
ENDBRANCH  18  19
ENDBRANCH  15  18
ENDBRANCH   1  15
BRANCH   1  31
HETATM   31  C   UNL     1      44.265 -15.966   6.932  1.00  0.00    -0.019 A 
HETATM   32  C   UNL     1      43.516 -16.409   8.037  1.00  0.00     0.010 A 
HETATM   33  C   UNL     1      43.464 -17.764   8.365  1.00  0.00     0.001 A 
HETATM   34  C   UNL     1      44.159 -18.693   7.598  1.00  0.00     0.000 A 
HETATM   35  C   UNL     1      44.914 -18.271   6.506  1.00  0.00     0.001 A 
HETATM   36  C   UNL     1      44.972 -16.916   6.174  1.00  0.00     0.010 A 
ENDBRANCH   1  31
TORSDOF 8
ENDMDL
MODEL 5
REMARK VINA RESULT:      -8.4      3.055      5.745
REMARK  8 active torsions:
REMARK  status: ('A' for Active; 'I' for Inactive)
REMARK    1  A    between atoms: C_4  and  N_5 
REMARK       I    between atoms: N_5  and  C_6 
REMARK    2  A    between atoms: C_6  and  C_7 
REMARK    3  A    between atoms: C_7  and  N_8 
REMARK    4  A    between atoms: C_7  and  C_24 
REMARK    5  A    between atoms: N_8  and  C_11 
REMARK    6  A    between atoms: C_11  and  C_12 
REMARK    7  A    between atoms: C_15  and  N_16 
REMARK    8  A    between atoms: C_31  and  O_32 
ROOT
HETATM    1  C   UNL     1      41.923 -14.358   3.178  1.00  0.00     0.310 C 
ENDROOT
BRANCH   1   2
HETATM    2  C   UNL     1      41.025 -13.403   2.350  1.00  0.00     0.257 C 
HETATM    3  N   UNL     1      39.665 -13.522   2.471  1.00  0.00    -0.323 N 
HETATM    4  H   UNL     1      39.257 -14.288   3.007  1.00  0.00     0.169 HD
HETATM    5  O   UNL     1      41.623 -12.496   1.758  1.00  0.00    -0.270 OA
BRANCH   3   6
HETATM    6  C   UNL     1      38.679 -12.602   2.033  1.00  0.00     0.069 A 
HETATM    7  C   UNL     1      38.340 -11.434   2.723  1.00  0.00     0.039 A 
HETATM    8  C   UNL     1      37.315 -10.601   2.255  1.00  0.00    -0.060 A 
HETATM    9  C   UNL     1      36.969  -9.332   2.981  1.00  0.00     0.048 C 
HETATM   10  C   UNL     1      36.648 -10.937   1.074  1.00  0.00     0.009 A 
HETATM   11  C   UNL     1      36.985 -12.096   0.370  1.00  0.00     0.039 A 
HETATM   12  C   UNL     1      38.001 -12.931   0.841  1.00  0.00     0.095 A 
BRANCH  12  13
HETATM   13  O   UNL     1      38.401 -14.106   0.246  1.00  0.00    -0.354 OA
HETATM   14  C   UNL     1      38.995 -13.999  -1.044  1.00  0.00     0.210 C 
ENDBRANCH  12  13
ENDBRANCH   3   6
ENDBRANCH   1   2
BRANCH   1  15
HETATM   15  N   UNL     1      41.203 -14.544   4.490  1.00  0.00    -0.054 N 
HETATM   16  H   UNL     1      40.592 -13.712   4.576  1.00  0.00     0.278 HD
HETATM   17  H   UNL     1      40.535 -15.319   4.418  1.00  0.00     0.278 HD
BRANCH  15  18
HETATM   18  C   UNL     1      41.991 -14.676   5.735  1.00  0.00     0.272 C 
BRANCH  18  19
HETATM   19  C   UNL     1      42.494 -16.091   5.804  1.00  0.00    -0.033 A 
HETATM   20  C   UNL     1      43.863 -16.347   5.932  1.00  0.00     0.011 A 
HETATM   21  C   UNL     1      44.362 -17.642   5.754  1.00  0.00     0.030 A 
HETATM   22  C   UNL     1      43.520 -18.715   5.438  1.00  0.00     0.037 A 
HETATM   23  C   UNL     1      42.142 -18.460   5.382  1.00  0.00     0.030 A 
HETATM   24  C   UNL     1      41.633 -17.166   5.554  1.00  0.00     0.011 A 
BRANCH  22  25
HETATM   25  N   UNL     1      44.032 -20.009   5.151  1.00  0.00    -0.318 N 
HETATM   26  C   UNL     1      44.073 -21.095   6.044  1.00  0.00     0.224 C 
HETATM   27  O   UNL     1      43.645 -21.165   7.185  1.00  0.00    -0.273 OA
HETATM   28  C   UNL     1      44.860 -22.206   5.388  1.00  0.00     0.105 C 
HETATM   29  C   UNL     1      44.852 -21.820   3.922  1.00  0.00     0.029 C 
HETATM   30  C   UNL     1      44.790 -20.309   3.958  1.00  0.00     0.133 C 
ENDBRANCH  22  25
ENDBRANCH  18  19
ENDBRANCH  15  18
ENDBRANCH   1  15
BRANCH   1  31
HETATM   31  C   UNL     1      42.332 -15.653   2.515  1.00  0.00    -0.019 A 
HETATM   32  C   UNL     1      41.335 -16.536   2.063  1.00  0.00     0.010 A 
HETATM   33  C   UNL     1      41.675 -17.751   1.466  1.00  0.00     0.001 A 
HETATM   34  C   UNL     1      43.012 -18.101   1.314  1.00  0.00     0.000 A 
HETATM   35  C   UNL     1      44.013 -17.243   1.764  1.00  0.00     0.001 A 
HETATM   36  C   UNL     1      43.679 -16.027   2.365  1.00  0.00     0.010 A 
ENDBRANCH   1  31
TORSDOF 8
ENDMDL
MODEL 6
REMARK VINA RESULT:      -8.4      2.965      6.747
REMARK  8 active torsions:
REMARK  status: ('A' for Active; 'I' for Inactive)
REMARK    1  A    between atoms: C_4  and  N_5 
REMARK       I    between atoms: N_5  and  C_6 
REMARK    2  A    between atoms: C_6  and  C_7 
REMARK    3  A    between atoms: C_7  and  N_8 
REMARK    4  A    between atoms: C_7  and  C_24 
REMARK    5  A    between atoms: N_8  and  C_11 
REMARK    6  A    between atoms: C_11  and  C_12 
REMARK    7  A    between atoms: C_15  and  N_16 
REMARK    8  A    between atoms: C_31  and  O_32 
ROOT
HETATM    1  C   UNL     1      41.369 -15.219   3.438  1.00  0.00     0.310 C 
ENDROOT
BRANCH   1   2
HETATM    2  C   UNL     1      40.385 -14.061   3.742  1.00  0.00     0.257 C 
HETATM    3  N   UNL     1      40.324 -13.013   2.861  1.00  0.00    -0.323 N 
HETATM    4  H   UNL     1      40.983 -12.947   2.086  1.00  0.00     0.169 HD
HETATM    5  O   UNL     1      39.615 -14.256   4.690  1.00  0.00    -0.270 OA
BRANCH   3   6
HETATM    6  C   UNL     1      39.329 -12.004   2.793  1.00  0.00     0.069 A 
HETATM    7  C   UNL     1      39.210 -10.963   3.719  1.00  0.00     0.039 A 
HETATM    8  C   UNL     1      38.165 -10.034   3.615  1.00  0.00    -0.060 A 
HETATM    9  C   UNL     1      38.052  -8.899   4.592  1.00  0.00     0.048 C 
HETATM   10  C   UNL     1      37.255 -10.144   2.560  1.00  0.00     0.009 A 
HETATM   11  C   UNL     1      37.371 -11.174   1.623  1.00  0.00     0.039 A 
HETATM   12  C   UNL     1      38.407 -12.105   1.732  1.00  0.00     0.095 A 
BRANCH  12  13
HETATM   13  O   UNL     1      38.605 -13.172   0.884  1.00  0.00    -0.354 OA
HETATM   14  C   UNL     1      37.573 -14.153   0.839  1.00  0.00     0.210 C 
ENDBRANCH  12  13
ENDBRANCH   3   6
ENDBRANCH   1   2
BRANCH   1  15
HETATM   15  N   UNL     1      42.141 -14.778   2.220  1.00  0.00    -0.054 N 
HETATM   16  H   UNL     1      41.761 -13.841   1.992  1.00  0.00     0.278 HD
HETATM   17  H   UNL     1      43.115 -14.580   2.474  1.00  0.00     0.278 HD
BRANCH  15  18
HETATM   18  C   UNL     1      42.101 -15.608   0.996  1.00  0.00     0.272 C 
BRANCH  18  19
HETATM   19  C   UNL     1      42.696 -16.946   1.338  1.00  0.00    -0.033 A 
HETATM   20  C   UNL     1      41.872 -18.065   1.486  1.00  0.00     0.011 A 
HETATM   21  C   UNL     1      42.378 -19.249   2.036  1.00  0.00     0.030 A 
HETATM   22  C   UNL     1      43.709 -19.351   2.459  1.00  0.00     0.037 A 
HETATM   23  C   UNL     1      44.543 -18.246   2.240  1.00  0.00     0.030 A 
HETATM   24  C   UNL     1      44.045 -17.054   1.694  1.00  0.00     0.011 A 
BRANCH  22  25
HETATM   25  N   UNL     1      44.198 -20.513   3.115  1.00  0.00    -0.318 N 
HETATM   26  C   UNL     1      44.299 -21.797   2.549  1.00  0.00     0.224 C 
HETATM   27  O   UNL     1      44.049 -22.154   1.408  1.00  0.00    -0.273 OA
HETATM   28  C   UNL     1      44.692 -22.758   3.648  1.00  0.00     0.105 C 
HETATM   29  C   UNL     1      45.233 -21.846   4.731  1.00  0.00     0.029 C 
HETATM   30  C   UNL     1      44.449 -20.567   4.537  1.00  0.00     0.133 C 
ENDBRANCH  22  25
ENDBRANCH  18  19
ENDBRANCH  15  18
ENDBRANCH   1  15
BRANCH   1  31
HETATM   31  C   UNL     1      42.242 -15.689   4.579  1.00  0.00    -0.019 A 
HETATM   32  C   UNL     1      43.117 -14.775   5.193  1.00  0.00     0.010 A 
HETATM   33  C   UNL     1      43.953 -15.179   6.235  1.00  0.00     0.001 A 
HETATM   34  C   UNL     1      43.929 -16.498   6.676  1.00  0.00     0.000 A 
HETATM   35  C   UNL     1      43.076 -17.419   6.073  1.00  0.00     0.001 A 
HETATM   36  C   UNL     1      42.238 -17.022   5.028  1.00  0.00     0.010 A 
ENDBRANCH   1  31
TORSDOF 8
ENDMDL
MODEL 7
REMARK VINA RESULT:      -8.3      2.908      5.474
REMARK  8 active torsions:
REMARK  status: ('A' for Active; 'I' for Inactive)
REMARK    1  A    between atoms: C_4  and  N_5 
REMARK       I    between atoms: N_5  and  C_6 
REMARK    2  A    between atoms: C_6  and  C_7 
REMARK    3  A    between atoms: C_7  and  N_8 
REMARK    4  A    between atoms: C_7  and  C_24 
REMARK    5  A    between atoms: N_8  and  C_11 
REMARK    6  A    between atoms: C_11  and  C_12 
REMARK    7  A    between atoms: C_15  and  N_16 
REMARK    8  A    between atoms: C_31  and  O_32 
ROOT
HETATM    1  C   UNL     1      42.152 -14.123   3.199  1.00  0.00     0.310 C 
ENDROOT
BRANCH   1   2
HETATM    2  C   UNL     1      41.596 -12.948   2.355  1.00  0.00     0.257 C 
HETATM    3  N   UNL     1      42.375 -12.449   1.344  1.00  0.00    -0.323 N 
HETATM    4  H   UNL     1      43.335 -12.772   1.221  1.00  0.00     0.169 HD
HETATM    5  O   UNL     1      40.413 -12.655   2.570  1.00  0.00    -0.270 OA
BRANCH   3   6
HETATM    6  C   UNL     1      41.973 -11.584   0.295  1.00  0.00     0.069 A 
HETATM    7  C   UNL     1      41.722 -10.219   0.463  1.00  0.00     0.039 A 
HETATM    8  C   UNL     1      41.274  -9.439  -0.612  1.00  0.00    -0.060 A 
HETATM    9  C   UNL     1      41.030  -7.967  -0.440  1.00  0.00     0.048 C 
HETATM   10  C   UNL     1      41.102 -10.036  -1.864  1.00  0.00     0.009 A 
HETATM   11  C   UNL     1      41.360 -11.397  -2.046  1.00  0.00     0.039 A 
HETATM   12  C   UNL     1      41.798 -12.176  -0.973  1.00  0.00     0.095 A 
BRANCH  12  13
HETATM   13  O   UNL     1      42.059 -13.526  -1.029  1.00  0.00    -0.354 OA
HETATM   14  C   UNL     1      41.076 -14.342  -1.659  1.00  0.00     0.210 C 
ENDBRANCH  12  13
ENDBRANCH   3   6
ENDBRANCH   1   2
BRANCH   1  15
HETATM   15  N   UNL     1      41.189 -14.277   4.350  1.00  0.00    -0.054 N 
HETATM   16  H   UNL     1      40.633 -13.403   4.347  1.00  0.00     0.278 HD
HETATM   17  H   UNL     1      40.493 -14.999   4.132  1.00  0.00     0.278 HD
BRANCH  15  18
HETATM   18  C   UNL     1      41.719 -14.489   5.715  1.00  0.00     0.272 C 
BRANCH  18  19
HETATM   19  C   UNL     1      42.233 -15.900   5.786  1.00  0.00    -0.033 A 
HETATM   20  C   UNL     1      43.578 -16.146   6.074  1.00  0.00     0.011 A 
HETATM   21  C   UNL     1      44.117 -17.427   5.906  1.00  0.00     0.030 A 
HETATM   22  C   UNL     1      43.339 -18.494   5.442  1.00  0.00     0.037 A 
HETATM   23  C   UNL     1      41.975 -18.252   5.224  1.00  0.00     0.030 A 
HETATM   24  C   UNL     1      41.427 -16.972   5.385  1.00  0.00     0.011 A 
BRANCH  22  25
HETATM   25  N   UNL     1      43.904 -19.769   5.167  1.00  0.00    -0.318 N 
HETATM   26  C   UNL     1      44.015 -20.834   6.079  1.00  0.00     0.224 C 
HETATM   27  O   UNL     1      43.617 -20.901   7.232  1.00  0.00    -0.273 OA
HETATM   28  C   UNL     1      44.838 -21.920   5.426  1.00  0.00     0.105 C 
HETATM   29  C   UNL     1      44.778 -21.564   3.953  1.00  0.00     0.029 C 
HETATM   30  C   UNL     1      44.647 -20.057   3.962  1.00  0.00     0.133 C 
ENDBRANCH  22  25
ENDBRANCH  18  19
ENDBRANCH  15  18
ENDBRANCH   1  15
BRANCH   1  31
HETATM   31  C   UNL     1      42.440 -15.413   2.465  1.00  0.00    -0.019 A 
HETATM   32  C   UNL     1      43.755 -15.911   2.448  1.00  0.00     0.010 A 
HETATM   33  C   UNL     1      44.063 -17.087   1.762  1.00  0.00     0.001 A 
HETATM   34  C   UNL     1      43.065 -17.778   1.084  1.00  0.00     0.000 A 
HETATM   35  C   UNL     1      41.759 -17.294   1.082  1.00  0.00     0.001 A 
HETATM   36  C   UNL     1      41.445 -16.117   1.764  1.00  0.00     0.010 A 
ENDBRANCH   1  31
TORSDOF 8
ENDMDL
MODEL 8
REMARK VINA RESULT:      -8.3      2.990      6.781
REMARK  8 active torsions:
REMARK  status: ('A' for Active; 'I' for Inactive)
REMARK    1  A    between atoms: C_4  and  N_5 
REMARK       I    between atoms: N_5  and  C_6 
REMARK    2  A    between atoms: C_6  and  C_7 
REMARK    3  A    between atoms: C_7  and  N_8 
REMARK    4  A    between atoms: C_7  and  C_24 
REMARK    5  A    between atoms: N_8  and  C_11 
REMARK    6  A    between atoms: C_11  and  C_12 
REMARK    7  A    between atoms: C_15  and  N_16 
REMARK    8  A    between atoms: C_31  and  O_32 
ROOT
HETATM    1  C   UNL     1      41.498 -13.739   1.703  1.00  0.00     0.310 C 
ENDROOT
BRANCH   1   2
HETATM    2  C   UNL     1      41.819 -12.362   1.066  1.00  0.00     0.257 C 
HETATM    3  N   UNL     1      42.421 -12.341  -0.165  1.00  0.00    -0.323 N 
HETATM    4  H   UNL     1      42.745 -13.206  -0.600  1.00  0.00     0.169 HD
HETATM    5  O   UNL     1      41.358 -11.382   1.664  1.00  0.00    -0.270 OA
BRANCH   3   6
HETATM    6  C   UNL     1      42.555 -11.231  -1.037  1.00  0.00     0.069 A 
HETATM    7  C   UNL     1      43.340 -10.109  -0.757  1.00  0.00     0.039 A 
HETATM    8  C   UNL     1      43.378  -9.026  -1.647  1.00  0.00    -0.060 A 
HETATM    9  C   UNL     1      44.242  -7.831  -1.360  1.00  0.00     0.048 C 
HETATM   10  C   UNL     1      42.641  -9.089  -2.832  1.00  0.00     0.009 A 
HETATM   11  C   UNL     1      41.862 -10.211  -3.128  1.00  0.00     0.039 A 
HETATM   12  C   UNL     1      41.816 -11.286  -2.237  1.00  0.00     0.095 A 
BRANCH  12  13
HETATM   13  O   UNL     1      41.067 -12.428  -2.412  1.00  0.00    -0.354 OA
HETATM   14  C   UNL     1      41.456 -13.291  -3.476  1.00  0.00     0.210 C 
ENDBRANCH  12  13
ENDBRANCH   3   6
ENDBRANCH   1   2
BRANCH   1  15
HETATM   15  N   UNL     1      42.096 -14.760   0.769  1.00  0.00    -0.054 N 
HETATM   16  H   UNL     1      42.076 -14.308  -0.164  1.00  0.00     0.278 HD
HETATM   17  H   UNL     1      43.099 -14.864   0.957  1.00  0.00     0.278 HD
BRANCH  15  18
HETATM   18  C   UNL     1      41.466 -16.094   0.654  1.00  0.00     0.272 C 
BRANCH  18  19
HETATM   19  C   UNL     1      42.296 -17.055   1.460  1.00  0.00    -0.033 A 
HETATM   20  C   UNL     1      43.409 -17.677   0.887  1.00  0.00     0.011 A 
HETATM   21  C   UNL     1      44.038 -18.744   1.538  1.00  0.00     0.030 A 
HETATM   22  C   UNL     1      43.577 -19.227   2.769  1.00  0.00     0.037 A 
HETATM   23  C   UNL     1      42.504 -18.550   3.367  1.00  0.00     0.030 A 
HETATM   24  C   UNL     1      41.865 -17.483   2.721  1.00  0.00     0.011 A 
BRANCH  22  25
HETATM   25  N   UNL     1      44.144 -20.376   3.382  1.00  0.00    -0.318 N 
HETATM   26  C   UNL     1      44.247 -21.653   2.801  1.00  0.00     0.224 C 
HETATM   27  O   UNL     1      43.935 -22.011   1.676  1.00  0.00    -0.273 OA
HETATM   28  C   UNL     1      44.740 -22.608   3.863  1.00  0.00     0.105 C 
HETATM   29  C   UNL     1      45.322 -21.687   4.918  1.00  0.00     0.029 C 
HETATM   30  C   UNL     1      44.488 -20.432   4.784  1.00  0.00     0.133 C 
ENDBRANCH  22  25
ENDBRANCH  18  19
ENDBRANCH  15  18
ENDBRANCH   1  15
BRANCH   1  31
HETATM   31  C   UNL     1      41.892 -13.928   3.150  1.00  0.00    -0.019 A 
HETATM   32  C   UNL     1      43.256 -13.916   3.495  1.00  0.00     0.010 A 
HETATM   33  C   UNL     1      43.658 -14.110   4.818  1.00  0.00     0.001 A 
HETATM   34  C   UNL     1      42.707 -14.319   5.811  1.00  0.00     0.000 A 
HETATM   35  C   UNL     1      41.353 -14.343   5.486  1.00  0.00     0.001 A 
HETATM   36  C   UNL     1      40.944 -14.152   4.164  1.00  0.00     0.010 A 
ENDBRANCH   1  31
TORSDOF 8
ENDMDL
MODEL 9
REMARK VINA RESULT:      -8.2      3.222      5.697
REMARK  8 active torsions:
REMARK  status: ('A' for Active; 'I' for Inactive)
REMARK    1  A    between atoms: C_4  and  N_5 
REMARK       I    between atoms: N_5  and  C_6 
REMARK    2  A    between atoms: C_6  and  C_7 
REMARK    3  A    between atoms: C_7  and  N_8 
REMARK    4  A    between atoms: C_7  and  C_24 
REMARK    5  A    between atoms: N_8  and  C_11 
REMARK    6  A    between atoms: C_11  and  C_12 
REMARK    7  A    between atoms: C_15  and  N_16 
REMARK    8  A    between atoms: C_31  and  O_32 
ROOT
HETATM    1  C   UNL     1      41.988 -14.246   3.361  1.00  0.00     0.310 C 
ENDROOT
BRANCH   1   2
HETATM    2  C   UNL     1      41.037 -13.275   2.615  1.00  0.00     0.257 C 
HETATM    3  N   UNL     1      39.726 -13.221   3.009  1.00  0.00    -0.323 N 
HETATM    4  H   UNL     1      39.364 -13.877   3.701  1.00  0.00     0.169 HD
HETATM    5  O   UNL     1      41.586 -12.508   1.815  1.00  0.00    -0.270 OA
BRANCH   3   6
HETATM    6  C   UNL     1      38.765 -12.236   2.664  1.00  0.00     0.069 A 
HETATM    7  C   UNL     1      37.933 -12.317   1.543  1.00  0.00     0.039 A 
HETATM    8  C   UNL     1      37.045 -11.276   1.238  1.00  0.00    -0.060 A 
HETATM    9  C   UNL     1      36.132 -11.374   0.050  1.00  0.00     0.048 C 
HETATM   10  C   UNL     1      36.982 -10.163   2.081  1.00  0.00     0.009 A 
HETATM   11  C   UNL     1      37.800 -10.077   3.210  1.00  0.00     0.039 A 
HETATM   12  C   UNL     1      38.692 -11.110   3.509  1.00  0.00     0.095 A 
BRANCH  12  13
HETATM   13  O   UNL     1      39.560 -11.123   4.577  1.00  0.00    -0.354 OA
HETATM   14  C   UNL     1      40.436 -10.006   4.702  1.00  0.00     0.210 C 
ENDBRANCH  12  13
ENDBRANCH   3   6
ENDBRANCH   1   2
BRANCH   1  15
HETATM   15  N   UNL     1      41.337 -14.493   4.698  1.00  0.00    -0.054 N 
HETATM   16  H   UNL     1      40.726 -13.671   4.850  1.00  0.00     0.278 HD
HETATM   17  H   UNL     1      40.671 -15.270   4.626  1.00  0.00     0.278 HD
BRANCH  15  18
HETATM   18  C   UNL     1      42.186 -14.671   5.896  1.00  0.00     0.272 C 
BRANCH  18  19
HETATM   19  C   UNL     1      42.623 -16.110   5.932  1.00  0.00    -0.033 A 
HETATM   20  C   UNL     1      43.957 -16.435   6.193  1.00  0.00     0.011 A 
HETATM   21  C   UNL     1      44.420 -17.740   5.991  1.00  0.00     0.030 A 
HETATM   22  C   UNL     1      43.578 -18.753   5.518  1.00  0.00     0.037 A 
HETATM   23  C   UNL     1      42.226 -18.432   5.327  1.00  0.00     0.030 A 
HETATM   24  C   UNL     1      41.753 -17.127   5.523  1.00  0.00     0.011 A 
BRANCH  22  25
HETATM   25  N   UNL     1      44.067 -20.051   5.209  1.00  0.00    -0.318 N 
HETATM   26  C   UNL     1      44.090 -21.152   6.084  1.00  0.00     0.224 C 
HETATM   27  O   UNL     1      43.662 -21.233   7.225  1.00  0.00    -0.273 OA
HETATM   28  C   UNL     1      44.857 -22.265   5.409  1.00  0.00     0.105 C 
HETATM   29  C   UNL     1      44.854 -21.855   3.949  1.00  0.00     0.029 C 
HETATM   30  C   UNL     1      44.818 -20.344   4.010  1.00  0.00     0.133 C 
ENDBRANCH  22  25
ENDBRANCH  18  19
ENDBRANCH  15  18
ENDBRANCH   1  15
BRANCH   1  31
HETATM   31  C   UNL     1      42.384 -15.508   2.630  1.00  0.00    -0.019 A 
HETATM   32  C   UNL     1      41.383 -16.304   2.046  1.00  0.00     0.010 A 
HETATM   33  C   UNL     1      41.709 -17.487   1.382  1.00  0.00     0.001 A 
HETATM   34  C   UNL     1      43.036 -17.893   1.294  1.00  0.00     0.000 A 
HETATM   35  C   UNL     1      44.041 -17.122   1.874  1.00  0.00     0.001 A 
HETATM   36  C   UNL     1      43.721 -15.938   2.542  1.00  0.00     0.010 A 
ENDBRANCH   1  31
TORSDOF 8
ENDMDL
MODEL 10
REMARK VINA RESULT:      -8.2      2.981      9.146
REMARK  8 active torsions:
REMARK  status: ('A' for Active; 'I' for Inactive)
REMARK    1  A    between atoms: C_4  and  N_5 
REMARK       I    between atoms: N_5  and  C_6 
REMARK    2  A    between atoms: C_6  and  C_7 
REMARK    3  A    between atoms: C_7  and  N_8 
REMARK    4  A    between atoms: C_7  and  C_24 
REMARK    5  A    between atoms: N_8  and  C_11 
REMARK    6  A    between atoms: C_11  and  C_12 
REMARK    7  A    between atoms: C_15  and  N_16 
REMARK    8  A    between atoms: C_31  and  O_32 
ROOT
HETATM    1  C   UNL     1      42.408 -15.381   2.237  1.00  0.00     0.310 C 
ENDROOT
BRANCH   1   2
HETATM    2  C   UNL     1      43.385 -16.564   2.458  1.00  0.00     0.257 C 
HETATM    3  N   UNL     1      42.995 -17.582   3.287  1.00  0.00    -0.323 N 
HETATM    4  H   UNL     1      42.132 -17.511   3.827  1.00  0.00     0.169 HD
HETATM    5  O   UNL     1      44.389 -16.563   1.734  1.00  0.00    -0.270 OA
BRANCH   3   6
HETATM    6  C   UNL     1      43.593 -18.861   3.418  1.00  0.00     0.069 A 
HETATM    7  C   UNL     1      43.629 -19.814   2.395  1.00  0.00     0.039 A 
HETATM    8  C   UNL     1      44.191 -21.079   2.619  1.00  0.00    -0.060 A 
HETATM    9  C   UNL     1      44.255 -22.093   1.513  1.00  0.00     0.048 C 
HETATM   10  C   UNL     1      44.738 -21.371   3.871  1.00  0.00     0.009 A 
HETATM   11  C   UNL     1      44.718 -20.423   4.897  1.00  0.00     0.039 A 
HETATM   12  C   UNL     1      44.150 -19.166   4.677  1.00  0.00     0.095 A 
BRANCH  12  13
HETATM   13  O   UNL     1      44.052 -18.166   5.618  1.00  0.00    -0.354 OA
HETATM   14  C   UNL     1      45.182 -17.970   6.463  1.00  0.00     0.210 C 
ENDBRANCH  12  13
ENDBRANCH   3   6
ENDBRANCH   1   2
BRANCH   1  15
HETATM   15  N   UNL     1      41.333 -15.916   1.325  1.00  0.00    -0.054 N 
HETATM   16  H   UNL     1      41.015 -16.792   1.778  1.00  0.00     0.278 HD
HETATM   17  H   UNL     1      40.504 -15.315   1.369  1.00  0.00     0.278 HD
BRANCH  15  18
HETATM   18  C   UNL     1      41.663 -16.214  -0.086  1.00  0.00     0.272 C 
BRANCH  18  19
HETATM   19  C   UNL     1      40.851 -15.284  -0.945  1.00  0.00    -0.033 A 
HETATM   20  C   UNL     1      39.969 -14.372  -0.358  1.00  0.00     0.011 A 
HETATM   21  C   UNL     1      39.040 -13.678  -1.142  1.00  0.00     0.030 A 
HETATM   22  C   UNL     1      38.956 -13.876  -2.525  1.00  0.00     0.037 A 
HETATM   23  C   UNL     1      39.891 -14.740  -3.113  1.00  0.00     0.030 A 
HETATM   24  C   UNL     1      40.823 -15.442  -2.335  1.00  0.00     0.011 A 
BRANCH  22  25
HETATM   25  N   UNL     1      37.946 -13.257  -3.309  1.00  0.00    -0.318 N 
HETATM   26  C   UNL     1      36.937 -13.924  -4.029  1.00  0.00     0.224 C 
HETATM   27  O   UNL     1      36.696 -15.120  -4.082  1.00  0.00    -0.273 OA
HETATM   28  C   UNL     1      36.204 -12.897  -4.860  1.00  0.00     0.105 C 
HETATM   29  C   UNL     1      36.583 -11.583  -4.205  1.00  0.00     0.029 C 
HETATM   30  C   UNL     1      37.964 -11.853  -3.651  1.00  0.00     0.133 C 
ENDBRANCH  22  25
ENDBRANCH  18  19
ENDBRANCH  15  18
ENDBRANCH   1  15
BRANCH   1  31
HETATM   31  C   UNL     1      41.876 -14.697   3.476  1.00  0.00    -0.019 A 
HETATM   32  C   UNL     1      40.533 -14.895   3.844  1.00  0.00     0.010 A 
HETATM   33  C   UNL     1      40.001 -14.263   4.968  1.00  0.00     0.001 A 
HETATM   34  C   UNL     1      40.799 -13.424   5.738  1.00  0.00     0.000 A 
HETATM   35  C   UNL     1      42.129 -13.208   5.383  1.00  0.00     0.001 A 
HETATM   36  C   UNL     1      42.667 -13.836   4.257  1.00  0.00     0.010 A 
ENDBRANCH   1  31
TORSDOF 8
ENDMDL
