MODEL 1
REMARK VINA RESULT:      -8.3      0.000      0.000
REMARK  9 active torsions:
REMARK  status: ('A' for Active; 'I' for Inactive)
REMARK    1  A    between atoms: O_2  and  C_3 
REMARK    2  A    between atoms: C_9  and  C_13 
REMARK       I    between atoms: C_13  and  N_15 
REMARK    3  A    between atoms: N_15  and  C_16 
REMARK    4  A    between atoms: C_19  and  C_27 
REMARK    5  A    between atoms: C_21  and  O_22 
REMARK    6  A    between atoms: O_22  and  C_23 
REMARK    7  A    between atoms: C_23  and  C_24 
REMARK    8  A    between atoms: C_24  and  C_25 
REMARK    9  A    between atoms: C_25  and  O_26 
ROOT
HETATM    1  C   UNL     1      43.407 -11.505   9.771  1.00  0.00     0.068 A 
HETATM    2  C   UNL     1      43.815 -11.909  11.044  1.00  0.00     0.033 A 
HETATM    3  C   UNL     1      43.556 -11.109  12.161  1.00  0.00     0.015 A 
HETATM    4  C   UNL     1      42.884  -9.891  12.027  1.00  0.00    -0.020 A 
HETATM    5  C   UNL     1      42.482  -9.477  10.749  1.00  0.00     0.051 A 
HETATM    6  C   UNL     1      42.740 -10.272   9.622  1.00  0.00     0.096 A 
ENDROOT
BRANCH   1   7
HETATM    7  N   UNL     1      43.614 -12.279   8.603  1.00  0.00    -0.324 N 
HETATM    8  C   UNL     1      44.768 -12.928   8.210  1.00  0.00     0.228 C 
HETATM    9  O   UNL     1      45.845 -12.899   8.798  1.00  0.00    -0.273 OA
HETATM   10  H   UNL     1      42.779 -12.381   8.035  1.00  0.00     0.169 HD
BRANCH   8  11
HETATM   11  C   UNL     1      44.595 -13.724   6.926  1.00  0.00     0.107 C 
HETATM   12  C   UNL     1      43.334 -13.281   6.193  1.00  0.00     0.190 C 
HETATM   13  O   UNL     1      43.217 -13.919   4.917  1.00  0.00    -0.350 OA
HETATM   14  C   UNL     1      43.345 -15.281   4.962  1.00  0.00     0.075 A 
HETATM   15  C   UNL     1      42.858 -15.977   3.860  1.00  0.00     0.040 A 
HETATM   16  C   UNL     1      43.956 -15.965   6.019  1.00  0.00    -0.021 A 
HETATM   17  C   UNL     1      42.955 -17.368   3.817  1.00  0.00     0.039 A 
HETATM   18  C   UNL     1      43.551 -18.070   4.866  1.00  0.00     0.068 A 
HETATM   19  C   UNL     1      44.044 -17.367   5.969  1.00  0.00     0.046 A 
HETATM   20  C   UNL     1      44.487 -15.219   7.214  1.00  0.00     0.058 C 
BRANCH  18  21
HETATM   21  O   UNL     1      43.582 -19.426   4.695  1.00  0.00    -0.356 OA
HETATM   22  C   UNL     1      44.750 -20.105   5.140  1.00  0.00     0.210 C 
ENDBRANCH  18  21
ENDBRANCH   8  11
ENDBRANCH   1   7
BRANCH   6  23
HETATM   23  O   UNL     1      42.387  -9.939   8.331  1.00  0.00    -0.349 OA
BRANCH  23  24
HETATM   24  C   UNL     1      41.003  -9.690   8.081  1.00  0.00     0.178 C 
BRANCH  24  25
HETATM   25  C   UNL     1      40.288 -11.019   7.867  1.00  0.00     0.053 C 
BRANCH  25  26
HETATM   26  C   UNL     1      39.377 -11.369   9.036  1.00  0.00     0.166 C 
BRANCH  26  27
HETATM   27  O   UNL     1      38.794 -12.649   8.823  1.00  0.00    -0.401 OA
HETATM   28  H   UNL     1      37.828 -12.541   8.833  1.00  0.00     0.209 HD
ENDBRANCH  26  27
ENDBRANCH  25  26
ENDBRANCH  24  25
ENDBRANCH  23  24
ENDBRANCH   6  23
BRANCH   4  29
HETATM   29  C   UNL     1      42.621  -9.076  13.203  1.00  0.00     0.010 A 
HETATM   30  C   UNL     1      42.174  -7.739  13.319  1.00  0.00     0.152 A 
HETATM   31  N   UNL     1      42.074  -7.335  14.588  1.00  0.00    -0.187 NA
HETATM   32  N   UNL     1      42.466  -8.407  15.291  1.00  0.00    -0.289 N 
HETATM   33  H   UNL     1      42.486  -8.337  16.303  1.00  0.00     0.188 HD
HETATM   34  C   UNL     1      42.803  -9.476  14.510  1.00  0.00     0.123 A 
ENDBRANCH   4  29
TORSDOF 9
ENDMDL
MODEL 2
REMARK VINA RESULT:      -8.2      3.148      9.304
REMARK  9 active torsions:
REMARK  status: ('A' for Active; 'I' for Inactive)
REMARK    1  A    between atoms: O_2  and  C_3 
REMARK    2  A    between atoms: C_9  and  C_13 
REMARK       I    between atoms: C_13  and  N_15 
REMARK    3  A    between atoms: N_15  and  C_16 
REMARK    4  A    between atoms: C_19  and  C_27 
REMARK    5  A    between atoms: C_21  and  O_22 
REMARK    6  A    between atoms: O_22  and  C_23 
REMARK    7  A    between atoms: C_23  and  C_24 
REMARK    8  A    between atoms: C_24  and  C_25 
REMARK    9  A    between atoms: C_25  and  O_26 
ROOT
HETATM    1  C   UNL     1      43.892 -14.920   6.709  1.00  0.00     0.068 A 
HETATM    2  C   UNL     1      44.206 -16.241   7.032  1.00  0.00     0.033 A 
HETATM    3  C   UNL     1      44.059 -17.258   6.083  1.00  0.00     0.015 A 
HETATM    4  C   UNL     1      43.597 -16.974   4.796  1.00  0.00    -0.020 A 
HETATM    5  C   UNL     1      43.271 -15.649   4.472  1.00  0.00     0.051 A 
HETATM    6  C   UNL     1      43.412 -14.622   5.417  1.00  0.00     0.096 A 
ENDROOT
BRANCH   1   7
HETATM    7  N   UNL     1      44.043 -13.839   7.612  1.00  0.00    -0.324 N 
HETATM    8  C   UNL     1      45.152 -13.036   7.794  1.00  0.00     0.228 C 
HETATM    9  O   UNL     1      46.233 -13.162   7.226  1.00  0.00    -0.273 OA
HETATM   10  H   UNL     1      43.200 -13.634   8.139  1.00  0.00     0.169 HD
BRANCH   8  11
HETATM   11  C   UNL     1      44.923 -11.926   8.807  1.00  0.00     0.107 C 
HETATM   12  C   UNL     1      45.253 -12.413  10.214  1.00  0.00     0.190 C 
HETATM   13  O   UNL     1      45.173 -11.351  11.170  1.00  0.00    -0.350 OA
HETATM   14  C   UNL     1      44.001 -10.647  11.123  1.00  0.00     0.075 A 
HETATM   15  C   UNL     1      43.698  -9.888  12.249  1.00  0.00     0.040 A 
HETATM   16  C   UNL     1      43.150 -10.638  10.011  1.00  0.00    -0.021 A 
HETATM   17  C   UNL     1      42.527  -9.132  12.284  1.00  0.00     0.039 A 
HETATM   18  C   UNL     1      41.659  -9.117  11.191  1.00  0.00     0.068 A 
HETATM   19  C   UNL     1      41.969  -9.876  10.059  1.00  0.00     0.046 A 
HETATM   20  C   UNL     1      43.471 -11.454   8.788  1.00  0.00     0.058 C 
BRANCH  18  21
HETATM   21  O   UNL     1      40.550  -8.333  11.357  1.00  0.00    -0.356 OA
HETATM   22  C   UNL     1      39.400  -8.954  11.916  1.00  0.00     0.210 C 
ENDBRANCH  18  21
ENDBRANCH   8  11
ENDBRANCH   1   7
BRANCH   6  23
HETATM   23  O   UNL     1      43.108 -13.297   5.186  1.00  0.00    -0.349 OA
BRANCH  23  24
HETATM   24  C   UNL     1      41.818 -13.013   4.641  1.00  0.00     0.178 C 
BRANCH  24  25
HETATM   25  C   UNL     1      40.756 -13.318   5.691  1.00  0.00     0.053 C 
BRANCH  25  26
HETATM   26  C   UNL     1      39.748 -14.347   5.198  1.00  0.00     0.166 C 
BRANCH  26  27
HETATM   27  O   UNL     1      39.809 -15.509   6.016  1.00  0.00    -0.401 OA
HETATM   28  H   UNL     1      39.367 -15.305   6.857  1.00  0.00     0.209 HD
ENDBRANCH  26  27
ENDBRANCH  25  26
ENDBRANCH  24  25
ENDBRANCH  23  24
ENDBRANCH   6  23
BRANCH   4  29
HETATM   29  C   UNL     1      43.456 -18.047   3.824  1.00  0.00     0.010 A 
HETATM   30  C   UNL     1      44.130 -19.286   3.710  1.00  0.00     0.152 A 
HETATM   31  N   UNL     1      43.729 -19.998   2.654  1.00  0.00    -0.187 NA
HETATM   32  N   UNL     1      42.803 -19.216   2.081  1.00  0.00    -0.289 N 
HETATM   33  H   UNL     1      42.351 -19.547   1.234  1.00  0.00     0.188 HD
HETATM   34  C   UNL     1      42.601 -18.038   2.741  1.00  0.00     0.123 A 
ENDBRANCH   4  29
TORSDOF 9
ENDMDL
MODEL 3
REMARK VINA RESULT:      -8.1      7.819     10.871
REMARK  9 active torsions:
REMARK  status: ('A' for Active; 'I' for Inactive)
REMARK    1  A    between atoms: O_2  and  C_3 
REMARK    2  A    between atoms: C_9  and  C_13 
REMARK       I    between atoms: C_13  and  N_15 
REMARK    3  A    between atoms: N_15  and  C_16 
REMARK    4  A    between atoms: C_19  and  C_27 
REMARK    5  A    between atoms: C_21  and  O_22 
REMARK    6  A    between atoms: O_22  and  C_23 
REMARK    7  A    between atoms: C_23  and  C_24 
REMARK    8  A    between atoms: C_24  and  C_25 
REMARK    9  A    between atoms: C_25  and  O_26 
ROOT
HETATM    1  C   UNL     1      42.896 -16.557   1.352  1.00  0.00     0.068 A 
HETATM    2  C   UNL     1      43.510 -17.757   0.990  1.00  0.00     0.033 A 
HETATM    3  C   UNL     1      43.879 -18.689   1.965  1.00  0.00     0.015 A 
HETATM    4  C   UNL     1      43.638 -18.440   3.319  1.00  0.00    -0.020 A 
HETATM    5  C   UNL     1      43.031 -17.231   3.687  1.00  0.00     0.051 A 
HETATM    6  C   UNL     1      42.661 -16.288   2.716  1.00  0.00     0.096 A 
ENDROOT
BRANCH   1   7
HETATM    7  N   UNL     1      42.474 -15.582   0.415  1.00  0.00    -0.324 N 
HETATM    8  C   UNL     1      41.435 -15.673  -0.492  1.00  0.00     0.228 C 
HETATM    9  O   UNL     1      40.723 -16.656  -0.673  1.00  0.00    -0.273 OA
HETATM   10  H   UNL     1      42.993 -14.712   0.477  1.00  0.00     0.169 HD
BRANCH   8  11
HETATM   11  C   UNL     1      41.232 -14.396  -1.292  1.00  0.00     0.107 C 
HETATM   12  C   UNL     1      41.494 -14.649  -2.773  1.00  0.00     0.190 C 
HETATM   13  O   UNL     1      41.182 -13.500  -3.565  1.00  0.00    -0.350 OA
HETATM   14  C   UNL     1      41.763 -12.343  -3.122  1.00  0.00     0.075 A 
HETATM   15  C   UNL     1      41.828 -11.300  -4.041  1.00  0.00     0.040 A 
HETATM   16  C   UNL     1      42.242 -12.170  -1.818  1.00  0.00    -0.021 A 
HETATM   17  C   UNL     1      42.398 -10.082  -3.671  1.00  0.00     0.039 A 
HETATM   18  C   UNL     1      42.891  -9.892  -2.380  1.00  0.00     0.068 A 
HETATM   19  C   UNL     1      42.818 -10.939  -1.457  1.00  0.00     0.046 A 
HETATM   20  C   UNL     1      42.172 -13.292  -0.817  1.00  0.00     0.058 C 
BRANCH  18  21
HETATM   21  O   UNL     1      43.419  -8.651  -2.150  1.00  0.00    -0.356 OA
HETATM   22  C   UNL     1      43.973  -8.415  -0.862  1.00  0.00     0.210 C 
ENDBRANCH  18  21
ENDBRANCH   8  11
ENDBRANCH   1   7
BRANCH   6  23
HETATM   23  O   UNL     1      42.067 -15.074   2.990  1.00  0.00    -0.349 OA
BRANCH  23  24
HETATM   24  C   UNL     1      40.824 -15.105   3.695  1.00  0.00     0.178 C 
BRANCH  24  25
HETATM   25  C   UNL     1      39.800 -14.270   2.936  1.00  0.00     0.053 C 
BRANCH  25  26
HETATM   26  C   UNL     1      38.981 -15.115   1.969  1.00  0.00     0.166 C 
BRANCH  26  27
HETATM   27  O   UNL     1      39.334 -16.485   2.114  1.00  0.00    -0.401 OA
HETATM   28  H   UNL     1      40.263 -16.526   2.396  1.00  0.00     0.209 HD
ENDBRANCH  26  27
ENDBRANCH  25  26
ENDBRANCH  24  25
ENDBRANCH  23  24
ENDBRANCH   6  23
BRANCH   4  29
HETATM   29  C   UNL     1      44.026 -19.426   4.316  1.00  0.00     0.010 A 
HETATM   30  C   UNL     1      44.721 -20.651   4.183  1.00  0.00     0.152 A 
HETATM   31  N   UNL     1      44.867 -21.292   5.345  1.00  0.00    -0.187 NA
HETATM   32  N   UNL     1      44.258 -20.486   6.227  1.00  0.00    -0.289 N 
HETATM   33  H   UNL     1      44.229 -20.774   7.200  1.00  0.00     0.188 HD
HETATM   34  C   UNL     1      43.739 -19.356   5.663  1.00  0.00     0.123 A 
ENDBRANCH   4  29
TORSDOF 9
ENDMDL
MODEL 4
REMARK VINA RESULT:      -7.9      4.613     10.334
REMARK  9 active torsions:
REMARK  status: ('A' for Active; 'I' for Inactive)
REMARK    1  A    between atoms: O_2  and  C_3 
REMARK    2  A    between atoms: C_9  and  C_13 
REMARK       I    between atoms: C_13  and  N_15 
REMARK    3  A    between atoms: N_15  and  C_16 
REMARK    4  A    between atoms: C_19  and  C_27 
REMARK    5  A    between atoms: C_21  and  O_22 
REMARK    6  A    between atoms: O_22  and  C_23 
REMARK    7  A    between atoms: C_23  and  C_24 
REMARK    8  A    between atoms: C_24  and  C_25 
REMARK    9  A    between atoms: C_25  and  O_26 
ROOT
HETATM    1  C   UNL     1      42.401 -16.259   3.633  1.00  0.00     0.068 A 
HETATM    2  C   UNL     1      42.837 -16.588   2.348  1.00  0.00     0.033 A 
HETATM    3  C   UNL     1      43.300 -17.877   2.063  1.00  0.00     0.015 A 
HETATM    4  C   UNL     1      43.333 -18.860   3.056  1.00  0.00    -0.020 A 
HETATM    5  C   UNL     1      42.905 -18.529   4.349  1.00  0.00     0.051 A 
HETATM    6  C   UNL     1      42.442 -17.239   4.646  1.00  0.00     0.096 A 
ENDROOT
BRANCH   1   7
HETATM    7  N   UNL     1      41.896 -14.983   3.982  1.00  0.00    -0.324 N 
HETATM    8  C   UNL     1      40.676 -14.431   3.640  1.00  0.00     0.228 C 
HETATM    9  O   UNL     1      39.829 -14.950   2.919  1.00  0.00    -0.273 OA
HETATM   10  H   UNL     1      42.515 -14.457   4.591  1.00  0.00     0.169 HD
BRANCH   8  11
HETATM   11  C   UNL     1      40.449 -13.060   4.257  1.00  0.00     0.107 C 
HETATM   12  C   UNL     1      41.740 -12.249   4.239  1.00  0.00     0.190 C 
HETATM   13  O   UNL     1      41.524 -10.909   4.691  1.00  0.00    -0.350 OA
HETATM   14  C   UNL     1      40.872 -10.825   5.891  1.00  0.00     0.075 A 
HETATM   15  C   UNL     1      40.982  -9.611   6.563  1.00  0.00     0.040 A 
HETATM   16  C   UNL     1      40.100 -11.864   6.425  1.00  0.00    -0.021 A 
HETATM   17  C   UNL     1      40.341  -9.435   7.790  1.00  0.00     0.039 A 
HETATM   18  C   UNL     1      39.576 -10.461   8.345  1.00  0.00     0.068 A 
HETATM   19  C   UNL     1      39.462 -11.677   7.664  1.00  0.00     0.046 A 
HETATM   20  C   UNL     1      39.973 -13.178   5.703  1.00  0.00     0.058 C 
BRANCH  18  21
HETATM   21  O   UNL     1      39.001 -10.155   9.547  1.00  0.00    -0.356 OA
HETATM   22  C   UNL     1      38.744  -8.781   9.808  1.00  0.00     0.210 C 
ENDBRANCH  18  21
ENDBRANCH   8  11
ENDBRANCH   1   7
BRANCH   6  23
HETATM   23  O   UNL     1      42.010 -16.827   5.889  1.00  0.00    -0.349 OA
BRANCH  23  24
HETATM   24  C   UNL     1      42.863 -17.114   6.999  1.00  0.00     0.178 C 
BRANCH  24  25
HETATM   25  C   UNL     1      44.235 -16.499   6.746  1.00  0.00     0.053 C 
BRANCH  25  26
HETATM   26  C   UNL     1      44.279 -15.028   7.135  1.00  0.00     0.166 C 
BRANCH  26  27
HETATM   27  O   UNL     1      43.141 -14.358   6.607  1.00  0.00    -0.401 OA
HETATM   28  H   UNL     1      42.659 -13.959   7.351  1.00  0.00     0.209 HD
ENDBRANCH  26  27
ENDBRANCH  25  26
ENDBRANCH  24  25
ENDBRANCH  23  24
ENDBRANCH   6  23
BRANCH   4  29
HETATM   29  C   UNL     1      43.814 -20.195   2.736  1.00  0.00     0.010 A 
HETATM   30  C   UNL     1      43.531 -21.041   1.638  1.00  0.00     0.152 A 
HETATM   31  N   UNL     1      44.160 -22.217   1.715  1.00  0.00    -0.187 NA
HETATM   32  N   UNL     1      44.840 -22.134   2.867  1.00  0.00    -0.289 N 
HETATM   33  H   UNL     1      45.399 -22.931   3.154  1.00  0.00     0.188 HD
HETATM   34  C   UNL     1      44.669 -20.944   3.517  1.00  0.00     0.123 A 
ENDBRANCH   4  29
TORSDOF 9
ENDMDL
MODEL 5
REMARK VINA RESULT:      -7.9      6.424     10.641
REMARK  9 active torsions:
REMARK  status: ('A' for Active; 'I' for Inactive)
REMARK    1  A    between atoms: O_2  and  C_3 
REMARK    2  A    between atoms: C_9  and  C_13 
REMARK       I    between atoms: C_13  and  N_15 
REMARK    3  A    between atoms: N_15  and  C_16 
REMARK    4  A    between atoms: C_19  and  C_27 
REMARK    5  A    between atoms: C_21  and  O_22 
REMARK    6  A    between atoms: O_22  and  C_23 
REMARK    7  A    between atoms: C_23  and  C_24 
REMARK    8  A    between atoms: C_24  and  C_25 
REMARK    9  A    between atoms: C_25  and  O_26 
ROOT
HETATM    1  C   UNL     1      42.648 -16.493   2.641  1.00  0.00     0.068 A 
HETATM    2  C   UNL     1      43.249 -17.070   1.521  1.00  0.00     0.033 A 
HETATM    3  C   UNL     1      43.716 -18.387   1.564  1.00  0.00     0.015 A 
HETATM    4  C   UNL     1      43.589 -19.152   2.727  1.00  0.00    -0.020 A 
HETATM    5  C   UNL     1      42.995 -18.572   3.857  1.00  0.00     0.051 A 
HETATM    6  C   UNL     1      42.526 -17.251   3.824  1.00  0.00     0.096 A 
ENDROOT
BRANCH   1   7
HETATM    7  N   UNL     1      42.130 -15.175   2.656  1.00  0.00    -0.324 N 
HETATM    8  C   UNL     1      42.811 -14.000   2.912  1.00  0.00     0.228 C 
HETATM    9  O   UNL     1      43.994 -13.908   3.225  1.00  0.00    -0.273 OA
HETATM   10  H   UNL     1      41.148 -15.124   2.401  1.00  0.00     0.169 HD
BRANCH   8  11
HETATM   11  C   UNL     1      41.937 -12.763   2.770  1.00  0.00     0.107 C 
HETATM   12  C   UNL     1      41.769 -12.073   4.119  1.00  0.00     0.190 C 
HETATM   13  O   UNL     1      41.062 -10.836   3.992  1.00  0.00    -0.350 OA
HETATM   14  C   UNL     1      39.883 -10.937   3.306  1.00  0.00     0.075 A 
HETATM   15  C   UNL     1      38.980  -9.893   3.486  1.00  0.00     0.040 A 
HETATM   16  C   UNL     1      39.582 -11.993   2.438  1.00  0.00    -0.021 A 
HETATM   17  C   UNL     1      37.755  -9.909   2.818  1.00  0.00     0.039 A 
HETATM   18  C   UNL     1      37.431 -10.958   1.957  1.00  0.00     0.068 A 
HETATM   19  C   UNL     1      38.342 -12.002   1.774  1.00  0.00     0.046 A 
HETATM   20  C   UNL     1      40.553 -13.124   2.236  1.00  0.00     0.058 C 
BRANCH  18  21
HETATM   21  O   UNL     1      36.203 -10.849   1.366  1.00  0.00    -0.356 OA
HETATM   22  C   UNL     1      35.527  -9.606   1.509  1.00  0.00     0.210 C 
ENDBRANCH  18  21
ENDBRANCH   8  11
ENDBRANCH   1   7
BRANCH   6  23
HETATM   23  O   UNL     1      41.937 -16.601   4.888  1.00  0.00    -0.349 OA
BRANCH  23  24
HETATM   24  C   UNL     1      42.778 -16.281   5.998  1.00  0.00     0.178 C 
BRANCH  24  25
HETATM   25  C   UNL     1      42.358 -17.122   7.199  1.00  0.00     0.053 C 
BRANCH  25  26
HETATM   26  C   UNL     1      43.553 -17.772   7.883  1.00  0.00     0.166 C 
BRANCH  26  27
HETATM   27  O   UNL     1      43.558 -17.433   9.264  1.00  0.00    -0.401 OA
HETATM   28  H   UNL     1      43.959 -18.173   9.751  1.00  0.00     0.209 HD
ENDBRANCH  26  27
ENDBRANCH  25  26
ENDBRANCH  24  25
ENDBRANCH  23  24
ENDBRANCH   6  23
BRANCH   4  29
HETATM   29  C   UNL     1      44.078 -20.522   2.749  1.00  0.00     0.010 A 
HETATM   30  C   UNL     1      44.076 -21.521   1.746  1.00  0.00     0.152 A 
HETATM   31  N   UNL     1      44.602 -22.675   2.163  1.00  0.00    -0.187 NA
HETATM   32  N   UNL     1      44.935 -22.425   3.438  1.00  0.00    -0.289 N 
HETATM   33  H   UNL     1      45.353 -23.174   3.981  1.00  0.00     0.188 HD
HETATM   34  C   UNL     1      44.643 -21.152   3.838  1.00  0.00     0.123 A 
ENDBRANCH   4  29
TORSDOF 9
ENDMDL
MODEL 6
REMARK VINA RESULT:      -7.9      6.580     10.940
REMARK  9 active torsions:
REMARK  status: ('A' for Active; 'I' for Inactive)
REMARK    1  A    between atoms: O_2  and  C_3 
REMARK    2  A    between atoms: C_9  and  C_13 
REMARK       I    between atoms: C_13  and  N_15 
REMARK    3  A    between atoms: N_15  and  C_16 
REMARK    4  A    between atoms: C_19  and  C_27 
REMARK    5  A    between atoms: C_21  and  O_22 
REMARK    6  A    between atoms: O_22  and  C_23 
REMARK    7  A    between atoms: C_23  and  C_24 
REMARK    8  A    between atoms: C_24  and  C_25 
REMARK    9  A    between atoms: C_25  and  O_26 
ROOT
HETATM    1  C   UNL     1      43.170 -17.048   2.175  1.00  0.00     0.068 A 
HETATM    2  C   UNL     1      43.554 -18.094   1.334  1.00  0.00     0.033 A 
HETATM    3  C   UNL     1      43.951 -19.325   1.868  1.00  0.00     0.015 A 
HETATM    4  C   UNL     1      43.969 -19.532   3.249  1.00  0.00    -0.020 A 
HETATM    5  C   UNL     1      43.594 -18.480   4.096  1.00  0.00     0.051 A 
HETATM    6  C   UNL     1      43.198 -17.241   3.571  1.00  0.00     0.096 A 
ENDROOT
BRANCH   1   7
HETATM    7  N   UNL     1      42.732 -15.787   1.701  1.00  0.00    -0.324 N 
HETATM    8  C   UNL     1      41.445 -15.406   1.372  1.00  0.00     0.228 C 
HETATM    9  O   UNL     1      40.455 -16.129   1.389  1.00  0.00    -0.273 OA
HETATM   10  H   UNL     1      43.474 -15.096   1.650  1.00  0.00     0.169 HD
BRANCH   8  11
HETATM   11  C   UNL     1      41.344 -13.944   0.964  1.00  0.00     0.107 C 
HETATM   12  C   UNL     1      39.885 -13.541   0.790  1.00  0.00     0.190 C 
HETATM   13  O   UNL     1      39.754 -12.139   0.536  1.00  0.00    -0.350 OA
HETATM   14  C   UNL     1      40.547 -11.681  -0.481  1.00  0.00     0.075 A 
HETATM   15  C   UNL     1      40.189 -10.454  -1.031  1.00  0.00     0.040 A 
HETATM   16  C   UNL     1      41.681 -12.361  -0.942  1.00  0.00    -0.021 A 
HETATM   17  C   UNL     1      40.947  -9.908  -2.066  1.00  0.00     0.039 A 
HETATM   18  C   UNL     1      42.074 -10.575  -2.548  1.00  0.00     0.068 A 
HETATM   19  C   UNL     1      42.435 -11.804  -1.990  1.00  0.00     0.046 A 
HETATM   20  C   UNL     1      42.077 -13.687  -0.351  1.00  0.00     0.058 C 
BRANCH  18  21
HETATM   21  O   UNL     1      42.727  -9.928  -3.561  1.00  0.00    -0.356 OA
HETATM   22  C   UNL     1      42.367 -10.282  -4.890  1.00  0.00     0.210 C 
ENDBRANCH  18  21
ENDBRANCH   8  11
ENDBRANCH   1   7
BRANCH   6  23
HETATM   23  O   UNL     1      42.821 -16.153   4.330  1.00  0.00    -0.349 OA
BRANCH  23  24
HETATM   24  C   UNL     1      43.569 -15.902   5.521  1.00  0.00     0.178 C 
BRANCH  24  25
HETATM   25  C   UNL     1      43.678 -14.397   5.734  1.00  0.00     0.053 C 
BRANCH  25  26
HETATM   26  C   UNL     1      43.150 -13.614   4.540  1.00  0.00     0.166 C 
BRANCH  26  27
HETATM   27  O   UNL     1      44.089 -13.676   3.473  1.00  0.00    -0.401 OA
HETATM   28  H   UNL     1      44.764 -12.994   3.631  1.00  0.00     0.209 HD
ENDBRANCH  26  27
ENDBRANCH  25  26
ENDBRANCH  24  25
ENDBRANCH  23  24
ENDBRANCH   6  23
BRANCH   4  29
HETATM   29  C   UNL     1      44.382 -20.821   3.782  1.00  0.00     0.010 A 
HETATM   30  C   UNL     1      44.866 -21.180   5.063  1.00  0.00     0.152 A 
HETATM   31  N   UNL     1      45.162 -22.478   5.160  1.00  0.00    -0.187 NA
HETATM   32  N   UNL     1      44.879 -22.956   3.939  1.00  0.00    -0.289 N 
HETATM   33  H   UNL     1      45.038 -23.943   3.761  1.00  0.00     0.188 HD
HETATM   34  C   UNL     1      44.408 -22.007   3.078  1.00  0.00     0.123 A 
ENDBRANCH   4  29
TORSDOF 9
ENDMDL
MODEL 7
REMARK VINA RESULT:      -7.9      8.545     11.964
REMARK  9 active torsions:
REMARK  status: ('A' for Active; 'I' for Inactive)
REMARK    1  A    between atoms: O_2  and  C_3 
REMARK    2  A    between atoms: C_9  and  C_13 
REMARK       I    between atoms: C_13  and  N_15 
REMARK    3  A    between atoms: N_15  and  C_16 
REMARK    4  A    between atoms: C_19  and  C_27 
REMARK    5  A    between atoms: C_21  and  O_22 
REMARK    6  A    between atoms: O_22  and  C_23 
REMARK    7  A    between atoms: C_23  and  C_24 
REMARK    8  A    between atoms: C_24  and  C_25 
REMARK    9  A    between atoms: C_25  and  O_26 
ROOT
HETATM    1  C   UNL     1      41.735 -13.706  -1.473  1.00  0.00     0.068 A 
HETATM    2  C   UNL     1      42.370 -12.468  -1.351  1.00  0.00     0.033 A 
HETATM    3  C   UNL     1      42.355 -11.554  -2.410  1.00  0.00     0.015 A 
HETATM    4  C   UNL     1      41.704 -11.859  -3.608  1.00  0.00    -0.020 A 
HETATM    5  C   UNL     1      41.075 -13.106  -3.738  1.00  0.00     0.051 A 
HETATM    6  C   UNL     1      41.087 -14.030  -2.683  1.00  0.00     0.096 A 
ENDROOT
BRANCH   1   7
HETATM    7  N   UNL     1      41.689 -14.665  -0.433  1.00  0.00    -0.324 N 
HETATM    8  C   UNL     1      40.620 -14.977   0.385  1.00  0.00     0.228 C 
HETATM    9  O   UNL     1      39.524 -14.426   0.378  1.00  0.00    -0.273 OA
HETATM   10  H   UNL     1      42.549 -15.196  -0.336  1.00  0.00     0.169 HD
BRANCH   8  11
HETATM   11  C   UNL     1      40.921 -16.115   1.348  1.00  0.00     0.107 C 
HETATM   12  C   UNL     1      41.212 -15.570   2.742  1.00  0.00     0.190 C 
HETATM   13  O   UNL     1      41.368 -16.624   3.696  1.00  0.00    -0.350 OA
HETATM   14  C   UNL     1      42.259 -17.591   3.317  1.00  0.00     0.075 A 
HETATM   15  C   UNL     1      42.745 -18.407   4.335  1.00  0.00     0.040 A 
HETATM   16  C   UNL     1      42.652 -17.801   1.991  1.00  0.00    -0.021 A 
HETATM   17  C   UNL     1      43.651 -19.424   4.037  1.00  0.00     0.039 A 
HETATM   18  C   UNL     1      44.065 -19.643   2.722  1.00  0.00     0.068 A 
HETATM   19  C   UNL     1      43.570 -18.826   1.702  1.00  0.00     0.046 A 
HETATM   20  C   UNL     1      42.129 -16.925   0.884  1.00  0.00     0.058 C 
BRANCH  18  21
HETATM   21  O   UNL     1      44.952 -20.674   2.571  1.00  0.00    -0.356 OA
HETATM   22  C   UNL     1      44.466 -21.855   1.947  1.00  0.00     0.210 C 
ENDBRANCH  18  21
ENDBRANCH   8  11
ENDBRANCH   1   7
BRANCH   6  23
HETATM   23  O   UNL     1      40.500 -15.278  -2.728  1.00  0.00    -0.349 OA
BRANCH  23  24
HETATM   24  C   UNL     1      39.939 -15.686  -3.977  1.00  0.00     0.178 C 
BRANCH  24  25
HETATM   25  C   UNL     1      38.483 -16.086  -3.761  1.00  0.00     0.053 C 
BRANCH  25  26
HETATM   26  C   UNL     1      37.620 -14.896  -3.365  1.00  0.00     0.166 C 
BRANCH  26  27
HETATM   27  O   UNL     1      37.707 -14.687  -1.961  1.00  0.00    -0.401 OA
HETATM   28  H   UNL     1      37.815 -13.733  -1.808  1.00  0.00     0.209 HD
ENDBRANCH  26  27
ENDBRANCH  25  26
ENDBRANCH  24  25
ENDBRANCH  23  24
ENDBRANCH   6  23
BRANCH   4  29
HETATM   29  C   UNL     1      41.697 -10.892  -4.695  1.00  0.00     0.010 A 
HETATM   30  C   UNL     1      40.652 -10.471  -5.551  1.00  0.00     0.152 A 
HETATM   31  N   UNL     1      41.052  -9.569  -6.451  1.00  0.00    -0.187 NA
HETATM   32  N   UNL     1      42.356  -9.415  -6.182  1.00  0.00    -0.289 N 
HETATM   33  H   UNL     1      42.892  -8.771  -6.756  1.00  0.00     0.188 HD
HETATM   34  C   UNL     1      42.793 -10.182  -5.140  1.00  0.00     0.123 A 
ENDBRANCH   4  29
TORSDOF 9
ENDMDL
MODEL 8
REMARK VINA RESULT:      -7.5      7.363     10.769
REMARK  9 active torsions:
REMARK  status: ('A' for Active; 'I' for Inactive)
REMARK    1  A    between atoms: O_2  and  C_3 
REMARK    2  A    between atoms: C_9  and  C_13 
REMARK       I    between atoms: C_13  and  N_15 
REMARK    3  A    between atoms: N_15  and  C_16 
REMARK    4  A    between atoms: C_19  and  C_27 
REMARK    5  A    between atoms: C_21  and  O_22 
REMARK    6  A    between atoms: O_22  and  C_23 
REMARK    7  A    between atoms: C_23  and  C_24 
REMARK    8  A    between atoms: C_24  and  C_25 
REMARK    9  A    between atoms: C_25  and  O_26 
ROOT
HETATM    1  C   UNL     1      41.512 -14.691  -0.677  1.00  0.00     0.068 A 
HETATM    2  C   UNL     1      40.748 -15.224  -1.716  1.00  0.00     0.033 A 
HETATM    3  C   UNL     1      40.116 -14.383  -2.637  1.00  0.00     0.015 A 
HETATM    4  C   UNL     1      40.238 -12.995  -2.538  1.00  0.00    -0.020 A 
HETATM    5  C   UNL     1      40.996 -12.456  -1.489  1.00  0.00     0.051 A 
HETATM    6  C   UNL     1      41.631 -13.290  -0.559  1.00  0.00     0.096 A 
ENDROOT
BRANCH   1   7
HETATM    7  N   UNL     1      42.199 -15.485   0.273  1.00  0.00    -0.324 N 
HETATM    8  C   UNL     1      41.662 -16.203   1.324  1.00  0.00     0.228 C 
HETATM    9  O   UNL     1      40.478 -16.231   1.645  1.00  0.00    -0.273 OA
HETATM   10  H   UNL     1      43.199 -15.543   0.103  1.00  0.00     0.169 HD
BRANCH   8  11
HETATM   11  C   UNL     1      42.705 -16.998   2.095  1.00  0.00     0.107 C 
HETATM   12  C   UNL     1      42.958 -18.340   1.418  1.00  0.00     0.190 C 
HETATM   13  O   UNL     1      44.028 -19.052   2.046  1.00  0.00    -0.350 OA
HETATM   14  C   UNL     1      43.899 -19.168   3.404  1.00  0.00     0.075 A 
HETATM   15  C   UNL     1      44.666 -20.158   4.009  1.00  0.00     0.040 A 
HETATM   16  C   UNL     1      43.081 -18.334   4.175  1.00  0.00    -0.021 A 
HETATM   17  C   UNL     1      44.603 -20.341   5.390  1.00  0.00     0.039 A 
HETATM   18  C   UNL     1      43.785 -19.528   6.176  1.00  0.00     0.068 A 
HETATM   19  C   UNL     1      43.020 -18.530   5.566  1.00  0.00     0.046 A 
HETATM   20  C   UNL     1      42.249 -17.258   3.529  1.00  0.00     0.058 C 
BRANCH  18  21
HETATM   21  O   UNL     1      43.820 -19.812   7.514  1.00  0.00    -0.356 OA
HETATM   22  C   UNL     1      44.102 -18.733   8.395  1.00  0.00     0.210 C 
ENDBRANCH  18  21
ENDBRANCH   8  11
ENDBRANCH   1   7
BRANCH   6  23
HETATM   23  O   UNL     1      42.389 -12.846   0.505  1.00  0.00    -0.349 OA
BRANCH  23  24
HETATM   24  C   UNL     1      41.755 -11.954   1.424  1.00  0.00     0.178 C 
BRANCH  24  25
HETATM   25  C   UNL     1      41.076 -12.769   2.520  1.00  0.00     0.053 C 
BRANCH  25  26
HETATM   26  C   UNL     1      42.061 -13.207   3.595  1.00  0.00     0.166 C 
BRANCH  26  27
HETATM   27  O   UNL     1      43.393 -13.016   3.132  1.00  0.00    -0.401 OA
HETATM   28  H   UNL     1      43.976 -12.982   3.909  1.00  0.00     0.209 HD
ENDBRANCH  26  27
ENDBRANCH  25  26
ENDBRANCH  24  25
ENDBRANCH  23  24
ENDBRANCH   6  23
BRANCH   4  29
HETATM   29  C   UNL     1      39.575 -12.139  -3.510  1.00  0.00     0.010 A 
HETATM   30  C   UNL     1      40.085 -11.103  -4.329  1.00  0.00     0.152 A 
HETATM   31  N   UNL     1      39.145 -10.529  -5.083  1.00  0.00    -0.187 NA
HETATM   32  N   UNL     1      38.026 -11.187  -4.745  1.00  0.00    -0.289 N 
HETATM   33  H   UNL     1      37.155 -10.914  -5.189  1.00  0.00     0.188 HD
HETATM   34  C   UNL     1      38.229 -12.160  -3.808  1.00  0.00     0.123 A 
ENDBRANCH   4  29
TORSDOF 9
ENDMDL
MODEL 9
REMARK VINA RESULT:      -7.5      3.948      9.632
REMARK  9 active torsions:
REMARK  status: ('A' for Active; 'I' for Inactive)
REMARK    1  A    between atoms: O_2  and  C_3 
REMARK    2  A    between atoms: C_9  and  C_13 
REMARK       I    between atoms: C_13  and  N_15 
REMARK    3  A    between atoms: N_15  and  C_16 
REMARK    4  A    between atoms: C_19  and  C_27 
REMARK    5  A    between atoms: C_21  and  O_22 
REMARK    6  A    between atoms: O_22  and  C_23 
REMARK    7  A    between atoms: C_23  and  C_24 
REMARK    8  A    between atoms: C_24  and  C_25 
REMARK    9  A    between atoms: C_25  and  O_26 
ROOT
HETATM    1  C   UNL     1      41.475 -15.228   5.853  1.00  0.00     0.068 A 
HETATM    2  C   UNL     1      40.848 -16.394   5.408  1.00  0.00     0.033 A 
HETATM    3  C   UNL     1      41.602 -17.525   5.079  1.00  0.00     0.015 A 
HETATM    4  C   UNL     1      42.995 -17.512   5.189  1.00  0.00    -0.020 A 
HETATM    5  C   UNL     1      43.628 -16.340   5.625  1.00  0.00     0.051 A 
HETATM    6  C   UNL     1      42.881 -15.199   5.955  1.00  0.00     0.096 A 
ENDROOT
BRANCH   1   7
HETATM    7  N   UNL     1      40.771 -14.058   6.228  1.00  0.00    -0.324 N 
HETATM    8  C   UNL     1      40.008 -13.233   5.423  1.00  0.00     0.228 C 
HETATM    9  O   UNL     1      39.854 -13.354   4.212  1.00  0.00    -0.273 OA
HETATM   10  H   UNL     1      40.821 -13.858   7.222  1.00  0.00     0.169 HD
BRANCH   8  11
HETATM   11  C   UNL     1      39.341 -12.104   6.192  1.00  0.00     0.107 C 
HETATM   12  C   UNL     1      39.671 -10.759   5.554  1.00  0.00     0.190 C 
HETATM   13  O   UNL     1      38.950  -9.691   6.176  1.00  0.00    -0.350 OA
HETATM   14  C   UNL     1      39.063  -9.664   7.540  1.00  0.00     0.075 A 
HETATM   15  C   UNL     1      38.732  -8.462   8.157  1.00  0.00     0.040 A 
HETATM   16  C   UNL     1      39.449 -10.772   8.305  1.00  0.00    -0.021 A 
HETATM   17  C   UNL     1      38.809  -8.348   9.545  1.00  0.00     0.039 A 
HETATM   18  C   UNL     1      39.203  -9.436  10.325  1.00  0.00     0.068 A 
HETATM   19  C   UNL     1      39.529 -10.644   9.703  1.00  0.00     0.046 A 
HETATM   20  C   UNL     1      39.806 -12.076   7.645  1.00  0.00     0.058 C 
BRANCH  18  21
HETATM   21  O   UNL     1      39.233  -9.189  11.670  1.00  0.00    -0.356 OA
HETATM   22  C   UNL     1      38.021  -8.754  12.273  1.00  0.00     0.210 C 
ENDBRANCH  18  21
ENDBRANCH   8  11
ENDBRANCH   1   7
BRANCH   6  23
HETATM   23  O   UNL     1      43.422 -14.005   6.384  1.00  0.00    -0.349 OA
BRANCH  23  24
HETATM   24  C   UNL     1      44.691 -14.066   7.037  1.00  0.00     0.178 C 
BRANCH  24  25
HETATM   25  C   UNL     1      44.734 -13.015   8.141  1.00  0.00     0.053 C 
BRANCH  25  26
HETATM   26  C   UNL     1      46.118 -12.395   8.280  1.00  0.00     0.166 C 
BRANCH  26  27
HETATM   27  O   UNL     1      46.000 -11.065   8.769  1.00  0.00    -0.401 OA
HETATM   28  H   UNL     1      45.114 -10.968   9.157  1.00  0.00     0.209 HD
ENDBRANCH  26  27
ENDBRANCH  25  26
ENDBRANCH  24  25
ENDBRANCH  23  24
ENDBRANCH   6  23
BRANCH   4  29
HETATM   29  C   UNL     1      43.759 -18.701   4.845  1.00  0.00     0.010 A 
HETATM   30  C   UNL     1      43.964 -19.339   3.598  1.00  0.00     0.152 A 
HETATM   31  N   UNL     1      44.721 -20.435   3.696  1.00  0.00    -0.187 NA
HETATM   32  N   UNL     1      44.995 -20.511   5.006  1.00  0.00    -0.289 N 
HETATM   33  H   UNL     1      45.561 -21.287   5.335  1.00  0.00     0.188 HD
HETATM   34  C   UNL     1      44.445 -19.497   5.738  1.00  0.00     0.123 A 
ENDBRANCH   4  29
TORSDOF 9
ENDMDL
MODEL 10
REMARK VINA RESULT:      -7.4      1.917      3.522
REMARK  9 active torsions:
REMARK  status: ('A' for Active; 'I' for Inactive)
REMARK    1  A    between atoms: O_2  and  C_3 
REMARK    2  A    between atoms: C_9  and  C_13 
REMARK       I    between atoms: C_13  and  N_15 
REMARK    3  A    between atoms: N_15  and  C_16 
REMARK    4  A    between atoms: C_19  and  C_27 
REMARK    5  A    between atoms: C_21  and  O_22 
REMARK    6  A    between atoms: O_22  and  C_23 
REMARK    7  A    between atoms: C_23  and  C_24 
REMARK    8  A    between atoms: C_24  and  C_25 
REMARK    9  A    between atoms: C_25  and  O_26 
ROOT
HETATM    1  C   UNL     1      41.235 -10.640   9.958  1.00  0.00     0.068 A 
HETATM    2  C   UNL     1      40.210 -10.002  10.659  1.00  0.00     0.033 A 
HETATM    3  C   UNL     1      40.425  -9.527  11.957  1.00  0.00     0.015 A 
HETATM    4  C   UNL     1      41.668  -9.680  12.577  1.00  0.00    -0.020 A 
HETATM    5  C   UNL     1      42.696 -10.331  11.879  1.00  0.00     0.051 A 
HETATM    6  C   UNL     1      42.489 -10.813  10.578  1.00  0.00     0.096 A 
ENDROOT
BRANCH   1   7
HETATM    7  N   UNL     1      41.093 -11.120   8.633  1.00  0.00    -0.324 N 
HETATM    8  C   UNL     1      41.490 -10.503   7.461  1.00  0.00     0.228 C 
HETATM    9  O   UNL     1      41.997  -9.390   7.371  1.00  0.00    -0.273 OA
HETATM   10  H   UNL     1      40.686 -12.048   8.582  1.00  0.00     0.169 HD
BRANCH   8  11
HETATM   11  C   UNL     1      41.235 -11.354   6.227  1.00  0.00     0.107 C 
HETATM   12  C   UNL     1      39.788 -11.832   6.199  1.00  0.00     0.190 C 
HETATM   13  O   UNL     1      39.486 -12.522   4.983  1.00  0.00    -0.350 OA
HETATM   14  C   UNL     1      40.371 -13.519   4.675  1.00  0.00     0.075 A 
HETATM   15  C   UNL     1      39.931 -14.464   3.753  1.00  0.00     0.040 A 
HETATM   16  C   UNL     1      41.664 -13.596   5.206  1.00  0.00    -0.021 A 
HETATM   17  C   UNL     1      40.771 -15.510   3.373  1.00  0.00     0.039 A 
HETATM   18  C   UNL     1      42.060 -15.611   3.900  1.00  0.00     0.068 A 
HETATM   19  C   UNL     1      42.501 -14.658   4.821  1.00  0.00     0.046 A 
HETATM   20  C   UNL     1      42.148 -12.577   6.202  1.00  0.00     0.058 C 
BRANCH  18  21
HETATM   21  O   UNL     1      42.778 -16.682   3.442  1.00  0.00    -0.356 OA
HETATM   22  C   UNL     1      43.472 -17.455   4.412  1.00  0.00     0.210 C 
ENDBRANCH  18  21
ENDBRANCH   8  11
ENDBRANCH   1   7
BRANCH   6  23
HETATM   23  O   UNL     1      43.441 -11.468   9.825  1.00  0.00    -0.349 OA
BRANCH  23  24
HETATM   24  C   UNL     1      44.776 -10.962   9.884  1.00  0.00     0.178 C 
BRANCH  24  25
HETATM   25  C   UNL     1      45.744 -12.062   9.467  1.00  0.00     0.053 C 
BRANCH  25  26
HETATM   26  C   UNL     1      45.263 -12.803   8.227  1.00  0.00     0.166 C 
BRANCH  26  27
HETATM   27  O   UNL     1      44.404 -13.870   8.610  1.00  0.00    -0.401 OA
HETATM   28  H   UNL     1      44.538 -14.600   7.982  1.00  0.00     0.209 HD
ENDBRANCH  26  27
ENDBRANCH  25  26
ENDBRANCH  24  25
ENDBRANCH  23  24
ENDBRANCH   6  23
BRANCH   4  29
HETATM   29  C   UNL     1      41.871  -9.176  13.925  1.00  0.00     0.010 A 
HETATM   30  C   UNL     1      42.093  -9.860  15.145  1.00  0.00     0.152 A 
HETATM   31  N   UNL     1      42.212  -9.034  16.187  1.00  0.00    -0.187 NA
HETATM   32  N   UNL     1      42.057  -7.818  15.644  1.00  0.00    -0.289 N 
HETATM   33  H   UNL     1      42.097  -7.009  16.256  1.00  0.00     0.188 HD
HETATM   34  C   UNL     1      41.851  -7.847  14.294  1.00  0.00     0.123 A 
ENDBRANCH   4  29
TORSDOF 9
ENDMDL
