MODEL 1
REMARK VINA RESULT:     -10.3      0.000      0.000
REMARK  5 active torsions:
REMARK  status: ('A' for Active; 'I' for Inactive)
REMARK    1  A    between atoms: C_4  and  C_5 
REMARK    2  A    between atoms: C_5  and  N_6 
REMARK    3  A    between atoms: C_8  and  C_9 
REMARK       I    between atoms: C_9  and  N_10 
REMARK    4  A    between atoms: N_10  and  N_11 
REMARK       I    between atoms: N_11  and  C_12 
REMARK    5  A    between atoms: C_12  and  C_13 
ROOT
HETATM    1  N   UNL     1      43.887 -18.021   5.086  1.00  0.00    -0.229 N 
HETATM    2  N   UNL     1      43.451 -17.523   3.877  1.00  0.00    -0.163 NA
HETATM    3  C   UNL     1      43.393 -18.323   2.852  1.00  0.00     0.157 A 
HETATM    4  C   UNL     1      43.797 -19.737   2.893  1.00  0.00     0.016 A 
HETATM    5  C   UNL     1      44.239 -20.230   4.116  1.00  0.00     0.046 A 
HETATM    6  C   UNL     1      44.284 -19.339   5.291  1.00  0.00     0.275 A 
HETATM    7  O   UNL     1      44.676 -19.784   6.368  1.00  0.00    -0.266 OA
HETATM    8  C   UNL     1      43.781 -20.576   1.772  1.00  0.00     0.015 A 
HETATM    9  C   UNL     1      44.198 -21.906   1.888  1.00  0.00     0.001 A 
HETATM   10  C   UNL     1      44.634 -22.400   3.115  1.00  0.00     0.001 A 
HETATM   11  C   UNL     1      44.656 -21.563   4.231  1.00  0.00     0.018 A 
ENDROOT
BRANCH   3  12
HETATM   12  C   UNL     1      42.917 -17.698   1.549  1.00  0.00     0.291 C 
HETATM   13  N   UNL     1      41.614 -17.260   1.609  1.00  0.00    -0.262 N 
HETATM   14  H   UNL     1      40.994 -17.534   2.374  1.00  0.00     0.190 HD
HETATM   15  O   UNL     1      43.652 -17.605   0.577  1.00  0.00    -0.264 OA
BRANCH  13  16
HETATM   16  N   UNL     1      41.020 -16.723   0.465  1.00  0.00    -0.263 N 
HETATM   17  C   UNL     1      41.018 -15.350   0.325  1.00  0.00     0.270 C 
HETATM   18  O   UNL     1      41.529 -14.601   1.156  1.00  0.00    -0.266 OA
HETATM   19  H   UNL     1      40.451 -17.354  -0.096  1.00  0.00     0.190 HD
BRANCH  17  20
HETATM   20  C   UNL     1      40.345 -14.796  -0.882  1.00  0.00     0.036 A 
HETATM   21  C   UNL     1      39.249 -13.925  -0.778  1.00  0.00     0.051 A 
HETATM   22  C   UNL     1      38.648 -13.465  -1.958  1.00  0.00     0.085 A 
HETATM   23  C   UNL     1      39.141 -13.881  -3.190  1.00  0.00     0.062 A 
HETATM   24  N   UNL     1      37.577 -12.621  -2.119  1.00  0.00    -0.242 NA
HETATM   25  N   UNL     1      38.330 -13.258  -4.106  1.00  0.00    -0.349 N 
HETATM   26  C   UNL     1      40.221 -14.753  -3.329  1.00  0.00     0.033 A 
HETATM   27  H   UNL     1      38.396 -13.338  -5.110  1.00  0.00     0.167 HD
HETATM   28  C   UNL     1      37.411 -12.518  -3.418  1.00  0.00     0.208 A 
HETATM   29  C   UNL     1      40.811 -15.206  -2.143  1.00  0.00     0.019 A 
ENDBRANCH  17  20
ENDBRANCH  13  16
ENDBRANCH   3  12
BRANCH   1  30
HETATM   30  C   UNL     1      43.879 -17.091   6.212  1.00  0.00     0.193 C 
BRANCH  30  31
HETATM   31  C   UNL     1      42.853 -15.994   6.046  1.00  0.00    -0.038 A 
HETATM   32  C   UNL     1      43.257 -14.671   5.817  1.00  0.00     0.009 A 
HETATM   33  C   UNL     1      42.310 -13.656   5.670  1.00  0.00     0.001 A 
HETATM   34  C   UNL     1      40.951 -13.953   5.757  1.00  0.00     0.000 A 
HETATM   35  C   UNL     1      40.538 -15.263   5.997  1.00  0.00     0.001 A 
HETATM   36  C   UNL     1      41.484 -16.278   6.146  1.00  0.00     0.009 A 
ENDBRANCH  30  31
ENDBRANCH   1  30
TORSDOF 5
ENDMDL
MODEL 2
REMARK VINA RESULT:     -10.0      1.117      1.398
REMARK  5 active torsions:
REMARK  status: ('A' for Active; 'I' for Inactive)
REMARK    1  A    between atoms: C_4  and  C_5 
REMARK    2  A    between atoms: C_5  and  N_6 
REMARK    3  A    between atoms: C_8  and  C_9 
REMARK       I    between atoms: C_9  and  N_10 
REMARK    4  A    between atoms: N_10  and  N_11 
REMARK       I    between atoms: N_11  and  C_12 
REMARK    5  A    between atoms: C_12  and  C_13 
ROOT
HETATM    1  N   UNL     1      43.695 -17.502   4.928  1.00  0.00    -0.229 N 
HETATM    2  N   UNL     1      42.999 -17.098   3.810  1.00  0.00    -0.163 NA
HETATM    3  C   UNL     1      42.850 -17.936   2.826  1.00  0.00     0.157 A 
HETATM    4  C   UNL     1      43.409 -19.297   2.817  1.00  0.00     0.016 A 
HETATM    5  C   UNL     1      44.113 -19.695   3.949  1.00  0.00     0.046 A 
HETATM    6  C   UNL     1      44.267 -18.762   5.081  1.00  0.00     0.275 A 
HETATM    7  O   UNL     1      44.891 -19.123   6.076  1.00  0.00    -0.266 OA
HETATM    8  C   UNL     1      43.288 -20.174   1.731  1.00  0.00     0.015 A 
HETATM    9  C   UNL     1      43.864 -21.447   1.793  1.00  0.00     0.001 A 
HETATM   10  C   UNL     1      44.563 -21.845   2.930  1.00  0.00     0.001 A 
HETATM   11  C   UNL     1      44.689 -20.971   4.009  1.00  0.00     0.018 A 
ENDROOT
BRANCH   3  12
HETATM   12  C   UNL     1      42.083 -17.413   1.620  1.00  0.00     0.291 C 
HETATM   13  N   UNL     1      42.794 -16.489   0.891  1.00  0.00    -0.262 N 
HETATM   14  H   UNL     1      43.644 -16.058   1.261  1.00  0.00     0.190 HD
HETATM   15  O   UNL     1      40.957 -17.809   1.357  1.00  0.00    -0.264 OA
BRANCH  13  16
HETATM   16  N   UNL     1      42.190 -15.873  -0.208  1.00  0.00    -0.263 N 
HETATM   17  C   UNL     1      41.646 -14.618  -0.024  1.00  0.00     0.270 C 
HETATM   18  O   UNL     1      41.691 -14.031   1.056  1.00  0.00    -0.266 OA
HETATM   19  H   UNL     1      42.009 -16.459  -1.020  1.00  0.00     0.190 HD
BRANCH  17  20
HETATM   20  C   UNL     1      40.972 -13.997  -1.197  1.00  0.00     0.036 A 
HETATM   21  C   UNL     1      40.395 -12.719  -1.121  1.00  0.00     0.051 A 
HETATM   22  C   UNL     1      39.753 -12.209  -2.259  1.00  0.00     0.085 A 
HETATM   23  C   UNL     1      39.698 -12.973  -3.419  1.00  0.00     0.062 A 
HETATM   24  N   UNL     1      39.119 -11.004  -2.434  1.00  0.00    -0.242 NA
HETATM   25  N   UNL     1      39.007 -12.187  -4.307  1.00  0.00    -0.349 N 
HETATM   26  C   UNL     1      40.252 -14.248  -3.525  1.00  0.00     0.033 A 
HETATM   27  H   UNL     1      38.773 -12.429  -5.260  1.00  0.00     0.167 HD
HETATM   28  C   UNL     1      38.681 -11.021  -3.673  1.00  0.00     0.208 A 
HETATM   29  C   UNL     1      40.889 -14.746  -2.382  1.00  0.00     0.019 A 
ENDBRANCH  17  20
ENDBRANCH  13  16
ENDBRANCH   3  12
BRANCH   1  30
HETATM   30  C   UNL     1      43.784 -16.538   6.021  1.00  0.00     0.193 C 
BRANCH  30  31
HETATM   31  C   UNL     1      42.759 -15.434   5.900  1.00  0.00    -0.038 A 
HETATM   32  C   UNL     1      41.390 -15.720   6.003  1.00  0.00     0.009 A 
HETATM   33  C   UNL     1      40.442 -14.702   5.884  1.00  0.00     0.001 A 
HETATM   34  C   UNL     1      40.853 -13.391   5.654  1.00  0.00     0.000 A 
HETATM   35  C   UNL     1      42.211 -13.096   5.537  1.00  0.00     0.001 A 
HETATM   36  C   UNL     1      43.159 -14.113   5.654  1.00  0.00     0.009 A 
ENDBRANCH  30  31
ENDBRANCH   1  30
TORSDOF 5
ENDMDL
MODEL 3
REMARK VINA RESULT:      -9.8      2.457      9.320
REMARK  5 active torsions:
REMARK  status: ('A' for Active; 'I' for Inactive)
REMARK    1  A    between atoms: C_4  and  C_5 
REMARK    2  A    between atoms: C_5  and  N_6 
REMARK    3  A    between atoms: C_8  and  C_9 
REMARK       I    between atoms: C_9  and  N_10 
REMARK    4  A    between atoms: N_10  and  N_11 
REMARK       I    between atoms: N_11  and  C_12 
REMARK    5  A    between atoms: C_12  and  C_13 
ROOT
HETATM    1  N   UNL     1      40.364 -13.062  -0.277  1.00  0.00    -0.229 N 
HETATM    2  N   UNL     1      40.609 -14.308   0.257  1.00  0.00    -0.163 NA
HETATM    3  C   UNL     1      40.416 -14.495   1.529  1.00  0.00     0.157 A 
HETATM    4  C   UNL     1      39.975 -13.440   2.455  1.00  0.00     0.016 A 
HETATM    5  C   UNL     1      39.734 -12.185   1.908  1.00  0.00     0.046 A 
HETATM    6  C   UNL     1      39.925 -11.967   0.462  1.00  0.00     0.275 A 
HETATM    7  O   UNL     1      39.709 -10.853  -0.012  1.00  0.00    -0.266 OA
HETATM    8  C   UNL     1      39.821 -13.638   3.833  1.00  0.00     0.015 A 
HETATM    9  C   UNL     1      39.415 -12.579   4.651  1.00  0.00     0.001 A 
HETATM   10  C   UNL     1      39.168 -11.323   4.100  1.00  0.00     0.001 A 
HETATM   11  C   UNL     1      39.327 -11.124   2.729  1.00  0.00     0.018 A 
ENDROOT
BRANCH   3  12
HETATM   12  C   UNL     1      40.722 -15.893   2.048  1.00  0.00     0.291 C 
HETATM   13  N   UNL     1      42.028 -16.042   2.453  1.00  0.00    -0.262 N 
HETATM   14  H   UNL     1      42.741 -15.349   2.216  1.00  0.00     0.190 HD
HETATM   15  O   UNL     1      39.863 -16.762   2.092  1.00  0.00    -0.264 OA
BRANCH  13  16
HETATM   16  N   UNL     1      42.470 -17.292   2.891  1.00  0.00    -0.263 N 
HETATM   17  C   UNL     1      43.185 -18.070   2.003  1.00  0.00     0.270 C 
HETATM   18  O   UNL     1      43.452 -17.693   0.863  1.00  0.00    -0.266 OA
HETATM   19  H   UNL     1      42.072 -17.640   3.761  1.00  0.00     0.190 HD
BRANCH  17  20
HETATM   20  C   UNL     1      43.612 -19.415   2.476  1.00  0.00     0.036 A 
HETATM   21  C   UNL     1      44.113 -19.613   3.773  1.00  0.00     0.051 A 
HETATM   22  C   UNL     1      44.521 -20.903   4.141  1.00  0.00     0.085 A 
HETATM   23  C   UNL     1      44.428 -21.943   3.223  1.00  0.00     0.062 A 
HETATM   24  N   UNL     1      45.041 -21.346   5.332  1.00  0.00    -0.242 NA
HETATM   25  N   UNL     1      44.910 -23.035   3.900  1.00  0.00    -0.349 N 
HETATM   26  C   UNL     1      43.944 -21.779   1.925  1.00  0.00     0.033 A 
HETATM   27  H   UNL     1      44.995 -23.973   3.535  1.00  0.00     0.167 HD
HETATM   28  C   UNL     1      45.265 -22.628   5.155  1.00  0.00     0.208 A 
HETATM   29  C   UNL     1      43.541 -20.486   1.570  1.00  0.00     0.019 A 
ENDBRANCH  17  20
ENDBRANCH  13  16
ENDBRANCH   3  12
BRANCH   1  30
HETATM   30  C   UNL     1      40.547 -12.925  -1.720  1.00  0.00     0.193 C 
BRANCH  30  31
HETATM   31  C   UNL     1      39.728 -13.927  -2.500  1.00  0.00    -0.038 A 
HETATM   32  C   UNL     1      40.353 -14.992  -3.166  1.00  0.00     0.009 A 
HETATM   33  C   UNL     1      39.598 -15.914  -3.892  1.00  0.00     0.001 A 
HETATM   34  C   UNL     1      38.213 -15.777  -3.967  1.00  0.00     0.000 A 
HETATM   35  C   UNL     1      37.582 -14.715  -3.321  1.00  0.00     0.001 A 
HETATM   36  C   UNL     1      38.336 -13.791  -2.595  1.00  0.00     0.009 A 
ENDBRANCH  30  31
ENDBRANCH   1  30
TORSDOF 5
ENDMDL
MODEL 4
REMARK VINA RESULT:      -9.7      4.190      8.515
REMARK  5 active torsions:
REMARK  status: ('A' for Active; 'I' for Inactive)
REMARK    1  A    between atoms: C_4  and  C_5 
REMARK    2  A    between atoms: C_5  and  N_6 
REMARK    3  A    between atoms: C_8  and  C_9 
REMARK       I    between atoms: C_9  and  N_10 
REMARK    4  A    between atoms: N_10  and  N_11 
REMARK       I    between atoms: N_11  and  C_12 
REMARK    5  A    between atoms: C_12  and  C_13 
ROOT
HETATM    1  N   UNL     1      42.860 -16.842   2.243  1.00  0.00    -0.229 N 
HETATM    2  N   UNL     1      42.595 -16.033   3.327  1.00  0.00    -0.163 NA
HETATM    3  C   UNL     1      42.915 -16.451   4.516  1.00  0.00     0.157 A 
HETATM    4  C   UNL     1      43.525 -17.761   4.787  1.00  0.00     0.016 A 
HETATM    5  C   UNL     1      43.786 -18.573   3.688  1.00  0.00     0.046 A 
HETATM    6  C   UNL     1      43.450 -18.099   2.333  1.00  0.00     0.275 A 
HETATM    7  O   UNL     1      43.685 -18.824   1.368  1.00  0.00    -0.266 OA
HETATM    8  C   UNL     1      43.819 -18.224   6.077  1.00  0.00     0.015 A 
HETATM    9  C   UNL     1      44.382 -19.492   6.254  1.00  0.00     0.001 A 
HETATM   10  C   UNL     1      44.649 -20.301   5.151  1.00  0.00     0.001 A 
HETATM   11  C   UNL     1      44.351 -19.843   3.867  1.00  0.00     0.018 A 
ENDROOT
BRANCH   3  12
HETATM   12  C   UNL     1      42.578 -15.509   5.663  1.00  0.00     0.291 C 
HETATM   13  N   UNL     1      43.584 -14.610   5.933  1.00  0.00    -0.262 N 
HETATM   14  H   UNL     1      44.522 -14.726   5.544  1.00  0.00     0.190 HD
HETATM   15  O   UNL     1      41.508 -15.572   6.250  1.00  0.00    -0.264 OA
BRANCH  13  16
HETATM   16  N   UNL     1      43.441 -13.725   7.004  1.00  0.00    -0.263 N 
HETATM   17  C   UNL     1      44.588 -13.195   7.559  1.00  0.00     0.270 C 
HETATM   18  O   UNL     1      45.711 -13.463   7.134  1.00  0.00    -0.266 OA
HETATM   19  H   UNL     1      42.523 -13.678   7.441  1.00  0.00     0.190 HD
BRANCH  17  20
HETATM   20  C   UNL     1      44.416 -12.286   8.725  1.00  0.00     0.036 A 
HETATM   21  C   UNL     1      43.275 -11.478   8.865  1.00  0.00     0.051 A 
HETATM   22  C   UNL     1      43.194 -10.626   9.975  1.00  0.00     0.085 A 
HETATM   23  C   UNL     1      44.233 -10.595  10.898  1.00  0.00     0.062 A 
HETATM   24  N   UNL     1      42.198  -9.749  10.329  1.00  0.00    -0.242 NA
HETATM   25  N   UNL     1      43.832  -9.667  11.827  1.00  0.00    -0.349 N 
HETATM   26  C   UNL     1      45.383 -11.377  10.784  1.00  0.00     0.033 A 
HETATM   27  H   UNL     1      44.350  -9.382  12.645  1.00  0.00     0.167 HD
HETATM   28  C   UNL     1      42.611  -9.189  11.443  1.00  0.00     0.208 A 
HETATM   29  C   UNL     1      45.453 -12.222   9.670  1.00  0.00     0.019 A 
ENDBRANCH  17  20
ENDBRANCH  13  16
ENDBRANCH   3  12
BRANCH   1  30
HETATM   30  C   UNL     1      42.527 -16.299   0.929  1.00  0.00     0.193 C 
BRANCH  30  31
HETATM   31  C   UNL     1      41.202 -15.571   0.926  1.00  0.00    -0.038 A 
HETATM   32  C   UNL     1      40.985 -14.491   0.058  1.00  0.00     0.009 A 
HETATM   33  C   UNL     1      39.764 -13.815   0.060  1.00  0.00     0.001 A 
HETATM   34  C   UNL     1      38.751 -14.207   0.934  1.00  0.00     0.000 A 
HETATM   35  C   UNL     1      38.960 -15.271   1.810  1.00  0.00     0.001 A 
HETATM   36  C   UNL     1      40.181 -15.947   1.811  1.00  0.00     0.009 A 
ENDBRANCH  30  31
ENDBRANCH   1  30
TORSDOF 5
ENDMDL
MODEL 5
REMARK VINA RESULT:      -9.4      1.280      4.636
REMARK  5 active torsions:
REMARK  status: ('A' for Active; 'I' for Inactive)
REMARK    1  A    between atoms: C_4  and  C_5 
REMARK    2  A    between atoms: C_5  and  N_6 
REMARK    3  A    between atoms: C_8  and  C_9 
REMARK       I    between atoms: C_9  and  N_10 
REMARK    4  A    between atoms: N_10  and  N_11 
REMARK       I    between atoms: N_11  and  C_12 
REMARK    5  A    between atoms: C_12  and  C_13 
ROOT
HETATM    1  N   UNL     1      43.948 -18.544   5.414  1.00  0.00    -0.229 N 
HETATM    2  N   UNL     1      43.077 -18.294   4.375  1.00  0.00    -0.163 NA
HETATM    3  C   UNL     1      42.694 -17.070   4.159  1.00  0.00     0.157 A 
HETATM    4  C   UNL     1      43.112 -15.923   4.979  1.00  0.00     0.016 A 
HETATM    5  C   UNL     1      43.987 -16.185   6.027  1.00  0.00     0.046 A 
HETATM    6  C   UNL     1      44.449 -17.565   6.267  1.00  0.00     0.275 A 
HETATM    7  O   UNL     1      45.223 -17.787   7.196  1.00  0.00    -0.266 OA
HETATM    8  C   UNL     1      42.651 -14.616   4.770  1.00  0.00     0.015 A 
HETATM    9  C   UNL     1      43.082 -13.581   5.607  1.00  0.00     0.001 A 
HETATM   10  C   UNL     1      43.964 -13.845   6.652  1.00  0.00     0.001 A 
HETATM   11  C   UNL     1      44.418 -15.147   6.864  1.00  0.00     0.018 A 
ENDROOT
BRANCH   3  12
HETATM   12  C   UNL     1      41.721 -16.874   3.004  1.00  0.00     0.291 C 
HETATM   13  N   UNL     1      42.350 -16.767   1.786  1.00  0.00    -0.262 N 
HETATM   14  H   UNL     1      43.358 -16.618   1.717  1.00  0.00     0.190 HD
HETATM   15  O   UNL     1      40.513 -16.832   3.185  1.00  0.00    -0.264 OA
BRANCH  13  16
HETATM   16  N   UNL     1      41.586 -16.519   0.642  1.00  0.00    -0.263 N 
HETATM   17  C   UNL     1      41.490 -15.214   0.204  1.00  0.00     0.270 C 
HETATM   18  O   UNL     1      42.059 -14.283   0.772  1.00  0.00    -0.266 OA
HETATM   19  H   UNL     1      40.987 -17.275   0.318  1.00  0.00     0.190 HD
BRANCH  17  20
HETATM   20  C   UNL     1      40.639 -14.966  -0.993  1.00  0.00     0.036 A 
HETATM   21  C   UNL     1      39.555 -14.074  -0.952  1.00  0.00     0.051 A 
HETATM   22  C   UNL     1      38.782 -13.911  -2.110  1.00  0.00     0.085 A 
HETATM   23  C   UNL     1      39.098 -14.632  -3.256  1.00  0.00     0.062 A 
HETATM   24  N   UNL     1      37.685 -13.112  -2.320  1.00  0.00    -0.242 NA
HETATM   25  N   UNL     1      38.152 -14.241  -4.171  1.00  0.00    -0.349 N 
HETATM   26  C   UNL     1      40.161 -15.532  -3.328  1.00  0.00     0.033 A 
HETATM   27  H   UNL     1      38.072 -14.571  -5.123  1.00  0.00     0.167 HD
HETATM   28  C   UNL     1      37.330 -13.334  -3.565  1.00  0.00     0.208 A 
HETATM   29  C   UNL     1      40.924 -15.687  -2.164  1.00  0.00     0.019 A 
ENDBRANCH  17  20
ENDBRANCH  13  16
ENDBRANCH   3  12
BRANCH   1  30
HETATM   30  C   UNL     1      44.385 -19.928   5.576  1.00  0.00     0.193 C 
BRANCH  30  31
HETATM   31  C   UNL     1      44.438 -20.672   4.261  1.00  0.00    -0.038 A 
HETATM   32  C   UNL     1      44.296 -19.984   3.048  1.00  0.00     0.009 A 
HETATM   33  C   UNL     1      44.338 -20.671   1.834  1.00  0.00     0.001 A 
HETATM   34  C   UNL     1      44.515 -22.054   1.822  1.00  0.00     0.000 A 
HETATM   35  C   UNL     1      44.644 -22.751   3.022  1.00  0.00     0.001 A 
HETATM   36  C   UNL     1      44.601 -22.064   4.237  1.00  0.00     0.009 A 
ENDBRANCH  30  31
ENDBRANCH   1  30
TORSDOF 5
ENDMDL
MODEL 6
REMARK VINA RESULT:      -8.9      3.356      8.509
REMARK  5 active torsions:
REMARK  status: ('A' for Active; 'I' for Inactive)
REMARK    1  A    between atoms: C_4  and  C_5 
REMARK    2  A    between atoms: C_5  and  N_6 
REMARK    3  A    between atoms: C_8  and  C_9 
REMARK       I    between atoms: C_9  and  N_10 
REMARK    4  A    between atoms: N_10  and  N_11 
REMARK       I    between atoms: N_11  and  C_12 
REMARK    5  A    between atoms: C_12  and  C_13 
ROOT
HETATM    1  N   UNL     1      40.674 -11.485   4.069  1.00  0.00    -0.229 N 
HETATM    2  N   UNL     1      41.016 -12.786   4.371  1.00  0.00    -0.163 NA
HETATM    3  C   UNL     1      40.456 -13.753   3.706  1.00  0.00     0.157 A 
HETATM    4  C   UNL     1      39.446 -13.548   2.657  1.00  0.00     0.016 A 
HETATM    5  C   UNL     1      39.104 -12.233   2.361  1.00  0.00     0.046 A 
HETATM    6  C   UNL     1      39.751 -11.127   3.091  1.00  0.00     0.275 A 
HETATM    7  O   UNL     1      39.442  -9.968   2.822  1.00  0.00    -0.266 OA
HETATM    8  C   UNL     1      38.811 -14.599   1.982  1.00  0.00     0.015 A 
HETATM    9  C   UNL     1      37.846 -14.323   1.008  1.00  0.00     0.001 A 
HETATM   10  C   UNL     1      37.509 -13.005   0.709  1.00  0.00     0.001 A 
HETATM   11  C   UNL     1      38.137 -11.958   1.384  1.00  0.00     0.018 A 
ENDROOT
BRANCH   3  12
HETATM   12  C   UNL     1      40.874 -15.161   4.106  1.00  0.00     0.291 C 
HETATM   13  N   UNL     1      41.643 -15.784   3.152  1.00  0.00    -0.262 N 
HETATM   14  H   UNL     1      41.725 -15.410   2.204  1.00  0.00     0.190 HD
HETATM   15  O   UNL     1      40.545 -15.645   5.179  1.00  0.00    -0.264 OA
BRANCH  13  16
HETATM   16  N   UNL     1      42.045 -17.107   3.354  1.00  0.00    -0.263 N 
HETATM   17  C   UNL     1      43.229 -17.516   2.775  1.00  0.00     0.270 C 
HETATM   18  O   UNL     1      43.935 -16.758   2.111  1.00  0.00    -0.266 OA
HETATM   19  H   UNL     1      41.352 -17.742   3.743  1.00  0.00     0.190 HD
BRANCH  17  20
HETATM   20  C   UNL     1      43.619 -18.939   2.970  1.00  0.00     0.036 A 
HETATM   21  C   UNL     1      44.098 -19.408   4.205  1.00  0.00     0.051 A 
HETATM   22  C   UNL     1      44.471 -20.755   4.307  1.00  0.00     0.085 A 
HETATM   23  C   UNL     1      44.367 -21.585   3.196  1.00  0.00     0.062 A 
HETATM   24  N   UNL     1      44.964 -21.443   5.388  1.00  0.00    -0.242 NA
HETATM   25  N   UNL     1      44.814 -22.804   3.642  1.00  0.00    -0.349 N 
HETATM   26  C   UNL     1      43.905 -21.150   1.954  1.00  0.00     0.033 A 
HETATM   27  H   UNL     1      44.883 -23.650   3.095  1.00  0.00     0.167 HD
HETATM   28  C   UNL     1      45.161 -22.668   4.957  1.00  0.00     0.208 A 
HETATM   29  C   UNL     1      43.536 -19.802   1.865  1.00  0.00     0.019 A 
ENDBRANCH  17  20
ENDBRANCH  13  16
ENDBRANCH   3  12
BRANCH   1  30
HETATM   30  C   UNL     1      41.373 -10.440   4.811  1.00  0.00     0.193 C 
BRANCH  30  31
HETATM   31  C   UNL     1      40.927 -10.361   6.253  1.00  0.00    -0.038 A 
HETATM   32  C   UNL     1      39.633  -9.924   6.574  1.00  0.00     0.009 A 
HETATM   33  C   UNL     1      39.223  -9.844   7.906  1.00  0.00     0.001 A 
HETATM   34  C   UNL     1      40.103 -10.193   8.929  1.00  0.00     0.000 A 
HETATM   35  C   UNL     1      41.395 -10.617   8.622  1.00  0.00     0.001 A 
HETATM   36  C   UNL     1      41.807 -10.696   7.291  1.00  0.00     0.009 A 
ENDBRANCH  30  31
ENDBRANCH   1  30
TORSDOF 5
ENDMDL
MODEL 7
REMARK VINA RESULT:      -8.9      4.271      8.964
REMARK  5 active torsions:
REMARK  status: ('A' for Active; 'I' for Inactive)
REMARK    1  A    between atoms: C_4  and  C_5 
REMARK    2  A    between atoms: C_5  and  N_6 
REMARK    3  A    between atoms: C_8  and  C_9 
REMARK       I    between atoms: C_9  and  N_10 
REMARK    4  A    between atoms: N_10  and  N_11 
REMARK       I    between atoms: N_11  and  C_12 
REMARK    5  A    between atoms: C_12  and  C_13 
ROOT
HETATM    1  N   UNL     1      43.696 -17.705   3.426  1.00  0.00    -0.229 N 
HETATM    2  N   UNL     1      43.415 -16.854   4.473  1.00  0.00    -0.163 NA
HETATM    3  C   UNL     1      42.465 -15.976   4.332  1.00  0.00     0.157 A 
HETATM    4  C   UNL     1      41.679 -15.811   3.100  1.00  0.00     0.016 A 
HETATM    5  C   UNL     1      41.971 -16.671   2.047  1.00  0.00     0.046 A 
HETATM    6  C   UNL     1      43.029 -17.687   2.204  1.00  0.00     0.275 A 
HETATM    7  O   UNL     1      43.279 -18.443   1.268  1.00  0.00    -0.266 OA
HETATM    8  C   UNL     1      40.693 -14.828   2.940  1.00  0.00     0.015 A 
HETATM    9  C   UNL     1      40.001 -14.723   1.729  1.00  0.00     0.001 A 
HETATM   10  C   UNL     1      40.291 -15.590   0.678  1.00  0.00     0.001 A 
HETATM   11  C   UNL     1      41.276 -16.565   0.835  1.00  0.00     0.018 A 
ENDROOT
BRANCH   3  12
HETATM   12  C   UNL     1      42.224 -15.063   5.526  1.00  0.00     0.291 C 
HETATM   13  N   UNL     1      43.240 -14.157   5.722  1.00  0.00    -0.262 N 
HETATM   14  H   UNL     1      44.140 -14.254   5.246  1.00  0.00     0.190 HD
HETATM   15  O   UNL     1      41.213 -15.153   6.206  1.00  0.00    -0.264 OA
BRANCH  13  16
HETATM   16  N   UNL     1      43.186 -13.297   6.821  1.00  0.00    -0.263 N 
HETATM   17  C   UNL     1      44.341 -13.117   7.555  1.00  0.00     0.270 C 
HETATM   18  O   UNL     1      45.401 -13.670   7.264  1.00  0.00    -0.266 OA
HETATM   19  H   UNL     1      42.261 -13.012   7.136  1.00  0.00     0.190 HD
BRANCH  17  20
HETATM   20  C   UNL     1      44.252 -12.227   8.745  1.00  0.00     0.036 A 
HETATM   21  C   UNL     1      43.150 -11.381   8.950  1.00  0.00     0.051 A 
HETATM   22  C   UNL     1      43.147 -10.551  10.080  1.00  0.00     0.085 A 
HETATM   23  C   UNL     1      44.225 -10.580  10.958  1.00  0.00     0.062 A 
HETATM   24  N   UNL     1      42.201  -9.646  10.493  1.00  0.00    -0.242 NA
HETATM   25  N   UNL     1      43.898  -9.658  11.922  1.00  0.00    -0.349 N 
HETATM   26  C   UNL     1      45.338 -11.401  10.780  1.00  0.00     0.033 A 
HETATM   27  H   UNL     1      44.460  -9.411  12.724  1.00  0.00     0.167 HD
HETATM   28  C   UNL     1      42.682  -9.126  11.600  1.00  0.00     0.208 A 
HETATM   29  C   UNL     1      45.329 -12.223   9.648  1.00  0.00     0.019 A 
ENDBRANCH  17  20
ENDBRANCH  13  16
ENDBRANCH   3  12
BRANCH   1  30
HETATM   30  C   UNL     1      44.735 -18.704   3.661  1.00  0.00     0.193 C 
BRANCH  30  31
HETATM   31  C   UNL     1      44.406 -19.614   4.822  1.00  0.00    -0.038 A 
HETATM   32  C   UNL     1      43.841 -19.094   5.995  1.00  0.00     0.009 A 
HETATM   33  C   UNL     1      43.543 -19.934   7.070  1.00  0.00     0.001 A 
HETATM   34  C   UNL     1      43.815 -21.298   6.985  1.00  0.00     0.000 A 
HETATM   35  C   UNL     1      44.388 -21.824   5.828  1.00  0.00     0.001 A 
HETATM   36  C   UNL     1      44.688 -20.985   4.754  1.00  0.00     0.009 A 
ENDBRANCH  30  31
ENDBRANCH   1  30
TORSDOF 5
ENDMDL
MODEL 8
REMARK VINA RESULT:      -8.7      4.237      7.511
REMARK  5 active torsions:
REMARK  status: ('A' for Active; 'I' for Inactive)
REMARK    1  A    between atoms: C_4  and  C_5 
REMARK    2  A    between atoms: C_5  and  N_6 
REMARK    3  A    between atoms: C_8  and  C_9 
REMARK       I    between atoms: C_9  and  N_10 
REMARK    4  A    between atoms: N_10  and  N_11 
REMARK       I    between atoms: N_11  and  C_12 
REMARK    5  A    between atoms: C_12  and  C_13 
ROOT
HETATM    1  N   UNL     1      42.496 -16.932   2.461  1.00  0.00    -0.229 N 
HETATM    2  N   UNL     1      42.395 -15.776   3.206  1.00  0.00    -0.163 NA
HETATM    3  C   UNL     1      42.906 -15.753   4.402  1.00  0.00     0.157 A 
HETATM    4  C   UNL     1      43.569 -16.905   5.032  1.00  0.00     0.016 A 
HETATM    5  C   UNL     1      43.664 -18.068   4.275  1.00  0.00     0.046 A 
HETATM    6  C   UNL     1      43.111 -18.098   2.908  1.00  0.00     0.275 A 
HETATM    7  O   UNL     1      43.200 -19.130   2.247  1.00  0.00    -0.266 OA
HETATM    8  C   UNL     1      44.070 -16.886   6.340  1.00  0.00     0.015 A 
HETATM    9  C   UNL     1      44.672 -18.030   6.875  1.00  0.00     0.001 A 
HETATM   10  C   UNL     1      44.772 -19.192   6.113  1.00  0.00     0.001 A 
HETATM   11  C   UNL     1      44.268 -19.213   4.812  1.00  0.00     0.018 A 
ENDROOT
BRANCH   3  12
HETATM   12  C   UNL     1      42.741 -14.448   5.168  1.00  0.00     0.291 C 
HETATM   13  N   UNL     1      41.521 -14.344   5.795  1.00  0.00    -0.262 N 
HETATM   14  H   UNL     1      40.752 -14.980   5.574  1.00  0.00     0.190 HD
HETATM   15  O   UNL     1      43.631 -13.611   5.205  1.00  0.00    -0.264 OA
BRANCH  13  16
HETATM   16  N   UNL     1      41.204 -13.170   6.482  1.00  0.00    -0.263 N 
HETATM   17  C   UNL     1      39.957 -12.618   6.271  1.00  0.00     0.270 C 
HETATM   18  O   UNL     1      39.127 -13.129   5.520  1.00  0.00    -0.266 OA
HETATM   19  H   UNL     1      41.972 -12.684   6.939  1.00  0.00     0.190 HD
BRANCH  17  20
HETATM   20  C   UNL     1      39.654 -11.346   6.982  1.00  0.00     0.036 A 
HETATM   21  C   UNL     1      39.409 -11.317   8.365  1.00  0.00     0.051 A 
HETATM   22  C   UNL     1      39.103 -10.086   8.962  1.00  0.00     0.085 A 
HETATM   23  C   UNL     1      39.043  -8.937   8.181  1.00  0.00     0.062 A 
HETATM   24  N   UNL     1      38.825  -9.801  10.276  1.00  0.00    -0.242 NA
HETATM   25  N   UNL     1      38.719  -7.942   9.070  1.00  0.00    -0.349 N 
HETATM   26  C   UNL     1      39.271  -8.932   6.805  1.00  0.00     0.033 A 
HETATM   27  H   UNL     1      38.586  -6.966   8.848  1.00  0.00     0.167 HD
HETATM   28  C   UNL     1      38.598  -8.507  10.308  1.00  0.00     0.208 A 
HETATM   29  C   UNL     1      39.574 -10.167   6.221  1.00  0.00     0.019 A 
ENDBRANCH  17  20
ENDBRANCH  13  16
ENDBRANCH   3  12
BRANCH   1  30
HETATM   30  C   UNL     1      41.952 -16.882   1.107  1.00  0.00     0.193 C 
BRANCH  30  31
HETATM   31  C   UNL     1      40.824 -15.884   0.977  1.00  0.00    -0.038 A 
HETATM   32  C   UNL     1      39.749 -15.904   1.877  1.00  0.00     0.009 A 
HETATM   33  C   UNL     1      38.704 -14.988   1.753  1.00  0.00     0.001 A 
HETATM   34  C   UNL     1      38.720 -14.047   0.724  1.00  0.00     0.000 A 
HETATM   35  C   UNL     1      39.777 -14.026  -0.184  1.00  0.00     0.001 A 
HETATM   36  C   UNL     1      40.822 -14.943  -0.062  1.00  0.00     0.009 A 
ENDBRANCH  30  31
ENDBRANCH   1  30
TORSDOF 5
ENDMDL
MODEL 9
REMARK VINA RESULT:      -8.7      4.322      8.763
REMARK  5 active torsions:
REMARK  status: ('A' for Active; 'I' for Inactive)
REMARK    1  A    between atoms: C_4  and  C_5 
REMARK    2  A    between atoms: C_5  and  N_6 
REMARK    3  A    between atoms: C_8  and  C_9 
REMARK       I    between atoms: C_9  and  N_10 
REMARK    4  A    between atoms: N_10  and  N_11 
REMARK       I    between atoms: N_11  and  C_12 
REMARK    5  A    between atoms: C_12  and  C_13 
ROOT
HETATM    1  N   UNL     1      41.392 -11.095   7.260  1.00  0.00    -0.229 N 
HETATM    2  N   UNL     1      41.957 -12.152   6.580  1.00  0.00    -0.163 NA
HETATM    3  C   UNL     1      43.078 -12.650   7.012  1.00  0.00     0.157 A 
HETATM    4  C   UNL     1      43.808 -12.133   8.180  1.00  0.00     0.016 A 
HETATM    5  C   UNL     1      43.233 -11.064   8.858  1.00  0.00     0.046 A 
HETATM    6  C   UNL     1      41.949 -10.507   8.392  1.00  0.00     0.275 A 
HETATM    7  O   UNL     1      41.449  -9.562   8.999  1.00  0.00    -0.266 OA
HETATM    8  C   UNL     1      45.041 -12.643   8.606  1.00  0.00     0.015 A 
HETATM    9  C   UNL     1      45.683 -12.085   9.716  1.00  0.00     0.001 A 
HETATM   10  C   UNL     1      45.102 -11.018  10.398  1.00  0.00     0.001 A 
HETATM   11  C   UNL     1      43.877 -10.506   9.971  1.00  0.00     0.018 A 
ENDROOT
BRANCH   3  12
HETATM   12  C   UNL     1      43.647 -13.805   6.200  1.00  0.00     0.291 C 
HETATM   13  N   UNL     1      43.265 -15.037   6.679  1.00  0.00    -0.262 N 
HETATM   14  H   UNL     1      42.834 -15.140   7.600  1.00  0.00     0.190 HD
HETATM   15  O   UNL     1      44.357 -13.613   5.224  1.00  0.00    -0.264 OA
BRANCH  13  16
HETATM   16  N   UNL     1      43.765 -16.191   6.072  1.00  0.00    -0.263 N 
HETATM   17  C   UNL     1      42.918 -16.903   5.247  1.00  0.00     0.270 C 
HETATM   18  O   UNL     1      41.762 -16.547   5.023  1.00  0.00    -0.266 OA
HETATM   19  H   UNL     1      44.650 -16.549   6.426  1.00  0.00     0.190 HD
BRANCH  17  20
HETATM   20  C   UNL     1      43.459 -18.151   4.641  1.00  0.00     0.036 A 
HETATM   21  C   UNL     1      42.982 -18.639   3.413  1.00  0.00     0.051 A 
HETATM   22  C   UNL     1      43.519 -19.835   2.918  1.00  0.00     0.085 A 
HETATM   23  C   UNL     1      44.494 -20.507   3.647  1.00  0.00     0.062 A 
HETATM   24  N   UNL     1      43.221 -20.510   1.760  1.00  0.00    -0.242 NA
HETATM   25  N   UNL     1      44.779 -21.615   2.888  1.00  0.00    -0.349 N 
HETATM   26  C   UNL     1      44.982 -20.056   4.873  1.00  0.00     0.033 A 
HETATM   27  H   UNL     1      45.446 -22.338   3.117  1.00  0.00     0.167 HD
HETATM   28  C   UNL     1      43.992 -21.573   1.771  1.00  0.00     0.208 A 
HETATM   29  C   UNL     1      44.437 -18.861   5.357  1.00  0.00     0.019 A 
ENDBRANCH  17  20
ENDBRANCH  13  16
ENDBRANCH   3  12
BRANCH   1  30
HETATM   30  C   UNL     1      40.108 -10.612   6.761  1.00  0.00     0.193 C 
BRANCH  30  31
HETATM   31  C   UNL     1      39.971 -10.783   5.265  1.00  0.00    -0.038 A 
HETATM   32  C   UNL     1      39.108 -11.753   4.736  1.00  0.00     0.009 A 
HETATM   33  C   UNL     1      38.987 -11.916   3.355  1.00  0.00     0.001 A 
HETATM   34  C   UNL     1      39.732 -11.115   2.491  1.00  0.00     0.000 A 
HETATM   35  C   UNL     1      40.602 -10.156   3.005  1.00  0.00     0.001 A 
HETATM   36  C   UNL     1      40.726  -9.994   4.386  1.00  0.00     0.009 A 
ENDBRANCH  30  31
ENDBRANCH   1  30
TORSDOF 5
ENDMDL
MODEL 10
REMARK VINA RESULT:      -8.7      5.743      9.917
REMARK  5 active torsions:
REMARK  status: ('A' for Active; 'I' for Inactive)
REMARK    1  A    between atoms: C_4  and  C_5 
REMARK    2  A    between atoms: C_5  and  N_6 
REMARK    3  A    between atoms: C_8  and  C_9 
REMARK       I    between atoms: C_9  and  N_10 
REMARK    4  A    between atoms: N_10  and  N_11 
REMARK       I    between atoms: N_11  and  C_12 
REMARK    5  A    between atoms: C_12  and  C_13 
ROOT
HETATM    1  N   UNL     1      41.044 -15.939   4.654  1.00  0.00    -0.229 N 
HETATM    2  N   UNL     1      40.575 -14.985   5.531  1.00  0.00    -0.163 NA
HETATM    3  C   UNL     1      40.472 -13.754   5.124  1.00  0.00     0.157 A 
HETATM    4  C   UNL     1      40.855 -13.302   3.777  1.00  0.00     0.016 A 
HETATM    5  C   UNL     1      41.330 -14.270   2.900  1.00  0.00     0.046 A 
HETATM    6  C   UNL     1      41.428 -15.674   3.342  1.00  0.00     0.275 A 
HETATM    7  O   UNL     1      41.849 -16.522   2.559  1.00  0.00    -0.266 OA
HETATM    8  C   UNL     1      40.789 -11.964   3.365  1.00  0.00     0.015 A 
HETATM    9  C   UNL     1      41.190 -11.610   2.073  1.00  0.00     0.001 A 
HETATM   10  C   UNL     1      41.660 -12.583   1.193  1.00  0.00     0.001 A 
HETATM   11  C   UNL     1      41.731 -13.914   1.605  1.00  0.00     0.018 A 
ENDROOT
BRANCH   3  12
HETATM   12  C   UNL     1      39.961 -12.756   6.153  1.00  0.00     0.291 C 
HETATM   13  N   UNL     1      40.963 -12.235   6.938  1.00  0.00    -0.262 N 
HETATM   14  H   UNL     1      41.897 -12.650   6.956  1.00  0.00     0.190 HD
HETATM   15  O   UNL     1      38.776 -12.469   6.233  1.00  0.00    -0.264 OA
BRANCH  13  16
HETATM   16  N   UNL     1      40.634 -11.354   7.971  1.00  0.00    -0.263 N 
HETATM   17  C   UNL     1      41.656 -10.626   8.547  1.00  0.00     0.270 C 
HETATM   18  O   UNL     1      42.824 -10.719   8.172  1.00  0.00    -0.266 OA
HETATM   19  H   UNL     1      39.703 -11.445   8.372  1.00  0.00     0.190 HD
BRANCH  17  20
HETATM   20  C   UNL     1      41.289  -9.723   9.672  1.00  0.00     0.036 A 
HETATM   21  C   UNL     1      41.243 -10.183  10.998  1.00  0.00     0.051 A 
HETATM   22  C   UNL     1      40.863  -9.282  12.003  1.00  0.00     0.085 A 
HETATM   23  C   UNL     1      40.539  -7.972  11.668  1.00  0.00     0.062 A 
HETATM   24  N   UNL     1      40.740  -9.486  13.355  1.00  0.00    -0.242 NA
HETATM   25  N   UNL     1      40.215  -7.387  12.867  1.00  0.00    -0.349 N 
HETATM   26  C   UNL     1      40.566  -7.486  10.361  1.00  0.00     0.033 A 
HETATM   27  H   UNL     1      39.922  -6.431  13.002  1.00  0.00     0.167 HD
HETATM   28  C   UNL     1      40.348  -8.332  13.845  1.00  0.00     0.208 A 
HETATM   29  C   UNL     1      40.945  -8.396   9.367  1.00  0.00     0.019 A 
ENDBRANCH  17  20
ENDBRANCH  13  16
ENDBRANCH   3  12
BRANCH   1  30
HETATM   30  C   UNL     1      41.088 -17.312   5.149  1.00  0.00     0.193 C 
BRANCH  30  31
HETATM   31  C   UNL     1      42.385 -17.626   5.858  1.00  0.00    -0.038 A 
HETATM   32  C   UNL     1      43.462 -18.187   5.156  1.00  0.00     0.009 A 
HETATM   33  C   UNL     1      44.658 -18.483   5.812  1.00  0.00     0.001 A 
HETATM   34  C   UNL     1      44.786 -18.230   7.176  1.00  0.00     0.000 A 
HETATM   35  C   UNL     1      43.718 -17.685   7.887  1.00  0.00     0.001 A 
HETATM   36  C   UNL     1      42.522 -17.390   7.233  1.00  0.00     0.009 A 
ENDBRANCH  30  31
ENDBRANCH   1  30
TORSDOF 5
ENDMDL
