MODEL 1
REMARK VINA RESULT:      -9.0      0.000      0.000
REMARK  8 active torsions:
REMARK  status: ('A' for Active; 'I' for Inactive)
REMARK    1  A    between atoms: C_2  and  O_3 
REMARK    2  A    between atoms: O_3  and  C_4 
REMARK    3  A    between atoms: C_4  and  C_5 
REMARK    4  A    between atoms: C_6  and  C_7 
REMARK    5  A    between atoms: C_7  and  N_8 
REMARK    6  A    between atoms: C_12  and  N_13 
REMARK    7  A    between atoms: C_12  and  C_20 
REMARK       I    between atoms: C_20  and  N_21 
REMARK    8  A    between atoms: N_25  and  C_26 
ROOT
HETATM    1  N   UNL     1      41.977 -17.126   3.921  1.00  0.00    -0.066 N 
HETATM    2  H   UNL     1      41.482 -17.610   3.145  1.00  0.00     0.280 HD
HETATM    3  C   UNL     1      41.131 -15.998   4.426  1.00  0.00     0.238 C 
HETATM    4  C   UNL     1      40.851 -15.020   3.282  1.00  0.00     0.077 C 
HETATM    5  C   UNL     1      42.144 -14.475   2.637  1.00  0.00     0.210 C 
HETATM    6  C   UNL     1      43.015 -15.690   2.210  1.00  0.00     0.077 C 
HETATM    7  C   UNL     1      43.288 -16.657   3.360  1.00  0.00     0.238 C 
ENDROOT
BRANCH   1   8
HETATM    8  C   UNL     1      42.175 -18.240   4.950  1.00  0.00     0.294 C 
BRANCH   8   9
HETATM    9  C   UNL     1      43.554 -18.324   5.503  1.00  0.00     0.080 C 
HETATM   10  C   UNL     1      44.173 -17.663   6.569  1.00  0.00     0.085 C 
HETATM   11  C   UNL     1      45.522 -18.047   6.483  1.00  0.00     0.159 C 
HETATM   12  N   UNL     1      45.752 -18.830   5.437  1.00  0.00    -0.178 NA
HETATM   13  N   UNL     1      44.532 -19.168   4.968  1.00  0.00    -0.235 N 
BRANCH  10  14
HETATM   14  C   UNL     1      43.578 -16.716   7.492  1.00  0.00     0.296 C 
HETATM   15  O   UNL     1      43.214 -17.067   8.613  1.00  0.00    -0.259 OA
BRANCH  14  16
HETATM   16  O   UNL     1      43.408 -15.484   6.957  1.00  0.00    -0.318 OA
BRANCH  16  17
HETATM   17  C   UNL     1      44.587 -14.683   6.781  1.00  0.00     0.174 C 
HETATM   18  C   UNL     1      44.628 -13.566   7.809  1.00  0.00     0.034 C 
ENDBRANCH  16  17
ENDBRANCH  14  16
ENDBRANCH  10  14
BRANCH  13  19
HETATM   19  C   UNL     1      44.423 -20.140   3.936  1.00  0.00     0.064 A 
HETATM   20  C   UNL     1      44.549 -21.526   4.158  1.00  0.00    -0.033 A 
HETATM   21  C   UNL     1      45.045 -22.163   5.426  1.00  0.00     0.050 C 
HETATM   22  C   UNL     1      44.319 -22.398   3.073  1.00  0.00     0.009 A 
HETATM   23  C   UNL     1      44.042 -21.909   1.796  1.00  0.00     0.001 A 
HETATM   24  C   UNL     1      44.005 -20.539   1.571  1.00  0.00     0.002 A 
HETATM   25  C   UNL     1      44.202 -19.657   2.632  1.00  0.00     0.032 A 
ENDBRANCH  13  19
ENDBRANCH   8   9
ENDBRANCH   1   8
BRANCH   5  26
HETATM   26  N   UNL     1      41.780 -13.667   1.304  1.00  0.00    -0.053 N 
HETATM   27  H   UNL     1      42.547 -13.000   1.138  1.00  0.00     0.281 HD
HETATM   28  C   UNL     1      41.668 -14.503   0.034  1.00  0.00     0.236 C 
HETATM   29  C   UNL     1      41.535 -13.591  -1.179  1.00  0.00     0.028 C 
HETATM   30  C   UNL     1      40.333 -12.666  -1.062  1.00  0.00     0.003 C 
HETATM   31  C   UNL     1      40.377 -11.887   0.244  1.00  0.00     0.028 C 
HETATM   32  C   UNL     1      40.509 -12.810   1.449  1.00  0.00     0.236 C 
ENDBRANCH   5  26
BRANCH   5  33
HETATM   33  C   UNL     1      42.953 -13.587   3.630  1.00  0.00     0.252 C 
HETATM   34  N   UNL     1      42.285 -12.820   4.530  1.00  0.00    -0.368 N 
HETATM   35  H   UNL     1      41.286 -12.744   4.676  1.00  0.00     0.159 HD
HETATM   36  H   UNL     1      42.853 -12.232   5.141  1.00  0.00     0.159 HD
HETATM   37  O   UNL     1      44.179 -13.542   3.583  1.00  0.00    -0.271 OA
ENDBRANCH   5  33
TORSDOF 8
ENDMDL
MODEL 2
REMARK VINA RESULT:      -8.6      1.339      2.022
REMARK  8 active torsions:
REMARK  status: ('A' for Active; 'I' for Inactive)
REMARK    1  A    between atoms: C_2  and  O_3 
REMARK    2  A    between atoms: O_3  and  C_4 
REMARK    3  A    between atoms: C_4  and  C_5 
REMARK    4  A    between atoms: C_6  and  C_7 
REMARK    5  A    between atoms: C_7  and  N_8 
REMARK    6  A    between atoms: C_12  and  N_13 
REMARK    7  A    between atoms: C_12  and  C_20 
REMARK       I    between atoms: C_20  and  N_21 
REMARK    8  A    between atoms: N_25  and  C_26 
ROOT
HETATM    1  N   UNL     1      42.158 -16.467   4.134  1.00  0.00    -0.066 N 
HETATM    2  H   UNL     1      42.349 -15.834   4.936  1.00  0.00     0.280 HD
HETATM    3  C   UNL     1      43.160 -16.213   3.050  1.00  0.00     0.238 C 
HETATM    4  C   UNL     1      43.071 -14.751   2.605  1.00  0.00     0.077 C 
HETATM    5  C   UNL     1      41.654 -14.360   2.131  1.00  0.00     0.210 C 
HETATM    6  C   UNL     1      40.652 -14.723   3.263  1.00  0.00     0.077 C 
HETATM    7  C   UNL     1      40.751 -16.185   3.695  1.00  0.00     0.238 C 
ENDROOT
BRANCH   1   8
HETATM    8  C   UNL     1      42.282 -17.858   4.756  1.00  0.00     0.294 C 
BRANCH   8   9
HETATM    9  C   UNL     1      43.578 -18.108   5.443  1.00  0.00     0.080 C 
HETATM   10  C   UNL     1      44.159 -17.530   6.576  1.00  0.00     0.085 C 
HETATM   11  C   UNL     1      45.455 -18.071   6.620  1.00  0.00     0.159 C 
HETATM   12  N   UNL     1      45.696 -18.873   5.590  1.00  0.00    -0.178 NA
HETATM   13  N   UNL     1      44.498 -19.061   4.996  1.00  0.00    -0.235 N 
BRANCH  10  14
HETATM   14  C   UNL     1      43.591 -16.522   7.450  1.00  0.00     0.296 C 
HETATM   15  O   UNL     1      43.443 -16.735   8.652  1.00  0.00    -0.259 OA
BRANCH  14  16
HETATM   16  O   UNL     1      43.186 -15.411   6.791  1.00  0.00    -0.318 OA
BRANCH  16  17
HETATM   17  C   UNL     1      44.214 -14.520   6.326  1.00  0.00     0.174 C 
HETATM   18  C   UNL     1      44.839 -13.777   7.493  1.00  0.00     0.034 C 
ENDBRANCH  16  17
ENDBRANCH  14  16
ENDBRANCH  10  14
BRANCH  13  19
HETATM   19  C   UNL     1      44.379 -20.010   3.943  1.00  0.00     0.064 A 
HETATM   20  C   UNL     1      44.520 -21.399   4.130  1.00  0.00    -0.033 A 
HETATM   21  C   UNL     1      45.040 -22.062   5.375  1.00  0.00     0.050 C 
HETATM   22  C   UNL     1      44.279 -22.247   3.029  1.00  0.00     0.009 A 
HETATM   23  C   UNL     1      43.978 -21.730   1.768  1.00  0.00     0.001 A 
HETATM   24  C   UNL     1      43.928 -20.356   1.576  1.00  0.00     0.002 A 
HETATM   25  C   UNL     1      44.135 -19.498   2.654  1.00  0.00     0.032 A 
ENDBRANCH  13  19
ENDBRANCH   8   9
ENDBRANCH   1   8
BRANCH   5  26
HETATM   26  N   UNL     1      41.575 -12.775   1.925  1.00  0.00    -0.053 N 
HETATM   27  H   UNL     1      42.293 -12.357   2.532  1.00  0.00     0.281 HD
HETATM   28  C   UNL     1      41.873 -12.275   0.516  1.00  0.00     0.236 C 
HETATM   29  C   UNL     1      41.975 -10.755   0.513  1.00  0.00     0.028 C 
HETATM   30  C   UNL     1      40.703 -10.102   1.035  1.00  0.00     0.003 C 
HETATM   31  C   UNL     1      40.336 -10.654   2.403  1.00  0.00     0.028 C 
HETATM   32  C   UNL     1      40.236 -12.174   2.392  1.00  0.00     0.236 C 
ENDBRANCH   5  26
BRANCH   5  33
HETATM   33  C   UNL     1      41.254 -15.118   0.829  1.00  0.00     0.252 C 
HETATM   34  N   UNL     1      42.218 -15.730   0.094  1.00  0.00    -0.368 N 
HETATM   35  H   UNL     1      43.212 -15.789   0.281  1.00  0.00     0.159 HD
HETATM   36  H   UNL     1      41.917 -16.188  -0.767  1.00  0.00     0.159 HD
HETATM   37  O   UNL     1      40.090 -15.134   0.439  1.00  0.00    -0.271 OA
ENDBRANCH   5  33
TORSDOF 8
ENDMDL
MODEL 3
REMARK VINA RESULT:      -8.4      2.575      3.912
REMARK  8 active torsions:
REMARK  status: ('A' for Active; 'I' for Inactive)
REMARK    1  A    between atoms: C_2  and  O_3 
REMARK    2  A    between atoms: O_3  and  C_4 
REMARK    3  A    between atoms: C_4  and  C_5 
REMARK    4  A    between atoms: C_6  and  C_7 
REMARK    5  A    between atoms: C_7  and  N_8 
REMARK    6  A    between atoms: C_12  and  N_13 
REMARK    7  A    between atoms: C_12  and  C_20 
REMARK       I    between atoms: C_20  and  N_21 
REMARK    8  A    between atoms: N_25  and  C_26 
ROOT
HETATM    1  N   UNL     1      41.804 -15.492   2.009  1.00  0.00    -0.066 N 
HETATM    2  H   UNL     1      41.176 -16.305   2.168  1.00  0.00     0.280 HD
HETATM    3  C   UNL     1      40.984 -14.245   1.883  1.00  0.00     0.238 C 
HETATM    4  C   UNL     1      40.003 -14.395   0.717  1.00  0.00     0.077 C 
HETATM    5  C   UNL     1      40.713 -14.709  -0.618  1.00  0.00     0.210 C 
HETATM    6  C   UNL     1      41.611 -15.960  -0.402  1.00  0.00     0.077 C 
HETATM    7  C   UNL     1      42.585 -15.796   0.764  1.00  0.00     0.238 C 
ENDROOT
BRANCH   1   8
HETATM    8  C   UNL     1      42.701 -15.502   3.248  1.00  0.00     0.294 C 
BRANCH   8   9
HETATM    9  C   UNL     1      42.099 -16.169   4.433  1.00  0.00     0.080 C 
HETATM   10  C   UNL     1      41.230 -15.703   5.424  1.00  0.00     0.085 C 
HETATM   11  C   UNL     1      41.163 -16.754   6.355  1.00  0.00     0.159 C 
HETATM   12  N   UNL     1      41.952 -17.767   6.020  1.00  0.00    -0.178 NA
HETATM   13  N   UNL     1      42.354 -17.505   4.758  1.00  0.00    -0.235 N 
BRANCH  10  14
HETATM   14  C   UNL     1      40.615 -14.393   5.523  1.00  0.00     0.296 C 
HETATM   15  O   UNL     1      39.427 -14.229   5.254  1.00  0.00    -0.259 OA
BRANCH  14  16
HETATM   16  O   UNL     1      41.493 -13.415   5.848  1.00  0.00    -0.318 OA
BRANCH  16  17
HETATM   17  C   UNL     1      40.966 -12.084   5.975  1.00  0.00     0.174 C 
HETATM   18  C   UNL     1      41.351 -11.244   4.770  1.00  0.00     0.034 C 
ENDBRANCH  16  17
ENDBRANCH  14  16
ENDBRANCH  10  14
BRANCH  13  19
HETATM   19  C   UNL     1      43.090 -18.487   4.039  1.00  0.00     0.064 A 
HETATM   20  C   UNL     1      44.270 -19.085   4.526  1.00  0.00    -0.033 A 
HETATM   21  C   UNL     1      45.047 -18.623   5.727  1.00  0.00     0.050 C 
HETATM   22  C   UNL     1      44.854 -20.120   3.768  1.00  0.00     0.009 A 
HETATM   23  C   UNL     1      44.326 -20.501   2.534  1.00  0.00     0.001 A 
HETATM   24  C   UNL     1      43.213 -19.846   2.023  1.00  0.00     0.002 A 
HETATM   25  C   UNL     1      42.601 -18.838   2.766  1.00  0.00     0.032 A 
ENDBRANCH  13  19
ENDBRANCH   8   9
ENDBRANCH   1   8
BRANCH   5  26
HETATM   26  N   UNL     1      39.626 -15.099  -1.726  1.00  0.00    -0.053 N 
HETATM   27  H   UNL     1      39.021 -15.822  -1.312  1.00  0.00     0.281 HD
HETATM   28  C   UNL     1      38.695 -13.973  -2.164  1.00  0.00     0.236 C 
HETATM   29  C   UNL     1      37.586 -14.529  -3.048  1.00  0.00     0.028 C 
HETATM   30  C   UNL     1      38.141 -15.245  -4.270  1.00  0.00     0.003 C 
HETATM   31  C   UNL     1      39.143 -16.313  -3.860  1.00  0.00     0.028 C 
HETATM   32  C   UNL     1      40.247 -15.744  -2.978  1.00  0.00     0.236 C 
ENDBRANCH   5  26
BRANCH   5  33
HETATM   33  C   UNL     1      41.599 -13.518  -1.093  1.00  0.00     0.252 C 
HETATM   34  N   UNL     1      42.564 -13.737  -2.023  1.00  0.00    -0.368 N 
HETATM   35  H   UNL     1      42.800 -14.600  -2.496  1.00  0.00     0.159 HD
HETATM   36  H   UNL     1      43.140 -12.935  -2.283  1.00  0.00     0.159 HD
HETATM   37  O   UNL     1      41.463 -12.397  -0.610  1.00  0.00    -0.271 OA
ENDBRANCH   5  33
TORSDOF 8
ENDMDL
MODEL 4
REMARK VINA RESULT:      -8.3      2.496      5.470
REMARK  8 active torsions:
REMARK  status: ('A' for Active; 'I' for Inactive)
REMARK    1  A    between atoms: C_2  and  O_3 
REMARK    2  A    between atoms: O_3  and  C_4 
REMARK    3  A    between atoms: C_4  and  C_5 
REMARK    4  A    between atoms: C_6  and  C_7 
REMARK    5  A    between atoms: C_7  and  N_8 
REMARK    6  A    between atoms: C_12  and  N_13 
REMARK    7  A    between atoms: C_12  and  C_20 
REMARK       I    between atoms: C_20  and  N_21 
REMARK    8  A    between atoms: N_25  and  C_26 
ROOT
HETATM    1  N   UNL     1      42.995 -15.760   2.083  1.00  0.00    -0.066 N 
HETATM    2  H   UNL     1      43.651 -15.809   1.276  1.00  0.00     0.280 HD
HETATM    3  C   UNL     1      41.899 -16.763   1.895  1.00  0.00     0.238 C 
HETATM    4  C   UNL     1      41.158 -16.471   0.588  1.00  0.00     0.077 C 
HETATM    5  C   UNL     1      40.588 -15.036   0.538  1.00  0.00     0.210 C 
HETATM    6  C   UNL     1      41.753 -14.047   0.821  1.00  0.00     0.077 C 
HETATM    7  C   UNL     1      42.484 -14.350   2.129  1.00  0.00     0.238 C 
ENDROOT
BRANCH   1   8
HETATM    8  C   UNL     1      43.897 -16.067   3.279  1.00  0.00     0.294 C 
BRANCH   8   9
HETATM    9  C   UNL     1      43.273 -16.943   4.307  1.00  0.00     0.080 C 
HETATM   10  C   UNL     1      43.434 -18.302   4.596  1.00  0.00     0.085 C 
HETATM   11  C   UNL     1      42.449 -18.574   5.562  1.00  0.00     0.159 C 
HETATM   12  N   UNL     1      41.700 -17.510   5.823  1.00  0.00    -0.178 NA
HETATM   13  N   UNL     1      42.328 -16.475   5.225  1.00  0.00    -0.235 N 
BRANCH  10  14
HETATM   14  C   UNL     1      44.342 -19.242   3.968  1.00  0.00     0.296 C 
HETATM   15  O   UNL     1      45.155 -19.879   4.635  1.00  0.00    -0.259 OA
BRANCH  14  16
HETATM   16  O   UNL     1      44.242 -19.262   2.619  1.00  0.00    -0.318 OA
BRANCH  16  17
HETATM   17  C   UNL     1      43.307 -20.193   2.049  1.00  0.00     0.174 C 
HETATM   18  C   UNL     1      43.980 -21.531   1.796  1.00  0.00     0.034 C 
ENDBRANCH  16  17
ENDBRANCH  14  16
ENDBRANCH  10  14
BRANCH  13  19
HETATM   19  C   UNL     1      41.865 -15.150   5.451  1.00  0.00     0.064 A 
HETATM   20  C   UNL     1      42.689 -14.107   5.919  1.00  0.00    -0.033 A 
HETATM   21  C   UNL     1      44.078 -14.276   6.469  1.00  0.00     0.050 C 
HETATM   22  C   UNL     1      42.140 -12.811   6.006  1.00  0.00     0.009 A 
HETATM   23  C   UNL     1      40.799 -12.571   5.705  1.00  0.00     0.001 A 
HETATM   24  C   UNL     1      39.973 -13.622   5.328  1.00  0.00     0.002 A 
HETATM   25  C   UNL     1      40.499 -14.907   5.208  1.00  0.00     0.032 A 
ENDBRANCH  13  19
ENDBRANCH   8   9
ENDBRANCH   1   8
BRANCH   5  26
HETATM   26  N   UNL     1      40.054 -14.721  -0.938  1.00  0.00    -0.053 N 
HETATM   27  H   UNL     1      39.095 -15.093  -0.996  1.00  0.00     0.281 HD
HETATM   28  C   UNL     1      39.955 -13.245  -1.305  1.00  0.00     0.236 C 
HETATM   29  C   UNL     1      39.237 -13.087  -2.639  1.00  0.00     0.028 C 
HETATM   30  C   UNL     1      39.939 -13.850  -3.752  1.00  0.00     0.003 C 
HETATM   31  C   UNL     1      40.130 -15.309  -3.368  1.00  0.00     0.028 C 
HETATM   32  C   UNL     1      40.850 -15.453  -2.033  1.00  0.00     0.236 C 
ENDBRANCH   5  26
BRANCH   5  33
HETATM   33  C   UNL     1      39.466 -14.825   1.600  1.00  0.00     0.252 C 
HETATM   34  N   UNL     1      38.788 -15.902   2.072  1.00  0.00    -0.368 N 
HETATM   35  H   UNL     1      38.916 -16.880   1.841  1.00  0.00     0.159 HD
HETATM   36  H   UNL     1      38.042 -15.715   2.743  1.00  0.00     0.159 HD
HETATM   37  O   UNL     1      39.162 -13.699   1.983  1.00  0.00    -0.271 OA
ENDBRANCH   5  33
TORSDOF 8
ENDMDL
MODEL 5
REMARK VINA RESULT:      -7.9      3.427      8.361
REMARK  8 active torsions:
REMARK  status: ('A' for Active; 'I' for Inactive)
REMARK    1  A    between atoms: C_2  and  O_3 
REMARK    2  A    between atoms: O_3  and  C_4 
REMARK    3  A    between atoms: C_4  and  C_5 
REMARK    4  A    between atoms: C_6  and  C_7 
REMARK    5  A    between atoms: C_7  and  N_8 
REMARK    6  A    between atoms: C_12  and  N_13 
REMARK    7  A    between atoms: C_12  and  C_20 
REMARK       I    between atoms: C_20  and  N_21 
REMARK    8  A    between atoms: N_25  and  C_26 
ROOT
HETATM    1  N   UNL     1      41.144 -13.635   5.590  1.00  0.00    -0.066 N 
HETATM    2  H   UNL     1      40.951 -13.414   4.592  1.00  0.00     0.280 HD
HETATM    3  C   UNL     1      42.620 -13.572   5.837  1.00  0.00     0.238 C 
HETATM    4  C   UNL     1      43.334 -14.572   4.924  1.00  0.00     0.077 C 
HETATM    5  C   UNL     1      42.819 -16.016   5.109  1.00  0.00     0.210 C 
HETATM    6  C   UNL     1      41.275 -16.003   4.922  1.00  0.00     0.077 C 
HETATM    7  C   UNL     1      40.576 -15.001   5.841  1.00  0.00     0.238 C 
ENDROOT
BRANCH   1   8
HETATM    8  C   UNL     1      40.360 -12.557   6.340  1.00  0.00     0.294 C 
BRANCH   8   9
HETATM    9  C   UNL     1      40.802 -11.166   6.051  1.00  0.00     0.080 C 
HETATM   10  C   UNL     1      40.849 -10.430   4.863  1.00  0.00     0.085 C 
HETATM   11  C   UNL     1      41.517  -9.244   5.211  1.00  0.00     0.159 C 
HETATM   12  N   UNL     1      41.906  -9.245   6.481  1.00  0.00    -0.178 NA
HETATM   13  N   UNL     1      41.292 -10.310   7.041  1.00  0.00    -0.235 N 
BRANCH  10  14
HETATM   14  C   UNL     1      40.401 -10.840   3.546  1.00  0.00     0.296 C 
HETATM   15  O   UNL     1      39.391 -10.353   3.040  1.00  0.00    -0.259 OA
BRANCH  14  16
HETATM   16  O   UNL     1      41.148 -11.835   3.013  1.00  0.00    -0.318 OA
BRANCH  16  17
HETATM   17  C   UNL     1      40.654 -12.447   1.811  1.00  0.00     0.174 C 
HETATM   18  C   UNL     1      40.121 -13.839   2.104  1.00  0.00     0.034 C 
ENDBRANCH  16  17
ENDBRANCH  14  16
ENDBRANCH  10  14
BRANCH  13  19
HETATM   19  C   UNL     1      41.373 -10.503   8.448  1.00  0.00     0.064 A 
HETATM   20  C   UNL     1      40.254 -10.462   9.303  1.00  0.00    -0.033 A 
HETATM   21  C   UNL     1      38.882  -9.982   8.918  1.00  0.00     0.050 C 
HETATM   22  C   UNL     1      40.445 -10.771  10.665  1.00  0.00     0.009 A 
HETATM   23  C   UNL     1      41.714 -11.043  11.176  1.00  0.00     0.001 A 
HETATM   24  C   UNL     1      42.823 -10.996  10.340  1.00  0.00     0.002 A 
HETATM   25  C   UNL     1      42.656 -10.720   8.984  1.00  0.00     0.032 A 
ENDBRANCH  13  19
ENDBRANCH   8   9
ENDBRANCH   1   8
BRANCH   5  26
HETATM   26  N   UNL     1      43.421 -16.953   3.959  1.00  0.00    -0.053 N 
HETATM   27  H   UNL     1      44.436 -17.015   4.124  1.00  0.00     0.281 HD
HETATM   28  C   UNL     1      42.910 -18.389   3.939  1.00  0.00     0.236 C 
HETATM   29  C   UNL     1      43.717 -19.215   2.946  1.00  0.00     0.028 C 
HETATM   30  C   UNL     1      43.661 -18.628   1.544  1.00  0.00     0.003 C 
HETATM   31  C   UNL     1      44.082 -17.166   1.555  1.00  0.00     0.028 C 
HETATM   32  C   UNL     1      43.266 -16.350   2.551  1.00  0.00     0.236 C 
ENDBRANCH   5  26
BRANCH   5  33
HETATM   33  C   UNL     1      43.160 -16.572   6.524  1.00  0.00     0.252 C 
HETATM   34  N   UNL     1      44.424 -16.441   7.002  1.00  0.00    -0.368 N 
HETATM   35  H   UNL     1      45.222 -15.997   6.564  1.00  0.00     0.159 HD
HETATM   36  H   UNL     1      44.611 -16.846   7.920  1.00  0.00     0.159 HD
HETATM   37  O   UNL     1      42.315 -17.160   7.193  1.00  0.00    -0.271 OA
ENDBRANCH   5  33
TORSDOF 8
ENDMDL
MODEL 6
REMARK VINA RESULT:      -7.9      2.729      7.750
REMARK  8 active torsions:
REMARK  status: ('A' for Active; 'I' for Inactive)
REMARK    1  A    between atoms: C_2  and  O_3 
REMARK    2  A    between atoms: O_3  and  C_4 
REMARK    3  A    between atoms: C_4  and  C_5 
REMARK    4  A    between atoms: C_6  and  C_7 
REMARK    5  A    between atoms: C_7  and  N_8 
REMARK    6  A    between atoms: C_12  and  N_13 
REMARK    7  A    between atoms: C_12  and  C_20 
REMARK       I    between atoms: C_20  and  N_21 
REMARK    8  A    between atoms: N_25  and  C_26 
ROOT
HETATM    1  N   UNL     1      40.266 -15.302   2.262  1.00  0.00    -0.066 N 
HETATM    2  H   UNL     1      40.162 -14.755   3.141  1.00  0.00     0.280 HD
HETATM    3  C   UNL     1      40.116 -16.761   2.563  1.00  0.00     0.238 C 
HETATM    4  C   UNL     1      41.177 -17.184   3.582  1.00  0.00     0.077 C 
HETATM    5  C   UNL     1      42.614 -16.879   3.104  1.00  0.00     0.210 C 
HETATM    6  C   UNL     1      42.684 -15.371   2.728  1.00  0.00     0.077 C 
HETATM    7  C   UNL     1      41.620 -14.964   1.710  1.00  0.00     0.238 C 
ENDROOT
BRANCH   1   8
HETATM    8  C   UNL     1      39.148 -14.750   1.377  1.00  0.00     0.294 C 
BRANCH   8   9
HETATM    9  C   UNL     1      39.298 -13.311   1.027  1.00  0.00     0.080 C 
HETATM   10  C   UNL     1      39.364 -12.161   1.819  1.00  0.00     0.085 C 
HETATM   11  C   UNL     1      39.337 -11.099   0.899  1.00  0.00     0.159 C 
HETATM   12  N   UNL     1      39.212 -11.527  -0.351  1.00  0.00    -0.178 NA
HETATM   13  N   UNL     1      39.401 -12.863  -0.292  1.00  0.00    -0.235 N 
BRANCH  10  14
HETATM   14  C   UNL     1      39.357 -12.078   3.268  1.00  0.00     0.296 C 
HETATM   15  O   UNL     1      38.424 -11.548   3.868  1.00  0.00    -0.259 OA
BRANCH  14  16
HETATM   16  O   UNL     1      40.490 -12.555   3.835  1.00  0.00    -0.318 OA
BRANCH  16  17
HETATM   17  C   UNL     1      40.471 -12.753   5.258  1.00  0.00     0.174 C 
HETATM   18  C   UNL     1      40.094 -14.186   5.590  1.00  0.00     0.034 C 
ENDBRANCH  16  17
ENDBRANCH  14  16
ENDBRANCH  10  14
BRANCH  13  19
HETATM   19  C   UNL     1      39.492 -13.611  -1.499  1.00  0.00     0.064 A 
HETATM   20  C   UNL     1      40.714 -13.954  -2.110  1.00  0.00    -0.033 A 
HETATM   21  C   UNL     1      42.060 -13.398  -1.736  1.00  0.00     0.050 C 
HETATM   22  C   UNL     1      40.680 -14.786  -3.248  1.00  0.00     0.009 A 
HETATM   23  C   UNL     1      39.471 -15.205  -3.803  1.00  0.00     0.001 A 
HETATM   24  C   UNL     1      38.269 -14.789  -3.243  1.00  0.00     0.002 A 
HETATM   25  C   UNL     1      38.277 -13.990  -2.101  1.00  0.00     0.032 A 
ENDBRANCH  13  19
ENDBRANCH   8   9
ENDBRANCH   1   8
BRANCH   5  26
HETATM   26  N   UNL     1      43.642 -17.110   4.308  1.00  0.00    -0.053 N 
HETATM   27  H   UNL     1      44.551 -16.736   4.004  1.00  0.00     0.281 HD
HETATM   28  C   UNL     1      43.307 -16.392   5.611  1.00  0.00     0.236 C 
HETATM   29  C   UNL     1      44.467 -16.522   6.590  1.00  0.00     0.028 C 
HETATM   30  C   UNL     1      44.806 -17.978   6.875  1.00  0.00     0.003 C 
HETATM   31  C   UNL     1      45.055 -18.737   5.581  1.00  0.00     0.028 C 
HETATM   32  C   UNL     1      43.888 -18.599   4.611  1.00  0.00     0.236 C 
ENDBRANCH   5  26
BRANCH   5  33
HETATM   33  C   UNL     1      43.001 -17.736   1.861  1.00  0.00     0.252 C 
HETATM   34  N   UNL     1      44.000 -17.310   1.046  1.00  0.00    -0.368 N 
HETATM   35  H   UNL     1      44.579 -16.484   1.135  1.00  0.00     0.159 HD
HETATM   36  H   UNL     1      44.200 -17.886   0.227  1.00  0.00     0.159 HD
HETATM   37  O   UNL     1      42.389 -18.765   1.587  1.00  0.00    -0.271 OA
ENDBRANCH   5  33
TORSDOF 8
ENDMDL
MODEL 7
REMARK VINA RESULT:      -7.9      3.304      5.924
REMARK  8 active torsions:
REMARK  status: ('A' for Active; 'I' for Inactive)
REMARK    1  A    between atoms: C_2  and  O_3 
REMARK    2  A    between atoms: O_3  and  C_4 
REMARK    3  A    between atoms: C_4  and  C_5 
REMARK    4  A    between atoms: C_6  and  C_7 
REMARK    5  A    between atoms: C_7  and  N_8 
REMARK    6  A    between atoms: C_12  and  N_13 
REMARK    7  A    between atoms: C_12  and  C_20 
REMARK       I    between atoms: C_20  and  N_21 
REMARK    8  A    between atoms: N_25  and  C_26 
ROOT
HETATM    1  N   UNL     1      40.507 -14.084   0.237  1.00  0.00    -0.066 N 
HETATM    2  H   UNL     1      40.653 -13.132   0.631  1.00  0.00     0.280 HD
HETATM    3  C   UNL     1      41.712 -14.486  -0.555  1.00  0.00     0.238 C 
HETATM    4  C   UNL     1      41.943 -13.476  -1.681  1.00  0.00     0.077 C 
HETATM    5  C   UNL     1      40.716 -13.328  -2.607  1.00  0.00     0.210 C 
HETATM    6  C   UNL     1      39.484 -12.993  -1.720  1.00  0.00     0.077 C 
HETATM    7  C   UNL     1      39.264 -14.010  -0.601  1.00  0.00     0.238 C 
ENDROOT
BRANCH   1   8
HETATM    8  C   UNL     1      40.289 -14.942   1.484  1.00  0.00     0.294 C 
BRANCH   8   9
HETATM    9  C   UNL     1      40.989 -14.445   2.699  1.00  0.00     0.080 C 
HETATM   10  C   UNL     1      40.787 -13.312   3.493  1.00  0.00     0.085 C 
HETATM   11  C   UNL     1      41.870 -13.312   4.388  1.00  0.00     0.159 C 
HETATM   12  N   UNL     1      42.709 -14.315   4.155  1.00  0.00    -0.178 NA
HETATM   13  N   UNL     1      42.070 -15.117   3.276  1.00  0.00    -0.235 N 
BRANCH  10  14
HETATM   14  C   UNL     1      39.751 -12.306   3.358  1.00  0.00     0.296 C 
HETATM   15  O   UNL     1      38.916 -12.133   4.244  1.00  0.00    -0.259 OA
BRANCH  14  16
HETATM   16  O   UNL     1      39.770 -11.677   2.160  1.00  0.00    -0.318 OA
BRANCH  16  17
HETATM   17  C   UNL     1      40.792 -10.685   1.962  1.00  0.00     0.174 C 
HETATM   18  C   UNL     1      41.063 -10.493   0.480  1.00  0.00     0.034 C 
ENDBRANCH  16  17
ENDBRANCH  14  16
ENDBRANCH  10  14
BRANCH  13  19
HETATM   19  C   UNL     1      42.637 -16.377   2.940  1.00  0.00     0.064 A 
HETATM   20  C   UNL     1      42.277 -17.585   3.571  1.00  0.00    -0.033 A 
HETATM   21  C   UNL     1      41.450 -17.700   4.821  1.00  0.00     0.050 C 
HETATM   22  C   UNL     1      42.833 -18.784   3.080  1.00  0.00     0.009 A 
HETATM   23  C   UNL     1      43.767 -18.780   2.045  1.00  0.00     0.001 A 
HETATM   24  C   UNL     1      44.180 -17.576   1.488  1.00  0.00     0.002 A 
HETATM   25  C   UNL     1      43.625 -16.379   1.937  1.00  0.00     0.032 A 
ENDBRANCH  13  19
ENDBRANCH   8   9
ENDBRANCH   1   8
BRANCH   5  26
HETATM   26  N   UNL     1      40.934 -12.087  -3.594  1.00  0.00    -0.053 N 
HETATM   27  H   UNL     1      41.171 -12.476  -4.518  1.00  0.00     0.281 HD
HETATM   28  C   UNL     1      39.718 -11.195  -3.814  1.00  0.00     0.236 C 
HETATM   29  C   UNL     1      40.000 -10.195  -4.929  1.00  0.00     0.028 C 
HETATM   30  C   UNL     1      41.220  -9.339  -4.625  1.00  0.00     0.003 C 
HETATM   31  C   UNL     1      42.426 -10.212  -4.312  1.00  0.00     0.028 C 
HETATM   32  C   UNL     1      42.131 -11.205  -3.196  1.00  0.00     0.236 C 
ENDBRANCH   5  26
BRANCH   5  33
HETATM   33  C   UNL     1      40.435 -14.638  -3.402  1.00  0.00     0.252 C 
HETATM   34  N   UNL     1      39.202 -14.840  -3.935  1.00  0.00    -0.368 N 
HETATM   35  H   UNL     1      38.395 -14.227  -3.910  1.00  0.00     0.159 HD
HETATM   36  H   UNL     1      39.052 -15.724  -4.422  1.00  0.00     0.159 HD
HETATM   37  O   UNL     1      41.296 -15.504  -3.519  1.00  0.00    -0.271 OA
ENDBRANCH   5  33
TORSDOF 8
ENDMDL
MODEL 8
REMARK VINA RESULT:      -7.9      2.215      7.557
REMARK  8 active torsions:
REMARK  status: ('A' for Active; 'I' for Inactive)
REMARK    1  A    between atoms: C_2  and  O_3 
REMARK    2  A    between atoms: O_3  and  C_4 
REMARK    3  A    between atoms: C_4  and  C_5 
REMARK    4  A    between atoms: C_6  and  C_7 
REMARK    5  A    between atoms: C_7  and  N_8 
REMARK    6  A    between atoms: C_12  and  N_13 
REMARK    7  A    between atoms: C_12  and  C_20 
REMARK       I    between atoms: C_20  and  N_21 
REMARK    8  A    between atoms: N_25  and  C_26 
ROOT
HETATM    1  N   UNL     1      42.069 -14.739   1.919  1.00  0.00    -0.066 N 
HETATM    2  H   UNL     1      42.459 -15.072   1.013  1.00  0.00     0.280 HD
HETATM    3  C   UNL     1      43.125 -14.828   2.977  1.00  0.00     0.238 C 
HETATM    4  C   UNL     1      43.601 -16.277   3.104  1.00  0.00     0.077 C 
HETATM    5  C   UNL     1      42.446 -17.256   3.412  1.00  0.00     0.210 C 
HETATM    6  C   UNL     1      41.348 -17.059   2.329  1.00  0.00     0.077 C 
HETATM    7  C   UNL     1      40.882 -15.608   2.215  1.00  0.00     0.238 C 
ENDROOT
BRANCH   1   8
HETATM    8  C   UNL     1      41.647 -13.303   1.606  1.00  0.00     0.294 C 
BRANCH   8   9
HETATM    9  C   UNL     1      40.194 -13.138   1.335  1.00  0.00     0.080 C 
HETATM   10  C   UNL     1      39.132 -12.740   2.153  1.00  0.00     0.085 C 
HETATM   11  C   UNL     1      37.986 -12.945   1.366  1.00  0.00     0.159 C 
HETATM   12  N   UNL     1      38.282 -13.470   0.183  1.00  0.00    -0.178 NA
HETATM   13  N   UNL     1      39.626 -13.390   0.083  1.00  0.00    -0.235 N 
BRANCH  10  14
HETATM   14  C   UNL     1      39.190 -12.312   3.538  1.00  0.00     0.296 C 
HETATM   15  O   UNL     1      38.985 -11.139   3.847  1.00  0.00    -0.259 OA
BRANCH  14  16
HETATM   16  O   UNL     1      39.563 -13.297   4.387  1.00  0.00    -0.318 OA
BRANCH  16  17
HETATM   17  C   UNL     1      40.139 -12.893   5.640  1.00  0.00     0.174 C 
HETATM   18  C   UNL     1      41.640 -12.707   5.498  1.00  0.00     0.034 C 
ENDBRANCH  16  17
ENDBRANCH  14  16
ENDBRANCH  10  14
BRANCH  13  19
HETATM   19  C   UNL     1      40.257 -13.726  -1.147  1.00  0.00     0.064 A 
HETATM   20  C   UNL     1      40.805 -12.769  -2.025  1.00  0.00    -0.033 A 
HETATM   21  C   UNL     1      40.602 -11.283  -1.929  1.00  0.00     0.050 C 
HETATM   22  C   UNL     1      41.496 -13.230  -3.164  1.00  0.00     0.009 A 
HETATM   23  C   UNL     1      41.581 -14.591  -3.460  1.00  0.00     0.001 A 
HETATM   24  C   UNL     1      40.962 -15.520  -2.633  1.00  0.00     0.002 A 
HETATM   25  C   UNL     1      40.297 -15.091  -1.486  1.00  0.00     0.032 A 
ENDBRANCH  13  19
ENDBRANCH   8   9
ENDBRANCH   1   8
BRANCH   5  26
HETATM   26  N   UNL     1      42.969 -18.763   3.280  1.00  0.00    -0.053 N 
HETATM   27  H   UNL     1      42.244 -19.369   3.688  1.00  0.00     0.281 HD
HETATM   28  C   UNL     1      43.186 -19.266   1.857  1.00  0.00     0.236 C 
HETATM   29  C   UNL     1      43.470 -20.762   1.872  1.00  0.00     0.028 C 
HETATM   30  C   UNL     1      44.682 -21.099   2.729  1.00  0.00     0.003 C 
HETATM   31  C   UNL     1      44.527 -20.527   4.129  1.00  0.00     0.028 C 
HETATM   32  C   UNL     1      44.244 -19.030   4.101  1.00  0.00     0.236 C 
ENDBRANCH   5  26
BRANCH   5  33
HETATM   33  C   UNL     1      41.831 -16.995   4.820  1.00  0.00     0.252 C 
HETATM   34  N   UNL     1      40.631 -17.548   5.134  1.00  0.00    -0.368 N 
HETATM   35  H   UNL     1      40.049 -18.154   4.569  1.00  0.00     0.159 HD
HETATM   36  H   UNL     1      40.252 -17.327   6.055  1.00  0.00     0.159 HD
HETATM   37  O   UNL     1      42.395 -16.265   5.631  1.00  0.00    -0.271 OA
ENDBRANCH   5  33
TORSDOF 8
ENDMDL
MODEL 9
REMARK VINA RESULT:      -7.8      2.555      7.906
REMARK  8 active torsions:
REMARK  status: ('A' for Active; 'I' for Inactive)
REMARK    1  A    between atoms: C_2  and  O_3 
REMARK    2  A    between atoms: O_3  and  C_4 
REMARK    3  A    between atoms: C_4  and  C_5 
REMARK    4  A    between atoms: C_6  and  C_7 
REMARK    5  A    between atoms: C_7  and  N_8 
REMARK    6  A    between atoms: C_12  and  N_13 
REMARK    7  A    between atoms: C_12  and  C_20 
REMARK       I    between atoms: C_20  and  N_21 
REMARK    8  A    between atoms: N_25  and  C_26 
ROOT
HETATM    1  N   UNL     1      40.188 -15.523   1.048  1.00  0.00    -0.066 N 
HETATM    2  H   UNL     1      39.762 -16.356   0.594  1.00  0.00     0.280 HD
HETATM    3  C   UNL     1      41.620 -15.405   0.628  1.00  0.00     0.238 C 
HETATM    4  C   UNL     1      42.376 -16.674   1.031  1.00  0.00     0.077 C 
HETATM    5  C   UNL     1      42.282 -16.965   2.545  1.00  0.00     0.210 C 
HETATM    6  C   UNL     1      40.777 -16.993   2.935  1.00  0.00     0.077 C 
HETATM    7  C   UNL     1      40.035 -15.721   2.528  1.00  0.00     0.238 C 
ENDROOT
BRANCH   1   8
HETATM    8  C   UNL     1      39.315 -14.372   0.545  1.00  0.00     0.294 C 
BRANCH   8   9
HETATM    9  C   UNL     1      40.062 -13.307  -0.177  1.00  0.00     0.080 C 
HETATM   10  C   UNL     1      40.927 -12.306   0.275  1.00  0.00     0.085 C 
HETATM   11  C   UNL     1      41.174 -11.517  -0.861  1.00  0.00     0.159 C 
HETATM   12  N   UNL     1      40.494 -11.940  -1.920  1.00  0.00    -0.178 NA
HETATM   13  N   UNL     1      39.989 -13.141  -1.563  1.00  0.00    -0.235 N 
BRANCH  10  14
HETATM   14  C   UNL     1      41.384 -12.072   1.631  1.00  0.00     0.296 C 
HETATM   15  O   UNL     1      42.459 -12.523   2.024  1.00  0.00    -0.259 OA
BRANCH  14  16
HETATM   16  O   UNL     1      40.484 -11.405   2.391  1.00  0.00    -0.318 OA
BRANCH  16  17
HETATM   17  C   UNL     1      39.928 -12.112   3.512  1.00  0.00     0.174 C 
HETATM   18  C   UNL     1      38.671 -11.417   4.006  1.00  0.00     0.034 C 
ENDBRANCH  16  17
ENDBRANCH  14  16
ENDBRANCH  10  14
BRANCH  13  19
HETATM   19  C   UNL     1      39.334 -13.943  -2.538  1.00  0.00     0.064 A 
HETATM   20  C   UNL     1      39.925 -15.073  -3.138  1.00  0.00    -0.033 A 
HETATM   21  C   UNL     1      41.375 -15.455  -3.033  1.00  0.00     0.050 C 
HETATM   22  C   UNL     1      39.140 -15.848  -4.016  1.00  0.00     0.009 A 
HETATM   23  C   UNL     1      37.835 -15.476  -4.341  1.00  0.00     0.001 A 
HETATM   24  C   UNL     1      37.292 -14.313  -3.810  1.00  0.00     0.002 A 
HETATM   25  C   UNL     1      38.039 -13.544  -2.919  1.00  0.00     0.032 A 
ENDBRANCH  13  19
ENDBRANCH   8   9
ENDBRANCH   1   8
BRANCH   5  26
HETATM   26  N   UNL     1      42.872 -18.422   2.849  1.00  0.00    -0.053 N 
HETATM   27  H   UNL     1      42.116 -18.967   3.286  1.00  0.00     0.281 HD
HETATM   28  C   UNL     1      43.317 -19.223   1.631  1.00  0.00     0.236 C 
HETATM   29  C   UNL     1      43.649 -20.652   2.040  1.00  0.00     0.028 C 
HETATM   30  C   UNL     1      44.729 -20.697   3.111  1.00  0.00     0.003 C 
HETATM   31  C   UNL     1      44.346 -19.830   4.300  1.00  0.00     0.028 C 
HETATM   32  C   UNL     1      44.017 -18.403   3.877  1.00  0.00     0.236 C 
ENDBRANCH   5  26
BRANCH   5  33
HETATM   33  C   UNL     1      43.010 -15.876   3.387  1.00  0.00     0.252 C 
HETATM   34  N   UNL     1      43.953 -15.098   2.794  1.00  0.00    -0.368 N 
HETATM   35  H   UNL     1      44.261 -15.105   1.830  1.00  0.00     0.159 HD
HETATM   36  H   UNL     1      44.426 -14.417   3.390  1.00  0.00     0.159 HD
HETATM   37  O   UNL     1      42.773 -15.738   4.584  1.00  0.00    -0.271 OA
ENDBRANCH   5  33
TORSDOF 8
ENDMDL
MODEL 10
REMARK VINA RESULT:      -7.8      2.783      8.496
REMARK  8 active torsions:
REMARK  status: ('A' for Active; 'I' for Inactive)
REMARK    1  A    between atoms: C_2  and  O_3 
REMARK    2  A    between atoms: O_3  and  C_4 
REMARK    3  A    between atoms: C_4  and  C_5 
REMARK    4  A    between atoms: C_6  and  C_7 
REMARK    5  A    between atoms: C_7  and  N_8 
REMARK    6  A    between atoms: C_12  and  N_13 
REMARK    7  A    between atoms: C_12  and  C_20 
REMARK       I    between atoms: C_20  and  N_21 
REMARK    8  A    between atoms: N_25  and  C_26 
ROOT
HETATM    1  N   UNL     1      42.235 -15.206   1.732  1.00  0.00    -0.066 N 
HETATM    2  H   UNL     1      42.603 -15.565   0.828  1.00  0.00     0.280 HD
HETATM    3  C   UNL     1      43.307 -15.289   2.774  1.00  0.00     0.238 C 
HETATM    4  C   UNL     1      43.759 -16.744   2.925  1.00  0.00     0.077 C 
HETATM    5  C   UNL     1      42.593 -17.695   3.275  1.00  0.00     0.210 C 
HETATM    6  C   UNL     1      41.481 -17.502   2.207  1.00  0.00     0.077 C 
HETATM    7  C   UNL     1      41.038 -16.046   2.068  1.00  0.00     0.238 C 
ENDROOT
BRANCH   1   8
HETATM    8  C   UNL     1      41.833 -13.770   1.394  1.00  0.00     0.294 C 
BRANCH   8   9
HETATM    9  C   UNL     1      40.374 -13.579   1.173  1.00  0.00     0.080 C 
HETATM   10  C   UNL     1      39.565 -13.792   0.052  1.00  0.00     0.085 C 
HETATM   11  C   UNL     1      38.313 -13.269   0.418  1.00  0.00     0.159 C 
HETATM   12  N   UNL     1      38.334 -12.727   1.630  1.00  0.00    -0.178 NA
HETATM   13  N   UNL     1      39.516 -13.101   2.167  1.00  0.00    -0.235 N 
BRANCH  10  14
HETATM   14  C   UNL     1      39.955 -14.337  -1.234  1.00  0.00     0.296 C 
HETATM   15  O   UNL     1      40.788 -15.238  -1.315  1.00  0.00    -0.259 OA
BRANCH  14  16
HETATM   16  O   UNL     1      39.378 -13.700  -2.281  1.00  0.00    -0.318 OA
BRANCH  16  17
HETATM   17  C   UNL     1      39.129 -14.482  -3.460  1.00  0.00     0.174 C 
HETATM   18  C   UNL     1      37.729 -15.070  -3.420  1.00  0.00     0.034 C 
ENDBRANCH  16  17
ENDBRANCH  14  16
ENDBRANCH  10  14
BRANCH  13  19
HETATM   19  C   UNL     1      39.784 -12.815   3.534  1.00  0.00     0.064 A 
HETATM   20  C   UNL     1      40.083 -11.525   4.015  1.00  0.00    -0.033 A 
HETATM   21  C   UNL     1      40.397 -10.329   3.159  1.00  0.00     0.050 C 
HETATM   22  C   UNL     1      40.230 -11.350   5.406  1.00  0.00     0.009 A 
HETATM   23  C   UNL     1      40.153 -12.430   6.285  1.00  0.00     0.001 A 
HETATM   24  C   UNL     1      39.944 -13.712   5.792  1.00  0.00     0.002 A 
HETATM   25  C   UNL     1      39.768 -13.907   4.424  1.00  0.00     0.032 A 
ENDBRANCH  13  19
ENDBRANCH   8   9
ENDBRANCH   1   8
BRANCH   5  26
HETATM   26  N   UNL     1      43.088 -19.213   3.169  1.00  0.00    -0.053 N 
HETATM   27  H   UNL     1      42.398 -19.790   3.670  1.00  0.00     0.281 HD
HETATM   28  C   UNL     1      43.169 -19.785   1.758  1.00  0.00     0.236 C 
HETATM   29  C   UNL     1      43.439 -21.283   1.818  1.00  0.00     0.028 C 
HETATM   30  C   UNL     1      44.720 -21.596   2.576  1.00  0.00     0.003 C 
HETATM   31  C   UNL     1      44.700 -20.957   3.956  1.00  0.00     0.028 C 
HETATM   32  C   UNL     1      44.430 -19.460   3.882  1.00  0.00     0.236 C 
ENDBRANCH   5  26
BRANCH   5  33
HETATM   33  C   UNL     1      42.008 -17.391   4.687  1.00  0.00     0.252 C 
HETATM   34  N   UNL     1      40.691 -17.626   4.925  1.00  0.00    -0.368 N 
HETATM   35  H   UNL     1      39.995 -18.007   4.296  1.00  0.00     0.159 HD
HETATM   36  H   UNL     1      40.343 -17.385   5.853  1.00  0.00     0.159 HD
HETATM   37  O   UNL     1      42.708 -16.907   5.572  1.00  0.00    -0.271 OA
ENDBRANCH   5  33
TORSDOF 8
ENDMDL
