MODEL 1
REMARK VINA RESULT:      -8.2      0.000      0.000
REMARK  8 active torsions:
REMARK  status: ('A' for Active; 'I' for Inactive)
REMARK    1  A    between atoms: C_2  and  O_3 
REMARK    2  A    between atoms: O_3  and  C_4 
REMARK    3  A    between atoms: C_4  and  C_5 
REMARK    4  A    between atoms: C_5  and  C_6 
REMARK    5  A    between atoms: C_6  and  N_7 
REMARK    6  A    between atoms: C_12  and  C_13 
REMARK    7  A    between atoms: C_23  and  C_24 
REMARK    8  A    between atoms: C_25  and  O_26 
ROOT
HETATM    1  N   UNL     1      42.106 -16.592   6.083  1.00  0.00    -0.334 N 
HETATM    2  C   UNL     1      43.288 -16.427   6.819  1.00  0.00     0.273 A 
HETATM    3  O   UNL     1      43.531 -15.646   7.718  1.00  0.00    -0.266 OA
HETATM    4  C   UNL     1      44.151 -17.408   6.277  1.00  0.00     0.129 A 
HETATM    5  C   UNL     1      43.569 -18.130   5.279  1.00  0.00     0.034 A 
HETATM    6  C   UNL     1      42.183 -17.668   5.051  1.00  0.00     0.159 A 
HETATM    7  N   UNL     1      45.404 -17.861   6.435  1.00  0.00    -0.272 N 
HETATM    8  H   UNL     1      46.126 -17.545   7.076  1.00  0.00     0.189 HD
HETATM    9  N   UNL     1      45.669 -18.891   5.592  1.00  0.00    -0.173 NA
HETATM   10  C   UNL     1      44.532 -19.065   4.875  1.00  0.00     0.101 A 
ENDROOT
BRANCH  10  11
HETATM   11  C   UNL     1      44.420 -20.102   3.856  1.00  0.00     0.028 A 
HETATM   12  C   UNL     1      44.667 -21.454   4.135  1.00  0.00     0.078 A 
HETATM   13  C   UNL     1      44.469 -22.435   3.166  1.00  0.00     0.037 A 
HETATM   14  C   UNL     1      44.057 -22.069   1.884  1.00  0.00     0.003 A 
HETATM   15  C   UNL     1      43.842 -20.726   1.578  1.00  0.00     0.001 A 
HETATM   16  C   UNL     1      44.021 -19.748   2.560  1.00  0.00     0.017 A 
BRANCH  12  17
HETATM   17  O   UNL     1      45.152 -21.880   5.344  1.00  0.00    -0.360 OA
HETATM   18  H   UNL     1      45.003 -21.149   5.971  1.00  0.00     0.217 HD
ENDBRANCH  12  17
ENDBRANCH  10  11
BRANCH   6  19
HETATM   19  C   UNL     1      42.083 -17.182   3.625  1.00  0.00    -0.031 A 
HETATM   20  C   UNL     1      41.049 -17.673   2.809  1.00  0.00     0.011 A 
HETATM   21  C   UNL     1      40.911 -17.241   1.487  1.00  0.00     0.024 A 
HETATM   22  C   UNL     1      41.811 -16.316   0.965  1.00  0.00     0.034 A 
HETATM   23 CL   UNL     1      41.638 -15.780  -0.661  1.00  0.00    -0.084 Cl
HETATM   24  C   UNL     1      42.847 -15.822   1.751  1.00  0.00     0.024 A 
HETATM   25  C   UNL     1      42.983 -16.253   3.074  1.00  0.00     0.011 A 
ENDBRANCH   6  19
BRANCH   1  26
HETATM   26  C   UNL     1      40.902 -15.813   6.320  1.00  0.00     0.129 C 
BRANCH  26  27
HETATM   27  C   UNL     1      40.946 -14.409   5.711  1.00  0.00     0.046 C 
BRANCH  27  28
HETATM   28  C   UNL     1      39.678 -14.053   4.943  1.00  0.00     0.169 C 
BRANCH  28  29
HETATM   29  O   UNL     1      39.779 -14.574   3.621  1.00  0.00    -0.387 OA
BRANCH  29  30
HETATM   30  C   UNL     1      39.331 -13.670   2.607  1.00  0.00     0.113 C 
HETATM   31  C   UNL     1      38.638 -14.417   1.471  1.00  0.00     0.039 C 
HETATM   32  C   UNL     1      40.561 -12.937   2.089  1.00  0.00     0.039 C 
ENDBRANCH  29  30
ENDBRANCH  28  29
ENDBRANCH  27  28
ENDBRANCH  26  27
ENDBRANCH   1  26
TORSDOF 8
ENDMDL
MODEL 2
REMARK VINA RESULT:      -7.2      1.249      1.997
REMARK  8 active torsions:
REMARK  status: ('A' for Active; 'I' for Inactive)
REMARK    1  A    between atoms: C_2  and  O_3 
REMARK    2  A    between atoms: O_3  and  C_4 
REMARK    3  A    between atoms: C_4  and  C_5 
REMARK    4  A    between atoms: C_5  and  C_6 
REMARK    5  A    between atoms: C_6  and  N_7 
REMARK    6  A    between atoms: C_12  and  C_13 
REMARK    7  A    between atoms: C_23  and  C_24 
REMARK    8  A    between atoms: C_25  and  O_26 
ROOT
HETATM    1  N   UNL     1      41.962 -16.666   6.060  1.00  0.00    -0.334 N 
HETATM    2  C   UNL     1      43.146 -16.453   6.780  1.00  0.00     0.273 A 
HETATM    3  O   UNL     1      43.372 -15.658   7.672  1.00  0.00    -0.266 OA
HETATM    4  C   UNL     1      44.038 -17.407   6.234  1.00  0.00     0.129 A 
HETATM    5  C   UNL     1      43.470 -18.156   5.248  1.00  0.00     0.034 A 
HETATM    6  C   UNL     1      42.066 -17.746   5.034  1.00  0.00     0.159 A 
HETATM    7  N   UNL     1      45.309 -17.812   6.380  1.00  0.00    -0.272 N 
HETATM    8  H   UNL     1      46.025 -17.466   7.010  1.00  0.00     0.189 HD
HETATM    9  N   UNL     1      45.600 -18.838   5.540  1.00  0.00    -0.173 NA
HETATM   10  C   UNL     1      44.463 -19.058   4.839  1.00  0.00     0.101 A 
ENDROOT
BRANCH  10  11
HETATM   11  C   UNL     1      44.376 -20.105   3.828  1.00  0.00     0.028 A 
HETATM   12  C   UNL     1      44.670 -21.446   4.114  1.00  0.00     0.078 A 
HETATM   13  C   UNL     1      44.496 -22.441   3.153  1.00  0.00     0.037 A 
HETATM   14  C   UNL     1      44.062 -22.098   1.873  1.00  0.00     0.003 A 
HETATM   15  C   UNL     1      43.800 -20.765   1.559  1.00  0.00     0.001 A 
HETATM   16  C   UNL     1      43.954 -19.774   2.532  1.00  0.00     0.017 A 
BRANCH  12  17
HETATM   17  O   UNL     1      45.179 -21.848   5.321  1.00  0.00    -0.360 OA
HETATM   18  H   UNL     1      44.540 -21.557   5.997  1.00  0.00     0.217 HD
ENDBRANCH  12  17
ENDBRANCH  10  11
BRANCH   6  19
HETATM   19  C   UNL     1      41.932 -17.274   3.606  1.00  0.00    -0.031 A 
HETATM   20  C   UNL     1      42.901 -16.398   3.084  1.00  0.00     0.011 A 
HETATM   21  C   UNL     1      42.823 -15.947   1.763  1.00  0.00     0.024 A 
HETATM   22  C   UNL     1      41.772 -16.363   0.952  1.00  0.00     0.034 A 
HETATM   23 CL   UNL     1      41.679 -15.812  -0.676  1.00  0.00    -0.084 Cl
HETATM   24  C   UNL     1      40.797 -17.223   1.448  1.00  0.00     0.024 A 
HETATM   25  C   UNL     1      40.876 -17.676   2.768  1.00  0.00     0.011 A 
ENDBRANCH   6  19
BRANCH   1  26
HETATM   26  C   UNL     1      40.734 -15.930   6.306  1.00  0.00     0.129 C 
BRANCH  26  27
HETATM   27  C   UNL     1      40.497 -14.778   5.325  1.00  0.00     0.046 C 
BRANCH  27  28
HETATM   28  C   UNL     1      40.909 -13.422   5.888  1.00  0.00     0.169 C 
BRANCH  28  29
HETATM   29  O   UNL     1      40.456 -12.401   5.005  1.00  0.00    -0.387 OA
BRANCH  29  30
HETATM   30  C   UNL     1      40.082 -11.189   5.666  1.00  0.00     0.113 C 
HETATM   31  C   UNL     1      41.197 -10.150   5.585  1.00  0.00     0.039 C 
HETATM   32  C   UNL     1      39.791 -11.544   7.119  1.00  0.00     0.039 C 
ENDBRANCH  29  30
ENDBRANCH  28  29
ENDBRANCH  27  28
ENDBRANCH  26  27
ENDBRANCH   1  26
TORSDOF 8
ENDMDL
MODEL 3
REMARK VINA RESULT:      -7.2      3.164      7.694
REMARK  8 active torsions:
REMARK  status: ('A' for Active; 'I' for Inactive)
REMARK    1  A    between atoms: C_2  and  O_3 
REMARK    2  A    between atoms: O_3  and  C_4 
REMARK    3  A    between atoms: C_4  and  C_5 
REMARK    4  A    between atoms: C_5  and  C_6 
REMARK    5  A    between atoms: C_6  and  N_7 
REMARK    6  A    between atoms: C_12  and  C_13 
REMARK    7  A    between atoms: C_23  and  C_24 
REMARK    8  A    between atoms: C_25  and  O_26 
ROOT
HETATM    1  N   UNL     1      41.833 -17.194   2.695  1.00  0.00    -0.334 N 
HETATM    2  C   UNL     1      42.480 -17.282   1.454  1.00  0.00     0.273 A 
HETATM    3  O   UNL     1      43.356 -18.044   1.096  1.00  0.00    -0.266 OA
HETATM    4  C   UNL     1      41.857 -16.267   0.688  1.00  0.00     0.129 A 
HETATM    5  C   UNL     1      40.902 -15.591   1.385  1.00  0.00     0.034 A 
HETATM    6  C   UNL     1      40.794 -16.123   2.760  1.00  0.00     0.159 A 
HETATM    7  N   UNL     1      41.919 -15.740  -0.544  1.00  0.00    -0.272 N 
HETATM    8  H   UNL     1      42.526 -15.987  -1.319  1.00  0.00     0.189 HD
HETATM    9  N   UNL     1      41.007 -14.748  -0.704  1.00  0.00    -0.173 NA
HETATM   10  C   UNL     1      40.370 -14.654   0.488  1.00  0.00     0.101 A 
ENDROOT
BRANCH  10  11
HETATM   11  C   UNL     1      39.298 -13.691   0.710  1.00  0.00     0.028 A 
HETATM   12  C   UNL     1      38.113 -13.706  -0.039  1.00  0.00     0.078 A 
HETATM   13  C   UNL     1      37.069 -12.830   0.252  1.00  0.00     0.037 A 
HETATM   14  C   UNL     1      37.214 -11.894   1.276  1.00  0.00     0.003 A 
HETATM   15  C   UNL     1      38.400 -11.840   2.007  1.00  0.00     0.001 A 
HETATM   16  C   UNL     1      39.436 -12.735   1.727  1.00  0.00     0.017 A 
BRANCH  12  17
HETATM   17  O   UNL     1      37.929 -14.539  -1.111  1.00  0.00    -0.360 OA
HETATM   18  H   UNL     1      37.197 -14.159  -1.630  1.00  0.00     0.217 HD
ENDBRANCH  12  17
ENDBRANCH  10  11
BRANCH   6  19
HETATM   19  C   UNL     1      41.106 -15.000   3.720  1.00  0.00    -0.031 A 
HETATM   20  C   UNL     1      40.181 -14.694   4.734  1.00  0.00     0.011 A 
HETATM   21  C   UNL     1      40.436 -13.671   5.652  1.00  0.00     0.024 A 
HETATM   22  C   UNL     1      41.616 -12.939   5.562  1.00  0.00     0.034 A 
HETATM   23 CL   UNL     1      41.931 -11.683   6.695  1.00  0.00    -0.084 Cl
HETATM   24  C   UNL     1      42.543 -13.218   4.562  1.00  0.00     0.024 A 
HETATM   25  C   UNL     1      42.289 -14.243   3.646  1.00  0.00     0.011 A 
ENDBRANCH   6  19
BRANCH   1  26
HETATM   26  C   UNL     1      42.119 -18.083   3.809  1.00  0.00     0.129 C 
BRANCH  26  27
HETATM   27  C   UNL     1      43.439 -17.775   4.520  1.00  0.00     0.046 C 
BRANCH  27  28
HETATM   28  C   UNL     1      44.391 -18.966   4.549  1.00  0.00     0.169 C 
BRANCH  28  29
HETATM   29  O   UNL     1      43.886 -19.980   3.686  1.00  0.00    -0.387 OA
BRANCH  29  30
HETATM   30  C   UNL     1      44.815 -21.037   3.430  1.00  0.00     0.113 C 
HETATM   31  C   UNL     1      44.403 -21.847   2.204  1.00  0.00     0.039 C 
HETATM   32  C   UNL     1      44.836 -21.922   4.669  1.00  0.00     0.039 C 
ENDBRANCH  29  30
ENDBRANCH  28  29
ENDBRANCH  27  28
ENDBRANCH  26  27
ENDBRANCH   1  26
TORSDOF 8
ENDMDL
MODEL 4
REMARK VINA RESULT:      -7.1      3.611      6.138
REMARK  8 active torsions:
REMARK  status: ('A' for Active; 'I' for Inactive)
REMARK    1  A    between atoms: C_2  and  O_3 
REMARK    2  A    between atoms: O_3  and  C_4 
REMARK    3  A    between atoms: C_4  and  C_5 
REMARK    4  A    between atoms: C_5  and  C_6 
REMARK    5  A    between atoms: C_6  and  N_7 
REMARK    6  A    between atoms: C_12  and  C_13 
REMARK    7  A    between atoms: C_23  and  C_24 
REMARK    8  A    between atoms: C_25  and  O_26 
ROOT
HETATM    1  N   UNL     1      42.732 -13.639   6.044  1.00  0.00    -0.334 N 
HETATM    2  C   UNL     1      41.450 -13.243   5.635  1.00  0.00     0.273 A 
HETATM    3  O   UNL     1      40.761 -12.328   6.044  1.00  0.00    -0.266 OA
HETATM    4  C   UNL     1      41.137 -14.161   4.605  1.00  0.00     0.129 A 
HETATM    5  C   UNL     1      42.132 -15.065   4.383  1.00  0.00     0.034 A 
HETATM    6  C   UNL     1      43.266 -14.817   5.299  1.00  0.00     0.159 A 
HETATM    7  N   UNL     1      40.134 -14.436   3.757  1.00  0.00    -0.272 N 
HETATM    8  H   UNL     1      39.234 -13.976   3.656  1.00  0.00     0.189 HD
HETATM    9  N   UNL     1      40.442 -15.480   2.947  1.00  0.00    -0.173 NA
HETATM   10  C   UNL     1      41.682 -15.871   3.328  1.00  0.00     0.101 A 
ENDROOT
BRANCH  10  11
HETATM   11  C   UNL     1      42.371 -16.978   2.675  1.00  0.00     0.028 A 
HETATM   12  C   UNL     1      42.839 -16.894   1.356  1.00  0.00     0.078 A 
HETATM   13  C   UNL     1      43.569 -17.934   0.784  1.00  0.00     0.037 A 
HETATM   14  C   UNL     1      43.807 -19.096   1.517  1.00  0.00     0.003 A 
HETATM   15  C   UNL     1      43.318 -19.213   2.818  1.00  0.00     0.001 A 
HETATM   16  C   UNL     1      42.605 -18.159   3.394  1.00  0.00     0.017 A 
BRANCH  12  17
HETATM   17  O   UNL     1      42.573 -15.819   0.547  1.00  0.00    -0.360 OA
HETATM   18  H   UNL     1      42.800 -15.026   1.066  1.00  0.00     0.217 HD
ENDBRANCH  12  17
ENDBRANCH  10  11
BRANCH   6  19
HETATM   19  C   UNL     1      43.464 -16.056   6.138  1.00  0.00    -0.031 A 
HETATM   20  C   UNL     1      44.682 -16.753   6.046  1.00  0.00     0.011 A 
HETATM   21  C   UNL     1      44.914 -17.898   6.815  1.00  0.00     0.024 A 
HETATM   22  C   UNL     1      43.927 -18.361   7.680  1.00  0.00     0.034 A 
HETATM   23 CL   UNL     1      44.214 -19.766   8.630  1.00  0.00    -0.084 Cl
HETATM   24  C   UNL     1      42.710 -17.693   7.782  1.00  0.00     0.024 A 
HETATM   25  C   UNL     1      42.480 -16.547   7.015  1.00  0.00     0.011 A 
ENDBRANCH   6  19
BRANCH   1  26
HETATM   26  C   UNL     1      43.491 -12.949   7.074  1.00  0.00     0.129 C 
BRANCH  26  27
HETATM   27  C   UNL     1      44.958 -13.378   7.152  1.00  0.00     0.046 C 
BRANCH  27  28
HETATM   28  C   UNL     1      45.691 -12.779   8.347  1.00  0.00     0.169 C 
BRANCH  28  29
HETATM   29  O   UNL     1      44.948 -13.058   9.530  1.00  0.00    -0.387 OA
BRANCH  29  30
HETATM   30  C   UNL     1      45.156 -12.110  10.580  1.00  0.00     0.113 C 
HETATM   31  C   UNL     1      43.881 -11.896  11.390  1.00  0.00     0.039 C 
HETATM   32  C   UNL     1      45.595 -10.807   9.925  1.00  0.00     0.039 C 
ENDBRANCH  29  30
ENDBRANCH  28  29
ENDBRANCH  27  28
ENDBRANCH  26  27
ENDBRANCH   1  26
TORSDOF 8
ENDMDL
MODEL 5
REMARK VINA RESULT:      -7.0      3.202      7.388
REMARK  8 active torsions:
REMARK  status: ('A' for Active; 'I' for Inactive)
REMARK    1  A    between atoms: C_2  and  O_3 
REMARK    2  A    between atoms: O_3  and  C_4 
REMARK    3  A    between atoms: C_4  and  C_5 
REMARK    4  A    between atoms: C_5  and  C_6 
REMARK    5  A    between atoms: C_6  and  N_7 
REMARK    6  A    between atoms: C_12  and  C_13 
REMARK    7  A    between atoms: C_23  and  C_24 
REMARK    8  A    between atoms: C_25  and  O_26 
ROOT
HETATM    1  N   UNL     1      41.871 -17.212   2.565  1.00  0.00    -0.334 N 
HETATM    2  C   UNL     1      42.506 -17.268   1.316  1.00  0.00     0.273 A 
HETATM    3  O   UNL     1      43.376 -18.024   0.929  1.00  0.00    -0.266 OA
HETATM    4  C   UNL     1      41.882 -16.230   0.585  1.00  0.00     0.129 A 
HETATM    5  C   UNL     1      40.935 -15.569   1.309  1.00  0.00     0.034 A 
HETATM    6  C   UNL     1      40.839 -16.139   2.670  1.00  0.00     0.159 A 
HETATM    7  N   UNL     1      41.935 -15.669  -0.633  1.00  0.00    -0.272 N 
HETATM    8  H   UNL     1      42.534 -15.897  -1.420  1.00  0.00     0.189 HD
HETATM    9  N   UNL     1      41.025 -14.669  -0.758  1.00  0.00    -0.173 NA
HETATM   10  C   UNL     1      40.400 -14.606   0.443  1.00  0.00     0.101 A 
ENDROOT
BRANCH  10  11
HETATM   11  C   UNL     1      39.334 -13.645   0.702  1.00  0.00     0.028 A 
HETATM   12  C   UNL     1      38.154 -13.616  -0.055  1.00  0.00     0.078 A 
HETATM   13  C   UNL     1      37.115 -12.745   0.268  1.00  0.00     0.037 A 
HETATM   14  C   UNL     1      37.261 -11.858   1.334  1.00  0.00     0.003 A 
HETATM   15  C   UNL     1      38.443 -11.847   2.075  1.00  0.00     0.001 A 
HETATM   16  C   UNL     1      39.473 -12.737   1.761  1.00  0.00     0.017 A 
BRANCH  12  17
HETATM   17  O   UNL     1      37.970 -14.399  -1.164  1.00  0.00    -0.360 OA
HETATM   18  H   UNL     1      38.655 -14.131  -1.803  1.00  0.00     0.217 HD
ENDBRANCH  12  17
ENDBRANCH  10  11
BRANCH   6  19
HETATM   19  C   UNL     1      41.164 -15.044   3.657  1.00  0.00    -0.031 A 
HETATM   20  C   UNL     1      40.293 -14.821   4.738  1.00  0.00     0.011 A 
HETATM   21  C   UNL     1      40.563 -13.826   5.683  1.00  0.00     0.024 A 
HETATM   22  C   UNL     1      41.704 -13.041   5.553  1.00  0.00     0.034 A 
HETATM   23 CL   UNL     1      42.039 -11.821   6.719  1.00  0.00    -0.084 Cl
HETATM   24  C   UNL     1      42.577 -13.238   4.487  1.00  0.00     0.024 A 
HETATM   25  C   UNL     1      42.308 -14.234   3.544  1.00  0.00     0.011 A 
ENDBRANCH   6  19
BRANCH   1  26
HETATM   26  C   UNL     1      42.164 -18.132   3.652  1.00  0.00     0.129 C 
BRANCH  26  27
HETATM   27  C   UNL     1      43.635 -18.139   4.075  1.00  0.00     0.046 C 
BRANCH  27  28
HETATM   28  C   UNL     1      43.943 -17.128   5.174  1.00  0.00     0.169 C 
BRANCH  28  29
HETATM   29  O   UNL     1      42.789 -16.972   5.993  1.00  0.00    -0.387 OA
BRANCH  29  30
HETATM   30  C   UNL     1      43.045 -16.310   7.235  1.00  0.00     0.113 C 
HETATM   31  C   UNL     1      44.187 -15.308   7.100  1.00  0.00     0.039 C 
HETATM   32  C   UNL     1      43.401 -17.390   8.249  1.00  0.00     0.039 C 
ENDBRANCH  29  30
ENDBRANCH  28  29
ENDBRANCH  27  28
ENDBRANCH  26  27
ENDBRANCH   1  26
TORSDOF 8
ENDMDL
MODEL 6
REMARK VINA RESULT:      -7.0      2.805      6.338
REMARK  8 active torsions:
REMARK  status: ('A' for Active; 'I' for Inactive)
REMARK    1  A    between atoms: C_2  and  O_3 
REMARK    2  A    between atoms: O_3  and  C_4 
REMARK    3  A    between atoms: C_4  and  C_5 
REMARK    4  A    between atoms: C_5  and  C_6 
REMARK    5  A    between atoms: C_6  and  N_7 
REMARK    6  A    between atoms: C_12  and  C_13 
REMARK    7  A    between atoms: C_23  and  C_24 
REMARK    8  A    between atoms: C_25  and  O_26 
ROOT
HETATM    1  N   UNL     1      42.956 -13.987   4.534  1.00  0.00    -0.334 N 
HETATM    2  C   UNL     1      41.779 -13.314   4.893  1.00  0.00     0.273 A 
HETATM    3  O   UNL     1      41.432 -12.899   5.981  1.00  0.00    -0.266 OA
HETATM    4  C   UNL     1      41.076 -13.209   3.669  1.00  0.00     0.129 A 
HETATM    5  C   UNL     1      41.747 -13.772   2.625  1.00  0.00     0.034 A 
HETATM    6  C   UNL     1      43.033 -14.337   3.085  1.00  0.00     0.159 A 
HETATM    7  N   UNL     1      39.917 -12.723   3.200  1.00  0.00    -0.272 N 
HETATM    8  H   UNL     1      39.168 -12.253   3.699  1.00  0.00     0.189 HD
HETATM    9  N   UNL     1      39.806 -12.914   1.861  1.00  0.00    -0.173 NA
HETATM   10  C   UNL     1      40.940 -13.561   1.498  1.00  0.00     0.101 A 
ENDROOT
BRANCH  10  11
HETATM   11  C   UNL     1      41.197 -13.939   0.114  1.00  0.00     0.028 A 
HETATM   12  C   UNL     1      40.876 -15.209  -0.387  1.00  0.00     0.078 A 
HETATM   13  C   UNL     1      41.053 -15.515  -1.735  1.00  0.00     0.037 A 
HETATM   14  C   UNL     1      41.595 -14.561  -2.596  1.00  0.00     0.003 A 
HETATM   15  C   UNL     1      41.955 -13.306  -2.108  1.00  0.00     0.001 A 
HETATM   16  C   UNL     1      41.755 -12.995  -0.761  1.00  0.00     0.017 A 
BRANCH  12  17
HETATM   17  O   UNL     1      40.417 -16.222   0.413  1.00  0.00    -0.360 OA
HETATM   18  H   UNL     1      40.538 -15.920   1.332  1.00  0.00     0.217 HD
ENDBRANCH  12  17
ENDBRANCH  10  11
BRANCH   6  19
HETATM   19  C   UNL     1      43.022 -15.818   2.793  1.00  0.00    -0.031 A 
HETATM   20  C   UNL     1      43.994 -16.350   1.928  1.00  0.00     0.011 A 
HETATM   21  C   UNL     1      44.029 -17.718   1.640  1.00  0.00     0.024 A 
HETATM   22  C   UNL     1      43.086 -18.568   2.212  1.00  0.00     0.034 A 
HETATM   23 CL   UNL     1      43.132 -20.252   1.862  1.00  0.00    -0.084 Cl
HETATM   24  C   UNL     1      42.109 -18.064   3.065  1.00  0.00     0.024 A 
HETATM   25  C   UNL     1      42.077 -16.696   3.354  1.00  0.00     0.011 A 
ENDBRANCH   6  19
BRANCH   1  26
HETATM   26  C   UNL     1      44.022 -14.288   5.475  1.00  0.00     0.129 C 
BRANCH  26  27
HETATM   27  C   UNL     1      43.601 -15.237   6.601  1.00  0.00     0.046 C 
BRANCH  27  28
HETATM   28  C   UNL     1      44.208 -16.629   6.466  1.00  0.00     0.169 C 
BRANCH  28  29
HETATM   29  O   UNL     1      43.162 -17.594   6.511  1.00  0.00    -0.387 OA
BRANCH  29  30
HETATM   30  C   UNL     1      43.595 -18.931   6.245  1.00  0.00     0.113 C 
HETATM   31  C   UNL     1      43.803 -19.711   7.540  1.00  0.00     0.039 C 
HETATM   32  C   UNL     1      44.903 -18.829   5.470  1.00  0.00     0.039 C 
ENDBRANCH  29  30
ENDBRANCH  28  29
ENDBRANCH  27  28
ENDBRANCH  26  27
ENDBRANCH   1  26
TORSDOF 8
ENDMDL
MODEL 7
REMARK VINA RESULT:      -6.9      2.510      3.725
REMARK  8 active torsions:
REMARK  status: ('A' for Active; 'I' for Inactive)
REMARK    1  A    between atoms: C_2  and  O_3 
REMARK    2  A    between atoms: O_3  and  C_4 
REMARK    3  A    between atoms: C_4  and  C_5 
REMARK    4  A    between atoms: C_5  and  C_6 
REMARK    5  A    between atoms: C_6  and  N_7 
REMARK    6  A    between atoms: C_12  and  C_13 
REMARK    7  A    between atoms: C_23  and  C_24 
REMARK    8  A    between atoms: C_25  and  O_26 
ROOT
HETATM    1  N   UNL     1      41.021 -13.373   5.505  1.00  0.00    -0.334 N 
HETATM    2  C   UNL     1      41.959 -12.564   6.164  1.00  0.00     0.273 A 
HETATM    3  O   UNL     1      41.956 -11.360   6.326  1.00  0.00    -0.266 OA
HETATM    4  C   UNL     1      42.925 -13.491   6.622  1.00  0.00     0.129 A 
HETATM    5  C   UNL     1      42.628 -14.776   6.279  1.00  0.00     0.034 A 
HETATM    6  C   UNL     1      41.363 -14.826   5.515  1.00  0.00     0.159 A 
HETATM    7  N   UNL     1      44.081 -13.503   7.302  1.00  0.00    -0.272 N 
HETATM    8  H   UNL     1      44.603 -12.726   7.695  1.00  0.00     0.189 HD
HETATM    9  N   UNL     1      44.553 -14.767   7.455  1.00  0.00    -0.173 NA
HETATM   10  C   UNL     1      43.654 -15.561   6.825  1.00  0.00     0.101 A 
ENDROOT
BRANCH  10  11
HETATM   11  C   UNL     1      43.811 -17.009   6.779  1.00  0.00     0.028 A 
HETATM   12  C   UNL     1      43.695 -17.811   7.923  1.00  0.00     0.078 A 
HETATM   13  C   UNL     1      43.765 -19.200   7.837  1.00  0.00     0.037 A 
HETATM   14  C   UNL     1      43.992 -19.807   6.602  1.00  0.00     0.003 A 
HETATM   15  C   UNL     1      44.147 -19.024   5.459  1.00  0.00     0.001 A 
HETATM   16  C   UNL     1      44.054 -17.632   5.546  1.00  0.00     0.017 A 
BRANCH  12  17
HETATM   17  O   UNL     1      43.553 -17.285   9.180  1.00  0.00    -0.360 OA
HETATM   18  H   UNL     1      44.309 -17.613   9.700  1.00  0.00     0.217 HD
ENDBRANCH  12  17
ENDBRANCH  10  11
BRANCH   6  19
HETATM   19  C   UNL     1      41.664 -15.412   4.157  1.00  0.00    -0.031 A 
HETATM   20  C   UNL     1      42.631 -14.793   3.346  1.00  0.00     0.011 A 
HETATM   21  C   UNL     1      42.950 -15.310   2.086  1.00  0.00     0.024 A 
HETATM   22  C   UNL     1      42.300 -16.449   1.623  1.00  0.00     0.034 A 
HETATM   23 CL   UNL     1      42.697 -17.089   0.075  1.00  0.00    -0.084 Cl
HETATM   24  C   UNL     1      41.333 -17.075   2.403  1.00  0.00     0.024 A 
HETATM   25  C   UNL     1      41.016 -16.559   3.664  1.00  0.00     0.011 A 
ENDBRANCH   6  19
BRANCH   1  26
HETATM   26  C   UNL     1      39.808 -12.854   4.895  1.00  0.00     0.129 C 
BRANCH  26  27
HETATM   27  C   UNL     1      40.064 -11.924   3.706  1.00  0.00     0.046 C 
BRANCH  27  28
HETATM   28  C   UNL     1      39.884 -12.615   2.359  1.00  0.00     0.169 C 
BRANCH  28  29
HETATM   29  O   UNL     1      39.015 -13.731   2.527  1.00  0.00    -0.387 OA
BRANCH  29  30
HETATM   30  C   UNL     1      38.823 -14.500   1.337  1.00  0.00     0.113 C 
HETATM   31  C   UNL     1      39.869 -14.153   0.282  1.00  0.00     0.039 C 
HETATM   32  C   UNL     1      37.424 -14.184   0.823  1.00  0.00     0.039 C 
ENDBRANCH  29  30
ENDBRANCH  28  29
ENDBRANCH  27  28
ENDBRANCH  26  27
ENDBRANCH   1  26
TORSDOF 8
ENDMDL
MODEL 8
REMARK VINA RESULT:      -6.7      3.324      6.406
REMARK  8 active torsions:
REMARK  status: ('A' for Active; 'I' for Inactive)
REMARK    1  A    between atoms: C_2  and  O_3 
REMARK    2  A    between atoms: O_3  and  C_4 
REMARK    3  A    between atoms: C_4  and  C_5 
REMARK    4  A    between atoms: C_5  and  C_6 
REMARK    5  A    between atoms: C_6  and  N_7 
REMARK    6  A    between atoms: C_12  and  C_13 
REMARK    7  A    between atoms: C_23  and  C_24 
REMARK    8  A    between atoms: C_25  and  O_26 
ROOT
HETATM    1  N   UNL     1      42.539 -14.566   4.702  1.00  0.00    -0.334 N 
HETATM    2  C   UNL     1      41.248 -14.132   5.037  1.00  0.00     0.273 A 
HETATM    3  O   UNL     1      40.781 -13.882   6.131  1.00  0.00    -0.266 OA
HETATM    4  C   UNL     1      40.601 -14.032   3.783  1.00  0.00     0.129 A 
HETATM    5  C   UNL     1      41.409 -14.379   2.742  1.00  0.00     0.034 A 
HETATM    6  C   UNL     1      42.747 -14.765   3.237  1.00  0.00     0.159 A 
HETATM    7  N   UNL     1      39.401 -13.701   3.281  1.00  0.00    -0.272 N 
HETATM    8  H   UNL     1      38.559 -13.409   3.767  1.00  0.00     0.189 HD
HETATM    9  N   UNL     1      39.392 -13.784   1.926  1.00  0.00    -0.173 NA
HETATM   10  C   UNL     1      40.636 -14.200   1.587  1.00  0.00     0.101 A 
ENDROOT
BRANCH  10  11
HETATM   11  C   UNL     1      41.023 -14.402   0.195  1.00  0.00     0.028 A 
HETATM   12  C   UNL     1      40.958 -15.658  -0.425  1.00  0.00     0.078 A 
HETATM   13  C   UNL     1      41.252 -15.806  -1.779  1.00  0.00     0.037 A 
HETATM   14  C   UNL     1      41.656 -14.700  -2.525  1.00  0.00     0.003 A 
HETATM   15  C   UNL     1      41.762 -13.449  -1.917  1.00  0.00     0.001 A 
HETATM   16  C   UNL     1      41.445 -13.301  -0.564  1.00  0.00     0.017 A 
BRANCH  12  17
HETATM   17  O   UNL     1      40.649 -16.803   0.262  1.00  0.00    -0.360 OA
HETATM   18  H   UNL     1      39.987 -16.550   0.930  1.00  0.00     0.217 HD
ENDBRANCH  12  17
ENDBRANCH  10  11
BRANCH   6  19
HETATM   19  C   UNL     1      43.001 -16.195   2.825  1.00  0.00    -0.031 A 
HETATM   20  C   UNL     1      42.372 -17.231   3.537  1.00  0.00     0.011 A 
HETATM   21  C   UNL     1      42.568 -18.569   3.181  1.00  0.00     0.024 A 
HETATM   22  C   UNL     1      43.400 -18.884   2.111  1.00  0.00     0.034 A 
HETATM   23 CL   UNL     1      43.637 -20.530   1.669  1.00  0.00    -0.084 Cl
HETATM   24  C   UNL     1      44.040 -17.876   1.395  1.00  0.00     0.024 A 
HETATM   25  C   UNL     1      43.842 -16.539   1.751  1.00  0.00     0.011 A 
ENDBRANCH   6  19
BRANCH   1  26
HETATM   26  C   UNL     1      43.591 -14.775   5.683  1.00  0.00     0.129 C 
BRANCH  26  27
HETATM   27  C   UNL     1      43.908 -13.534   6.521  1.00  0.00     0.046 C 
BRANCH  27  28
HETATM   28  C   UNL     1      45.174 -13.686   7.356  1.00  0.00     0.169 C 
BRANCH  28  29
HETATM   29  O   UNL     1      44.907 -13.243   8.683  1.00  0.00    -0.387 OA
BRANCH  29  30
HETATM   30  C   UNL     1      45.861 -12.301   9.182  1.00  0.00     0.113 C 
HETATM   31  C   UNL     1      45.173 -11.039   9.695  1.00  0.00     0.039 C 
HETATM   32  C   UNL     1      46.799 -11.964   8.031  1.00  0.00     0.039 C 
ENDBRANCH  29  30
ENDBRANCH  28  29
ENDBRANCH  27  28
ENDBRANCH  26  27
ENDBRANCH   1  26
TORSDOF 8
ENDMDL
MODEL 9
REMARK VINA RESULT:      -6.6      4.628      8.737
REMARK  8 active torsions:
REMARK  status: ('A' for Active; 'I' for Inactive)
REMARK    1  A    between atoms: C_2  and  O_3 
REMARK    2  A    between atoms: O_3  and  C_4 
REMARK    3  A    between atoms: C_4  and  C_5 
REMARK    4  A    between atoms: C_5  and  C_6 
REMARK    5  A    between atoms: C_6  and  N_7 
REMARK    6  A    between atoms: C_12  and  C_13 
REMARK    7  A    between atoms: C_23  and  C_24 
REMARK    8  A    between atoms: C_25  and  O_26 
ROOT
HETATM    1  N   UNL     1      41.676 -15.199   0.429  1.00  0.00    -0.334 N 
HETATM    2  C   UNL     1      41.778 -14.380   1.563  1.00  0.00     0.273 A 
HETATM    3  O   UNL     1      41.774 -14.690   2.738  1.00  0.00    -0.266 OA
HETATM    4  C   UNL     1      41.906 -13.081   1.017  1.00  0.00     0.129 A 
HETATM    5  C   UNL     1      41.881 -13.075  -0.345  1.00  0.00     0.034 A 
HETATM    6  C   UNL     1      41.724 -14.451  -0.862  1.00  0.00     0.159 A 
HETATM    7  N   UNL     1      42.040 -11.812   1.432  1.00  0.00    -0.272 N 
HETATM    8  H   UNL     1      42.079 -11.446   2.378  1.00  0.00     0.189 HD
HETATM    9  N   UNL     1      42.139 -10.956   0.383  1.00  0.00    -0.173 NA
HETATM   10  C   UNL     1      42.045 -11.735  -0.721  1.00  0.00     0.101 A 
ENDROOT
BRANCH  10  11
HETATM   11  C   UNL     1      42.118 -11.172  -2.065  1.00  0.00     0.028 A 
HETATM   12  C   UNL     1      41.895  -9.811  -2.318  1.00  0.00     0.078 A 
HETATM   13  C   UNL     1      42.056  -9.282  -3.597  1.00  0.00     0.037 A 
HETATM   14  C   UNL     1      42.406 -10.122  -4.654  1.00  0.00     0.003 A 
HETATM   15  C   UNL     1      42.597 -11.485  -4.428  1.00  0.00     0.001 A 
HETATM   16  C   UNL     1      42.456 -12.007  -3.139  1.00  0.00     0.017 A 
BRANCH  12  17
HETATM   17  O   UNL     1      41.469  -8.941  -1.348  1.00  0.00    -0.360 OA
HETATM   18  H   UNL     1      41.415  -9.457  -0.524  1.00  0.00     0.217 HD
ENDBRANCH  12  17
ENDBRANCH  10  11
BRANCH   6  19
HETATM   19  C   UNL     1      40.449 -14.503  -1.669  1.00  0.00    -0.031 A 
HETATM   20  C   UNL     1      40.465 -15.123  -2.930  1.00  0.00     0.011 A 
HETATM   21  C   UNL     1      39.304 -15.205  -3.705  1.00  0.00     0.024 A 
HETATM   22  C   UNL     1      38.115 -14.662  -3.228  1.00  0.00     0.034 A 
HETATM   23 CL   UNL     1      36.685 -14.767  -4.179  1.00  0.00    -0.084 Cl
HETATM   24  C   UNL     1      38.076 -14.035  -1.986  1.00  0.00     0.024 A 
HETATM   25  C   UNL     1      39.237 -13.956  -1.211  1.00  0.00     0.011 A 
ENDBRANCH   6  19
BRANCH   1  26
HETATM   26  C   UNL     1      41.565 -16.647   0.497  1.00  0.00     0.129 C 
BRANCH  26  27
HETATM   27  C   UNL     1      42.825 -17.338   1.027  1.00  0.00     0.046 C 
BRANCH  27  28
HETATM   28  C   UNL     1      42.517 -18.537   1.917  1.00  0.00     0.169 C 
BRANCH  28  29
HETATM   29  O   UNL     1      43.584 -18.708   2.844  1.00  0.00    -0.387 OA
BRANCH  29  30
HETATM   30  C   UNL     1      44.395 -19.858   2.587  1.00  0.00     0.113 C 
HETATM   31  C   UNL     1      43.599 -20.944   1.869  1.00  0.00     0.039 C 
HETATM   32  C   UNL     1      44.889 -20.365   3.936  1.00  0.00     0.039 C 
ENDBRANCH  29  30
ENDBRANCH  28  29
ENDBRANCH  27  28
ENDBRANCH  26  27
ENDBRANCH   1  26
TORSDOF 8
ENDMDL
MODEL 10
REMARK VINA RESULT:      -6.5      3.894      5.775
REMARK  8 active torsions:
REMARK  status: ('A' for Active; 'I' for Inactive)
REMARK    1  A    between atoms: C_2  and  O_3 
REMARK    2  A    between atoms: O_3  and  C_4 
REMARK    3  A    between atoms: C_4  and  C_5 
REMARK    4  A    between atoms: C_5  and  C_6 
REMARK    5  A    between atoms: C_6  and  N_7 
REMARK    6  A    between atoms: C_12  and  C_13 
REMARK    7  A    between atoms: C_23  and  C_24 
REMARK    8  A    between atoms: C_25  and  O_26 
ROOT
HETATM    1  N   UNL     1      40.535 -12.477   2.254  1.00  0.00    -0.334 N 
HETATM    2  C   UNL     1      39.235 -12.985   2.112  1.00  0.00     0.273 A 
HETATM    3  O   UNL     1      38.183 -12.386   2.004  1.00  0.00    -0.266 OA
HETATM    4  C   UNL     1      39.431 -14.386   2.106  1.00  0.00     0.129 A 
HETATM    5  C   UNL     1      40.741 -14.738   2.238  1.00  0.00     0.034 A 
HETATM    6  C   UNL     1      41.587 -13.531   2.353  1.00  0.00     0.159 A 
HETATM    7  N   UNL     1      38.709 -15.514   2.016  1.00  0.00    -0.272 N 
HETATM    8  H   UNL     1      37.704 -15.628   1.923  1.00  0.00     0.189 HD
HETATM    9  N   UNL     1      39.503 -16.614   2.051  1.00  0.00    -0.173 NA
HETATM   10  C   UNL     1      40.764 -16.138   2.185  1.00  0.00     0.101 A 
ENDROOT
BRANCH  10  11
HETATM   11  C   UNL     1      41.917 -17.029   2.251  1.00  0.00     0.028 A 
HETATM   12  C   UNL     1      42.802 -17.188   1.175  1.00  0.00     0.078 A 
HETATM   13  C   UNL     1      43.943 -17.980   1.295  1.00  0.00     0.037 A 
HETATM   14  C   UNL     1      44.193 -18.659   2.487  1.00  0.00     0.003 A 
HETATM   15  C   UNL     1      43.304 -18.542   3.555  1.00  0.00     0.001 A 
HETATM   16  C   UNL     1      42.173 -17.730   3.439  1.00  0.00     0.017 A 
BRANCH  12  17
HETATM   17  O   UNL     1      42.580 -16.620  -0.052  1.00  0.00    -0.360 OA
HETATM   18  H   UNL     1      43.310 -15.992  -0.198  1.00  0.00     0.217 HD
ENDBRANCH  12  17
ENDBRANCH  10  11
BRANCH   6  19
HETATM   19  C   UNL     1      42.300 -13.588   3.682  1.00  0.00    -0.031 A 
HETATM   20  C   UNL     1      43.627 -14.050   3.724  1.00  0.00     0.011 A 
HETATM   21  C   UNL     1      44.330 -14.107   4.932  1.00  0.00     0.024 A 
HETATM   22  C   UNL     1      43.710 -13.706   6.111  1.00  0.00     0.034 A 
HETATM   23 CL   UNL     1      44.577 -13.771   7.597  1.00  0.00    -0.084 Cl
HETATM   24  C   UNL     1      42.395 -13.252   6.096  1.00  0.00     0.024 A 
HETATM   25  C   UNL     1      41.693 -13.194   4.888  1.00  0.00     0.011 A 
ENDBRANCH   6  19
BRANCH   1  26
HETATM   26  C   UNL     1      40.839 -11.056   2.272  1.00  0.00     0.129 C 
BRANCH  26  27
HETATM   27  C   UNL     1      40.519 -10.340   0.957  1.00  0.00     0.046 C 
BRANCH  27  28
HETATM   28  C   UNL     1      41.268 -10.922  -0.236  1.00  0.00     0.169 C 
BRANCH  28  29
HETATM   29  O   UNL     1      40.329 -11.536  -1.114  1.00  0.00    -0.387 OA
BRANCH  29  30
HETATM   30  C   UNL     1      40.824 -12.712  -1.760  1.00  0.00     0.113 C 
HETATM   31  C   UNL     1      39.988 -13.935  -1.395  1.00  0.00     0.039 C 
HETATM   32  C   UNL     1      42.265 -12.898  -1.304  1.00  0.00     0.039 C 
ENDBRANCH  29  30
ENDBRANCH  28  29
ENDBRANCH  27  28
ENDBRANCH  26  27
ENDBRANCH   1  26
TORSDOF 8
ENDMDL
