MODEL 1
REMARK VINA RESULT:      -8.4      0.000      0.000
REMARK  7 active torsions:
REMARK  status: ('A' for Active; 'I' for Inactive)
REMARK    1  A    between atoms: C_2  and  C_3 
REMARK    2  A    between atoms: C_6  and  C_7 
REMARK    3  A    between atoms: C_7  and  N_8 
REMARK    4  A    between atoms: C_7  and  C_25 
REMARK    5  A    between atoms: N_8  and  C_11 
REMARK    6  A    between atoms: C_11  and  C_12 
REMARK       I    between atoms: C_12  and  N_13 
REMARK    7  A    between atoms: N_13  and  C_14 
ROOT
HETATM    1  N   UNL     1      42.117 -14.052   1.587  1.00  0.00    -0.054 N 
HETATM    2  H   UNL     1      43.073 -14.323   1.867  1.00  0.00     0.278 HD
HETATM    3  H   UNL     1      42.260 -13.260   0.953  1.00  0.00     0.278 HD
ENDROOT
BRANCH   1   4
HETATM    4  C   UNL     1      41.473 -15.190   0.866  1.00  0.00     0.259 C 
BRANCH   4   5
HETATM    5  C   UNL     1      42.138 -16.516   1.197  1.00  0.00    -0.023 A 
HETATM    6  C   UNL     1      43.541 -16.585   1.258  1.00  0.00     0.010 A 
HETATM    7  C   UNL     1      44.187 -17.778   1.592  1.00  0.00     0.007 A 
HETATM    8  C   UNL     1      43.449 -18.929   1.877  1.00  0.00    -0.059 A 
HETATM    9  C   UNL     1      42.053 -18.870   1.823  1.00  0.00     0.007 A 
HETATM   10  C   UNL     1      41.403 -17.680   1.485  1.00  0.00     0.010 A 
BRANCH   8  11
HETATM   11  C   UNL     1      44.147 -20.203   2.284  1.00  0.00     0.034 C 
HETATM   12  C   UNL     1      43.450 -21.434   1.723  1.00  0.00     0.010 C 
ENDBRANCH   8  11
ENDBRANCH   4   5
BRANCH   4  13
HETATM   13  C   UNL     1      41.392 -14.932  -0.619  1.00  0.00     0.017 A 
HETATM   14  S   UNL     1      41.818 -13.378  -1.223  1.00  0.00    -0.104 SA
HETATM   15  C   UNL     1      41.516 -13.844  -2.836  1.00  0.00     0.050 A 
HETATM   16  C   UNL     1      41.107 -15.154  -2.927  1.00  0.00     0.008 A 
HETATM   17  C   UNL     1      41.035 -15.783  -1.651  1.00  0.00     0.017 A 
ENDBRANCH   4  13
ENDBRANCH   1   4
BRANCH   1  18
HETATM   18  C   UNL     1      41.405 -13.572   2.826  1.00  0.00     0.336 C 
BRANCH  18  19
HETATM   19  C   UNL     1      41.389 -14.677   3.880  1.00  0.00     0.248 C 
HETATM   20  N   UNL     1      42.641 -15.061   4.315  1.00  0.00    -0.326 N 
HETATM   21  H   UNL     1      43.457 -14.630   3.890  1.00  0.00     0.169 HD
HETATM   22  O   UNL     1      40.298 -15.120   4.234  1.00  0.00    -0.271 OA
BRANCH  20  23
HETATM   23  C   UNL     1      42.940 -16.033   5.299  1.00  0.00     0.037 A 
HETATM   24  C   UNL     1      42.920 -17.413   5.059  1.00  0.00     0.061 A 
HETATM   25  C   UNL     1      43.225 -18.237   6.121  1.00  0.00     0.065 A 
HETATM   26  C   UNL     1      43.544 -17.747   7.384  1.00  0.00     0.063 A 
HETATM   27  N   UNL     1      43.276 -19.626   6.178  1.00  0.00    -0.306 N 
HETATM   28  N   UNL     1      43.794 -18.830   8.217  1.00  0.00    -0.307 N 
HETATM   29  C   UNL     1      43.576 -16.404   7.655  1.00  0.00     0.034 A 
HETATM   30  C   UNL     1      43.629 -20.012   7.479  1.00  0.00     0.325 A 
HETATM   31  H   UNL     1      44.050 -18.816   9.191  1.00  0.00     0.170 HD
HETATM   32  O   UNL     1      43.765 -21.150   7.887  1.00  0.00    -0.247 OA
HETATM   33  C   UNL     1      43.265 -15.542   6.593  1.00  0.00     0.032 A 
HETATM   34  H   UNL     1      43.094 -20.284   5.437  1.00  0.00     0.170 HD
ENDBRANCH  20  23
ENDBRANCH  18  19
ENDBRANCH   1  18
TORSDOF 7
ENDMDL
MODEL 2
REMARK VINA RESULT:      -8.2      2.837      7.077
REMARK  7 active torsions:
REMARK  status: ('A' for Active; 'I' for Inactive)
REMARK    1  A    between atoms: C_2  and  C_3 
REMARK    2  A    between atoms: C_6  and  C_7 
REMARK    3  A    between atoms: C_7  and  N_8 
REMARK    4  A    between atoms: C_7  and  C_25 
REMARK    5  A    between atoms: N_8  and  C_11 
REMARK    6  A    between atoms: C_11  and  C_12 
REMARK       I    between atoms: C_12  and  N_13 
REMARK    7  A    between atoms: N_13  and  C_14 
ROOT
HETATM    1  N   UNL     1      40.937 -16.476   5.421  1.00  0.00    -0.054 N 
HETATM    2  H   UNL     1      40.459 -17.266   4.959  1.00  0.00     0.278 HD
HETATM    3  H   UNL     1      41.069 -16.797   6.385  1.00  0.00     0.278 HD
ENDROOT
BRANCH   1   4
HETATM    4  C   UNL     1      42.255 -16.243   4.760  1.00  0.00     0.259 C 
BRANCH   4   5
HETATM    5  C   UNL     1      42.860 -17.535   4.237  1.00  0.00    -0.023 A 
HETATM    6  C   UNL     1      42.717 -17.859   2.876  1.00  0.00     0.010 A 
HETATM    7  C   UNL     1      43.288 -19.021   2.351  1.00  0.00     0.007 A 
HETATM    8  C   UNL     1      44.018 -19.886   3.170  1.00  0.00    -0.059 A 
HETATM    9  C   UNL     1      44.170 -19.571   4.524  1.00  0.00     0.007 A 
HETATM   10  C   UNL     1      43.596 -18.411   5.054  1.00  0.00     0.010 A 
BRANCH   8  11
HETATM   11  C   UNL     1      44.674 -21.115   2.591  1.00  0.00     0.034 C 
HETATM   12  C   UNL     1      43.782 -21.802   1.567  1.00  0.00     0.010 C 
ENDBRANCH   8  11
ENDBRANCH   4   5
BRANCH   4  13
HETATM   13  C   UNL     1      43.199 -15.477   5.656  1.00  0.00     0.017 A 
HETATM   14  S   UNL     1      43.904 -14.019   5.076  1.00  0.00    -0.104 SA
HETATM   15  C   UNL     1      44.746 -13.762   6.538  1.00  0.00     0.050 A 
HETATM   16  C   UNL     1      44.497 -14.754   7.458  1.00  0.00     0.008 A 
HETATM   17  C   UNL     1      43.605 -15.744   6.952  1.00  0.00     0.017 A 
ENDBRANCH   4  13
ENDBRANCH   1   4
BRANCH   1  18
HETATM   18  C   UNL     1      39.983 -15.308   5.415  1.00  0.00     0.336 C 
BRANCH  18  19
HETATM   19  C   UNL     1      40.047 -14.591   4.068  1.00  0.00     0.248 C 
HETATM   20  N   UNL     1      39.748 -15.392   2.985  1.00  0.00    -0.326 N 
HETATM   21  H   UNL     1      39.556 -16.376   3.147  1.00  0.00     0.169 HD
HETATM   22  O   UNL     1      40.355 -13.400   4.063  1.00  0.00    -0.271 OA
BRANCH  20  23
HETATM   23  C   UNL     1      39.697 -15.002   1.626  1.00  0.00     0.037 A 
HETATM   24  C   UNL     1      40.719 -15.262   0.705  1.00  0.00     0.061 A 
HETATM   25  C   UNL     1      40.530 -14.812  -0.584  1.00  0.00     0.065 A 
HETATM   26  C   UNL     1      39.382 -14.130  -0.980  1.00  0.00     0.063 A 
HETATM   27  N   UNL     1      41.365 -14.918  -1.692  1.00  0.00    -0.306 N 
HETATM   28  N   UNL     1      39.508 -13.820  -2.328  1.00  0.00    -0.307 N 
HETATM   29  C   UNL     1      38.360 -13.861  -0.107  1.00  0.00     0.034 A 
HETATM   30  C   UNL     1      40.742 -14.303  -2.787  1.00  0.00     0.325 A 
HETATM   31  H   UNL     1      38.852 -13.329  -2.914  1.00  0.00     0.170 HD
HETATM   32  O   UNL     1      41.188 -14.208  -3.916  1.00  0.00    -0.247 OA
HETATM   33  C   UNL     1      38.529 -14.304   1.213  1.00  0.00     0.032 A 
HETATM   34  H   UNL     1      42.273 -15.351  -1.744  1.00  0.00     0.170 HD
ENDBRANCH  20  23
ENDBRANCH  18  19
ENDBRANCH   1  18
TORSDOF 7
ENDMDL
MODEL 3
REMARK VINA RESULT:      -7.9      5.864      9.507
REMARK  7 active torsions:
REMARK  status: ('A' for Active; 'I' for Inactive)
REMARK    1  A    between atoms: C_2  and  C_3 
REMARK    2  A    between atoms: C_6  and  C_7 
REMARK    3  A    between atoms: C_7  and  N_8 
REMARK    4  A    between atoms: C_7  and  C_25 
REMARK    5  A    between atoms: N_8  and  C_11 
REMARK    6  A    between atoms: C_11  and  C_12 
REMARK       I    between atoms: C_12  and  N_13 
REMARK    7  A    between atoms: N_13  and  C_14 
ROOT
HETATM    1  N   UNL     1      43.620 -12.195   9.140  1.00  0.00    -0.054 N 
HETATM    2  H   UNL     1      43.430 -12.804   9.953  1.00  0.00     0.278 HD
HETATM    3  H   UNL     1      42.999 -12.558   8.410  1.00  0.00     0.278 HD
ENDROOT
BRANCH   1   4
HETATM    4  C   UNL     1      43.259 -10.787   9.484  1.00  0.00     0.259 C 
BRANCH   4   5
HETATM    5  C   UNL     1      42.963 -10.626  10.965  1.00  0.00    -0.023 A 
HETATM    6  C   UNL     1      43.813  -9.829  11.752  1.00  0.00     0.010 A 
HETATM    7  C   UNL     1      43.556  -9.630  13.111  1.00  0.00     0.007 A 
HETATM    8  C   UNL     1      42.442 -10.218  13.716  1.00  0.00    -0.059 A 
HETATM    9  C   UNL     1      41.588 -11.009  12.941  1.00  0.00     0.007 A 
HETATM   10  C   UNL     1      41.846 -11.215  11.582  1.00  0.00     0.010 A 
BRANCH   8  11
HETATM   11  C   UNL     1      42.139  -9.962  15.172  1.00  0.00     0.034 C 
HETATM   12  C   UNL     1      41.095  -8.869  15.348  1.00  0.00     0.010 C 
ENDBRANCH   8  11
ENDBRANCH   4   5
BRANCH   4  13
HETATM   13  C   UNL     1      42.144 -10.270   8.606  1.00  0.00     0.017 A 
HETATM   14  S   UNL     1      41.688 -11.173   7.214  1.00  0.00    -0.104 SA
HETATM   15  C   UNL     1      40.466 -10.054   6.802  1.00  0.00     0.050 A 
HETATM   16  C   UNL     1      40.393  -9.015   7.701  1.00  0.00     0.008 A 
HETATM   17  C   UNL     1      41.359  -9.138   8.742  1.00  0.00     0.017 A 
ENDBRANCH   4  13
ENDBRANCH   1   4
BRANCH   1  18
HETATM   18  C   UNL     1      45.052 -12.425   8.730  1.00  0.00     0.336 C 
BRANCH  18  19
HETATM   19  C   UNL     1      45.111 -13.440   7.590  1.00  0.00     0.248 C 
HETATM   20  N   UNL     1      44.156 -14.432   7.666  1.00  0.00    -0.326 N 
HETATM   21  H   UNL     1      43.530 -14.444   8.465  1.00  0.00     0.169 HD
HETATM   22  O   UNL     1      45.982 -13.294   6.733  1.00  0.00    -0.271 OA
BRANCH  20  23
HETATM   23  C   UNL     1      43.947 -15.486   6.744  1.00  0.00     0.037 A 
HETATM   24  C   UNL     1      44.625 -16.709   6.797  1.00  0.00     0.061 A 
HETATM   25  C   UNL     1      44.322 -17.636   5.823  1.00  0.00     0.065 A 
HETATM   26  C   UNL     1      43.385 -17.394   4.823  1.00  0.00     0.063 A 
HETATM   27  N   UNL     1      44.835 -18.914   5.625  1.00  0.00    -0.306 N 
HETATM   28  N   UNL     1      43.318 -18.519   4.012  1.00  0.00    -0.307 N 
HETATM   29  C   UNL     1      42.699 -16.210   4.741  1.00  0.00     0.034 A 
HETATM   30  C   UNL     1      44.220 -19.478   4.498  1.00  0.00     0.325 A 
HETATM   31  H   UNL     1      42.739 -18.665   3.201  1.00  0.00     0.170 HD
HETATM   32  O   UNL     1      44.429 -20.583   4.034  1.00  0.00    -0.247 OA
HETATM   33  C   UNL     1      42.992 -15.246   5.717  1.00  0.00     0.032 A 
HETATM   34  H   UNL     1      45.534 -19.392   6.170  1.00  0.00     0.170 HD
ENDBRANCH  20  23
ENDBRANCH  18  19
ENDBRANCH   1  18
TORSDOF 7
ENDMDL
MODEL 4
REMARK VINA RESULT:      -7.8      3.436      7.900
REMARK  7 active torsions:
REMARK  status: ('A' for Active; 'I' for Inactive)
REMARK    1  A    between atoms: C_2  and  C_3 
REMARK    2  A    between atoms: C_6  and  C_7 
REMARK    3  A    between atoms: C_7  and  N_8 
REMARK    4  A    between atoms: C_7  and  C_25 
REMARK    5  A    between atoms: N_8  and  C_11 
REMARK    6  A    between atoms: C_11  and  C_12 
REMARK       I    between atoms: C_12  and  N_13 
REMARK    7  A    between atoms: N_13  and  C_14 
ROOT
HETATM    1  N   UNL     1      43.283 -15.067   2.381  1.00  0.00    -0.054 N 
HETATM    2  H   UNL     1      44.111 -14.469   2.230  1.00  0.00     0.278 HD
HETATM    3  H   UNL     1      43.320 -15.738   1.608  1.00  0.00     0.278 HD
ENDROOT
BRANCH   1   4
HETATM    4  C   UNL     1      43.415 -15.769   3.692  1.00  0.00     0.259 C 
BRANCH   4   5
HETATM    5  C   UNL     1      43.651 -17.259   3.514  1.00  0.00    -0.023 A 
HETATM    6  C   UNL     1      43.529 -17.826   2.233  1.00  0.00     0.010 A 
HETATM    7  C   UNL     1      43.771 -19.186   2.024  1.00  0.00     0.007 A 
HETATM    8  C   UNL     1      44.146 -20.012   3.087  1.00  0.00    -0.059 A 
HETATM    9  C   UNL     1      44.275 -19.457   4.363  1.00  0.00     0.007 A 
HETATM   10  C   UNL     1      44.028 -18.098   4.578  1.00  0.00     0.010 A 
BRANCH   8  11
HETATM   11  C   UNL     1      44.454 -21.470   2.849  1.00  0.00     0.034 C 
HETATM   12  C   UNL     1      43.998 -21.926   1.470  1.00  0.00     0.010 C 
ENDBRANCH   8  11
ENDBRANCH   4   5
BRANCH   4  13
HETATM   13  C   UNL     1      42.249 -15.467   4.603  1.00  0.00     0.017 A 
HETATM   14  S   UNL     1      42.235 -13.987   5.482  1.00  0.00    -0.104 SA
HETATM   15  C   UNL     1      40.725 -14.343   6.193  1.00  0.00     0.050 A 
HETATM   16  C   UNL     1      40.229 -15.555   5.773  1.00  0.00     0.008 A 
HETATM   17  C   UNL     1      41.105 -16.205   4.856  1.00  0.00     0.017 A 
ENDBRANCH   4  13
ENDBRANCH   1   4
BRANCH   1  18
HETATM   18  C   UNL     1      42.063 -14.195   2.221  1.00  0.00     0.336 C 
BRANCH  18  19
HETATM   19  C   UNL     1      41.125 -14.797   1.177  1.00  0.00     0.248 C 
HETATM   20  N   UNL     1      41.099 -14.113  -0.021  1.00  0.00    -0.326 N 
HETATM   21  H   UNL     1      41.650 -13.265  -0.109  1.00  0.00     0.169 HD
HETATM   22  O   UNL     1      40.490 -15.804   1.485  1.00  0.00    -0.271 OA
BRANCH  20  23
HETATM   23  C   UNL     1      40.354 -14.448  -1.177  1.00  0.00     0.037 A 
HETATM   24  C   UNL     1      39.107 -13.889  -1.486  1.00  0.00     0.061 A 
HETATM   25  C   UNL     1      38.497 -14.322  -2.643  1.00  0.00     0.065 A 
HETATM   26  C   UNL     1      39.072 -15.268  -3.487  1.00  0.00     0.063 A 
HETATM   27  N   UNL     1      37.272 -13.953  -3.191  1.00  0.00    -0.306 N 
HETATM   28  N   UNL     1      38.207 -15.480  -4.552  1.00  0.00    -0.307 N 
HETATM   29  C   UNL     1      40.291 -15.835  -3.218  1.00  0.00     0.034 A 
HETATM   30  C   UNL     1      37.076 -14.667  -4.381  1.00  0.00     0.325 A 
HETATM   31  H   UNL     1      38.328 -16.104  -5.333  1.00  0.00     0.170 HD
HETATM   32  O   UNL     1      36.112 -14.595  -5.120  1.00  0.00    -0.247 OA
HETATM   33  C   UNL     1      40.933 -15.416  -2.043  1.00  0.00     0.032 A 
HETATM   34  H   UNL     1      36.605 -13.292  -2.826  1.00  0.00     0.170 HD
ENDBRANCH  20  23
ENDBRANCH  18  19
ENDBRANCH   1  18
TORSDOF 7
ENDMDL
MODEL 5
REMARK VINA RESULT:      -7.7      3.014      7.659
REMARK  7 active torsions:
REMARK  status: ('A' for Active; 'I' for Inactive)
REMARK    1  A    between atoms: C_2  and  C_3 
REMARK    2  A    between atoms: C_6  and  C_7 
REMARK    3  A    between atoms: C_7  and  N_8 
REMARK    4  A    between atoms: C_7  and  C_25 
REMARK    5  A    between atoms: N_8  and  C_11 
REMARK    6  A    between atoms: C_11  and  C_12 
REMARK       I    between atoms: C_12  and  N_13 
REMARK    7  A    between atoms: N_13  and  C_14 
ROOT
HETATM    1  N   UNL     1      40.854 -16.656   3.654  1.00  0.00    -0.054 N 
HETATM    2  H   UNL     1      40.662 -17.459   4.275  1.00  0.00     0.278 HD
HETATM    3  H   UNL     1      40.508 -15.849   4.180  1.00  0.00     0.278 HD
ENDROOT
BRANCH   1   4
HETATM    4  C   UNL     1      42.327 -16.547   3.433  1.00  0.00     0.259 C 
BRANCH   4   5
HETATM    5  C   UNL     1      42.960 -17.902   3.164  1.00  0.00    -0.023 A 
HETATM    6  C   UNL     1      43.412 -18.676   4.248  1.00  0.00     0.010 A 
HETATM    7  C   UNL     1      43.969 -19.940   4.044  1.00  0.00     0.007 A 
HETATM    8  C   UNL     1      44.085 -20.465   2.754  1.00  0.00    -0.059 A 
HETATM    9  C   UNL     1      43.635 -19.705   1.670  1.00  0.00     0.007 A 
HETATM   10  C   UNL     1      43.081 -18.437   1.870  1.00  0.00     0.010 A 
BRANCH   8  11
HETATM   11  C   UNL     1      44.642 -21.851   2.540  1.00  0.00     0.034 C 
HETATM   12  C   UNL     1      44.699 -22.643   3.839  1.00  0.00     0.010 C 
ENDBRANCH   8  11
ENDBRANCH   4   5
BRANCH   4  13
HETATM   13  C   UNL     1      43.003 -15.798   4.556  1.00  0.00     0.017 A 
HETATM   14  S   UNL     1      43.511 -14.175   4.293  1.00  0.00    -0.104 SA
HETATM   15  C   UNL     1      44.106 -14.028   5.885  1.00  0.00     0.050 A 
HETATM   16  C   UNL     1      43.920 -15.180   6.614  1.00  0.00     0.008 A 
HETATM   17  C   UNL     1      43.284 -16.202   5.850  1.00  0.00     0.017 A 
ENDBRANCH   4  13
ENDBRANCH   1   4
BRANCH   1  18
HETATM   18  C   UNL     1      40.015 -16.836   2.414  1.00  0.00     0.336 C 
BRANCH  18  19
HETATM   19  C   UNL     1      40.221 -15.653   1.470  1.00  0.00     0.248 C 
HETATM   20  N   UNL     1      40.865 -15.975   0.293  1.00  0.00    -0.326 N 
HETATM   21  H   UNL     1      41.183 -16.930   0.159  1.00  0.00     0.169 HD
HETATM   22  O   UNL     1      39.814 -14.550   1.830  1.00  0.00    -0.271 OA
BRANCH  20  23
HETATM   23  C   UNL     1      41.166 -15.102  -0.779  1.00  0.00     0.037 A 
HETATM   24  C   UNL     1      41.669 -13.806  -0.607  1.00  0.00     0.061 A 
HETATM   25  C   UNL     1      41.905 -13.070  -1.748  1.00  0.00     0.065 A 
HETATM   26  C   UNL     1      41.666 -13.568  -3.026  1.00  0.00     0.063 A 
HETATM   27  N   UNL     1      42.390 -11.772  -1.881  1.00  0.00    -0.306 N 
HETATM   28  N   UNL     1      42.004 -12.582  -3.943  1.00  0.00    -0.307 N 
HETATM   29  C   UNL     1      41.177 -14.831  -3.233  1.00  0.00     0.034 A 
HETATM   30  C   UNL     1      42.457 -11.453  -3.245  1.00  0.00     0.325 A 
HETATM   31  H   UNL     1      41.947 -12.626  -4.948  1.00  0.00     0.170 HD
HETATM   32  O   UNL     1      42.833 -10.400  -3.726  1.00  0.00    -0.247 OA
HETATM   33  C   UNL     1      40.923 -15.601  -2.088  1.00  0.00     0.032 A 
HETATM   34  H   UNL     1      42.656 -11.133  -1.150  1.00  0.00     0.170 HD
ENDBRANCH  20  23
ENDBRANCH  18  19
ENDBRANCH   1  18
TORSDOF 7
ENDMDL
MODEL 6
REMARK VINA RESULT:      -7.7      3.539      8.380
REMARK  7 active torsions:
REMARK  status: ('A' for Active; 'I' for Inactive)
REMARK    1  A    between atoms: C_2  and  C_3 
REMARK    2  A    between atoms: C_6  and  C_7 
REMARK    3  A    between atoms: C_7  and  N_8 
REMARK    4  A    between atoms: C_7  and  C_25 
REMARK    5  A    between atoms: N_8  and  C_11 
REMARK    6  A    between atoms: C_11  and  C_12 
REMARK       I    between atoms: C_12  and  N_13 
REMARK    7  A    between atoms: N_13  and  C_14 
ROOT
HETATM    1  N   UNL     1      42.949 -16.816   0.830  1.00  0.00    -0.054 N 
HETATM    2  H   UNL     1      43.359 -15.983   0.379  1.00  0.00     0.278 HD
HETATM    3  H   UNL     1      43.261 -17.595   0.242  1.00  0.00     0.278 HD
ENDROOT
BRANCH   1   4
HETATM    4  C   UNL     1      43.499 -16.949   2.212  1.00  0.00     0.259 C 
BRANCH   4   5
HETATM    5  C   UNL     1      43.827 -18.393   2.553  1.00  0.00    -0.023 A 
HETATM    6  C   UNL     1      44.387 -18.693   3.807  1.00  0.00     0.010 A 
HETATM    7  C   UNL     1      44.671 -20.012   4.170  1.00  0.00     0.007 A 
HETATM    8  C   UNL     1      44.399 -21.064   3.291  1.00  0.00    -0.059 A 
HETATM    9  C   UNL     1      43.838 -20.777   2.043  1.00  0.00     0.007 A 
HETATM   10  C   UNL     1      43.557 -19.458   1.675  1.00  0.00     0.010 A 
BRANCH   8  11
HETATM   11  C   UNL     1      44.662 -22.492   3.703  1.00  0.00     0.034 C 
HETATM   12  C   UNL     1      45.112 -22.586   5.154  1.00  0.00     0.010 C 
ENDBRANCH   8  11
ENDBRANCH   4   5
BRANCH   4  13
HETATM   13  C   UNL     1      42.599 -16.297   3.234  1.00  0.00     0.017 A 
HETATM   14  S   UNL     1      42.797 -14.622   3.575  1.00  0.00    -0.104 SA
HETATM   15  C   UNL     1      41.518 -14.630   4.706  1.00  0.00     0.050 A 
HETATM   16  C   UNL     1      40.940 -15.873   4.823  1.00  0.00     0.008 A 
HETATM   17  C   UNL     1      41.562 -16.836   3.976  1.00  0.00     0.017 A 
ENDBRANCH   4  13
ENDBRANCH   1   4
BRANCH   1  18
HETATM   18  C   UNL     1      41.450 -16.690   0.729  1.00  0.00     0.336 C 
BRANCH  18  19
HETATM   19  C   UNL     1      41.083 -15.379   0.036  1.00  0.00     0.248 C 
HETATM   20  N   UNL     1      41.397 -15.343  -1.307  1.00  0.00    -0.326 N 
HETATM   21  H   UNL     1      41.870 -16.142  -1.717  1.00  0.00     0.169 HD
HETATM   22  O   UNL     1      40.562 -14.495   0.714  1.00  0.00    -0.271 OA
BRANCH  20  23
HETATM   23  C   UNL     1      41.150 -14.282  -2.211  1.00  0.00     0.037 A 
HETATM   24  C   UNL     1      42.163 -13.537  -2.828  1.00  0.00     0.061 A 
HETATM   25  C   UNL     1      41.767 -12.527  -3.678  1.00  0.00     0.065 A 
HETATM   26  C   UNL     1      40.429 -12.241  -3.932  1.00  0.00     0.063 A 
HETATM   27  N   UNL     1      42.540 -11.633  -4.413  1.00  0.00    -0.306 N 
HETATM   28  N   UNL     1      40.376 -11.176  -4.822  1.00  0.00    -0.307 N 
HETATM   29  C   UNL     1      39.411 -12.950  -3.348  1.00  0.00     0.034 A 
HETATM   30  C   UNL     1      41.687 -10.783  -5.131  1.00  0.00     0.325 A 
HETATM   31  H   UNL     1      39.559 -10.728  -5.204  1.00  0.00     0.170 HD
HETATM   32  O   UNL     1      42.021  -9.881  -5.877  1.00  0.00    -0.247 OA
HETATM   33  C   UNL     1      39.785 -13.981  -2.475  1.00  0.00     0.032 A 
HETATM   34  H   UNL     1      43.544 -11.568  -4.450  1.00  0.00     0.170 HD
ENDBRANCH  20  23
ENDBRANCH  18  19
ENDBRANCH   1  18
TORSDOF 7
ENDMDL
MODEL 7
REMARK VINA RESULT:      -7.6      2.614      5.487
REMARK  7 active torsions:
REMARK  status: ('A' for Active; 'I' for Inactive)
REMARK    1  A    between atoms: C_2  and  C_3 
REMARK    2  A    between atoms: C_6  and  C_7 
REMARK    3  A    between atoms: C_7  and  N_8 
REMARK    4  A    between atoms: C_7  and  C_25 
REMARK    5  A    between atoms: N_8  and  C_11 
REMARK    6  A    between atoms: C_11  and  C_12 
REMARK       I    between atoms: C_12  and  N_13 
REMARK    7  A    between atoms: N_13  and  C_14 
ROOT
HETATM    1  N   UNL     1      40.750 -14.061   3.433  1.00  0.00    -0.054 N 
HETATM    2  H   UNL     1      40.182 -14.823   3.839  1.00  0.00     0.278 HD
HETATM    3  H   UNL     1      40.056 -13.372   3.128  1.00  0.00     0.278 HD
ENDROOT
BRANCH   1   4
HETATM    4  C   UNL     1      41.630 -13.485   4.493  1.00  0.00     0.259 C 
BRANCH   4   5
HETATM    5  C   UNL     1      42.121 -14.550   5.459  1.00  0.00    -0.023 A 
HETATM    6  C   UNL     1      41.239 -15.565   5.870  1.00  0.00     0.010 A 
HETATM    7  C   UNL     1      41.663 -16.580   6.731  1.00  0.00     0.007 A 
HETATM    8  C   UNL     1      42.979 -16.608   7.200  1.00  0.00    -0.059 A 
HETATM    9  C   UNL     1      43.866 -15.606   6.794  1.00  0.00     0.007 A 
HETATM   10  C   UNL     1      43.443 -14.586   5.936  1.00  0.00     0.010 A 
BRANCH   8  11
HETATM   11  C   UNL     1      43.449 -17.732   8.091  1.00  0.00     0.034 C 
HETATM   12  C   UNL     1      44.808 -18.265   7.659  1.00  0.00     0.010 C 
ENDBRANCH   8  11
ENDBRANCH   4   5
BRANCH   4  13
HETATM   13  C   UNL     1      40.968 -12.321   5.192  1.00  0.00     0.017 A 
HETATM   14  S   UNL     1      39.886 -11.319   4.306  1.00  0.00    -0.104 SA
HETATM   15  C   UNL     1      39.567 -10.340   5.668  1.00  0.00     0.050 A 
HETATM   16  C   UNL     1      40.257 -10.762   6.780  1.00  0.00     0.008 A 
HETATM   17  C   UNL     1      41.066 -11.905   6.509  1.00  0.00     0.017 A 
ENDBRANCH   4  13
ENDBRANCH   1   4
BRANCH   1  18
HETATM   18  C   UNL     1      41.456 -14.621   2.225  1.00  0.00     0.336 C 
BRANCH  18  19
HETATM   19  C   UNL     1      41.604 -16.135   2.363  1.00  0.00     0.248 C 
HETATM   20  N   UNL     1      42.897 -16.559   2.594  1.00  0.00    -0.326 N 
HETATM   21  H   UNL     1      43.639 -15.866   2.613  1.00  0.00     0.169 HD
HETATM   22  O   UNL     1      40.592 -16.825   2.254  1.00  0.00    -0.271 OA
BRANCH  20  23
HETATM   23  C   UNL     1      43.334 -17.890   2.793  1.00  0.00     0.037 A 
HETATM   24  C   UNL     1      43.803 -18.378   4.019  1.00  0.00     0.061 A 
HETATM   25  C   UNL     1      44.203 -19.696   4.056  1.00  0.00     0.065 A 
HETATM   26  C   UNL     1      44.151 -20.528   2.941  1.00  0.00     0.063 A 
HETATM   27  N   UNL     1      44.711 -20.438   5.118  1.00  0.00    -0.306 N 
HETATM   28  N   UNL     1      44.623 -21.780   3.314  1.00  0.00    -0.307 N 
HETATM   29  C   UNL     1      43.696 -20.086   1.726  1.00  0.00     0.034 A 
HETATM   30  C   UNL     1      44.979 -21.740   4.671  1.00  0.00     0.325 A 
HETATM   31  H   UNL     1      44.715 -22.603   2.741  1.00  0.00     0.170 HD
HETATM   32  O   UNL     1      45.432 -22.656   5.332  1.00  0.00    -0.247 OA
HETATM   33  C   UNL     1      43.286 -18.747   1.659  1.00  0.00     0.032 A 
HETATM   34  H   UNL     1      44.879 -20.133   6.063  1.00  0.00     0.170 HD
ENDBRANCH  20  23
ENDBRANCH  18  19
ENDBRANCH   1  18
TORSDOF 7
ENDMDL
MODEL 8
REMARK VINA RESULT:      -7.5      3.666      6.871
REMARK  7 active torsions:
REMARK  status: ('A' for Active; 'I' for Inactive)
REMARK    1  A    between atoms: C_2  and  C_3 
REMARK    2  A    between atoms: C_6  and  C_7 
REMARK    3  A    between atoms: C_7  and  N_8 
REMARK    4  A    between atoms: C_7  and  C_25 
REMARK    5  A    between atoms: N_8  and  C_11 
REMARK    6  A    between atoms: C_11  and  C_12 
REMARK       I    between atoms: C_12  and  N_13 
REMARK    7  A    between atoms: N_13  and  C_14 
ROOT
HETATM    1  N   UNL     1      41.532 -17.340   1.336  1.00  0.00    -0.054 N 
HETATM    2  H   UNL     1      41.337 -18.334   1.132  1.00  0.00     0.278 HD
HETATM    3  H   UNL     1      40.731 -17.043   1.901  1.00  0.00     0.278 HD
ENDROOT
BRANCH   1   4
HETATM    4  C   UNL     1      42.797 -17.238   2.123  1.00  0.00     0.259 C 
BRANCH   4   5
HETATM    5  C   UNL     1      43.345 -18.606   2.492  1.00  0.00    -0.023 A 
HETATM    6  C   UNL     1      44.027 -18.768   3.711  1.00  0.00     0.010 A 
HETATM    7  C   UNL     1      44.516 -20.017   4.099  1.00  0.00     0.007 A 
HETATM    8  C   UNL     1      44.333 -21.137   3.283  1.00  0.00    -0.059 A 
HETATM    9  C   UNL     1      43.652 -20.987   2.072  1.00  0.00     0.007 A 
HETATM   10  C   UNL     1      43.165 -19.738   1.677  1.00  0.00     0.010 A 
BRANCH   8  11
HETATM   11  C   UNL     1      44.820 -22.494   3.728  1.00  0.00     0.034 C 
HETATM   12  C   UNL     1      45.169 -22.511   5.209  1.00  0.00     0.010 C 
ENDBRANCH   8  11
ENDBRANCH   4   5
BRANCH   4  13
HETATM   13  C   UNL     1      42.634 -16.332   3.320  1.00  0.00     0.017 A 
HETATM   14  S   UNL     1      41.306 -16.584   4.385  1.00  0.00    -0.104 SA
HETATM   15  C   UNL     1      41.785 -15.299   5.400  1.00  0.00     0.050 A 
HETATM   16  C   UNL     1      42.933 -14.688   4.952  1.00  0.00     0.008 A 
HETATM   17  C   UNL     1      43.425 -15.282   3.754  1.00  0.00     0.017 A 
ENDBRANCH   4  13
ENDBRANCH   1   4
BRANCH   1  18
HETATM   18  C   UNL     1      41.514 -16.600   0.022  1.00  0.00     0.336 C 
BRANCH  18  19
HETATM   19  C   UNL     1      41.002 -15.177   0.234  1.00  0.00     0.248 C 
HETATM   20  N   UNL     1      39.907 -15.088   1.068  1.00  0.00    -0.326 N 
HETATM   21  H   UNL     1      39.506 -15.944   1.437  1.00  0.00     0.169 HD
HETATM   22  O   UNL     1      41.586 -14.263  -0.345  1.00  0.00    -0.271 OA
BRANCH  20  23
HETATM   23  C   UNL     1      39.237 -13.908   1.471  1.00  0.00     0.037 A 
HETATM   24  C   UNL     1      39.510 -13.229   2.665  1.00  0.00     0.061 A 
HETATM   25  C   UNL     1      38.768 -12.097   2.926  1.00  0.00     0.065 A 
HETATM   26  C   UNL     1      37.788 -11.626   2.057  1.00  0.00     0.063 A 
HETATM   27  N   UNL     1      38.815 -11.239   4.020  1.00  0.00    -0.306 N 
HETATM   28  N   UNL     1      37.234 -10.480   2.612  1.00  0.00    -0.307 N 
HETATM   29  C   UNL     1      37.494 -12.263   0.879  1.00  0.00     0.034 A 
HETATM   30  C   UNL     1      37.863 -10.225   3.840  1.00  0.00     0.325 A 
HETATM   31  H   UNL     1      36.501  -9.901   2.235  1.00  0.00     0.170 HD
HETATM   32  O   UNL     1      37.631  -9.305   4.601  1.00  0.00    -0.247 OA
HETATM   33  C   UNL     1      38.232 -13.420   0.591  1.00  0.00     0.032 A 
HETATM   34  H   UNL     1      39.413 -11.299   4.829  1.00  0.00     0.170 HD
ENDBRANCH  20  23
ENDBRANCH  18  19
ENDBRANCH   1  18
TORSDOF 7
ENDMDL
MODEL 9
REMARK VINA RESULT:      -7.4      3.719      8.184
REMARK  7 active torsions:
REMARK  status: ('A' for Active; 'I' for Inactive)
REMARK    1  A    between atoms: C_2  and  C_3 
REMARK    2  A    between atoms: C_6  and  C_7 
REMARK    3  A    between atoms: C_7  and  N_8 
REMARK    4  A    between atoms: C_7  and  C_25 
REMARK    5  A    between atoms: N_8  and  C_11 
REMARK    6  A    between atoms: C_11  and  C_12 
REMARK       I    between atoms: C_12  and  N_13 
REMARK    7  A    between atoms: N_13  and  C_14 
ROOT
HETATM    1  N   UNL     1      42.825 -16.517   0.700  1.00  0.00    -0.054 N 
HETATM    2  H   UNL     1      43.304 -15.736   0.223  1.00  0.00     0.278 HD
HETATM    3  H   UNL     1      43.042 -17.332   0.119  1.00  0.00     0.278 HD
ENDROOT
BRANCH   1   4
HETATM    4  C   UNL     1      43.396 -16.682   2.070  1.00  0.00     0.259 C 
BRANCH   4   5
HETATM    5  C   UNL     1      43.704 -18.137   2.382  1.00  0.00    -0.023 A 
HETATM    6  C   UNL     1      44.312 -18.463   3.607  1.00  0.00     0.010 A 
HETATM    7  C   UNL     1      44.581 -19.792   3.944  1.00  0.00     0.007 A 
HETATM    8  C   UNL     1      44.245 -20.828   3.068  1.00  0.00    -0.059 A 
HETATM    9  C   UNL     1      43.636 -20.514   1.849  1.00  0.00     0.007 A 
HETATM   10  C   UNL     1      43.370 -19.185   1.507  1.00  0.00     0.010 A 
BRANCH   8  11
HETATM   11  C   UNL     1      44.492 -22.265   3.455  1.00  0.00     0.034 C 
HETATM   12  C   UNL     1      44.837 -22.401   4.931  1.00  0.00     0.010 C 
ENDBRANCH   8  11
ENDBRANCH   4   5
BRANCH   4  13
HETATM   13  C   UNL     1      42.524 -16.032   3.117  1.00  0.00     0.017 A 
HETATM   14  S   UNL     1      41.335 -16.981   3.923  1.00  0.00    -0.104 SA
HETATM   15  C   UNL     1      40.829 -15.662   4.880  1.00  0.00     0.050 A 
HETATM   16  C   UNL     1      41.547 -14.520   4.607  1.00  0.00     0.008 A 
HETATM   17  C   UNL     1      42.525 -14.731   3.591  1.00  0.00     0.017 A 
ENDBRANCH   4  13
ENDBRANCH   1   4
BRANCH   1  18
HETATM   18  C   UNL     1      41.344 -16.243   0.634  1.00  0.00     0.336 C 
BRANCH  18  19
HETATM   19  C   UNL     1      41.091 -14.919  -0.085  1.00  0.00     0.248 C 
HETATM   20  N   UNL     1      42.215 -14.365  -0.662  1.00  0.00    -0.326 N 
HETATM   21  H   UNL     1      43.106 -14.834  -0.538  1.00  0.00     0.169 HD
HETATM   22  O   UNL     1      39.945 -14.472  -0.082  1.00  0.00    -0.271 OA
BRANCH  20  23
HETATM   23  C   UNL     1      42.284 -13.168  -1.414  1.00  0.00     0.037 A 
HETATM   24  C   UNL     1      42.358 -13.133  -2.812  1.00  0.00     0.061 A 
HETATM   25  C   UNL     1      42.429 -11.890  -3.404  1.00  0.00     0.065 A 
HETATM   26  C   UNL     1      42.426 -10.708  -2.670  1.00  0.00     0.063 A 
HETATM   27  N   UNL     1      42.517 -11.554  -4.751  1.00  0.00    -0.306 N 
HETATM   28  N   UNL     1      42.509  -9.646  -3.561  1.00  0.00    -0.307 N 
HETATM   29  C   UNL     1      42.353 -10.703  -1.301  1.00  0.00     0.034 A 
HETATM   30  C   UNL     1      42.569 -10.158  -4.865  1.00  0.00     0.325 A 
HETATM   31  H   UNL     1      42.531  -8.661  -3.350  1.00  0.00     0.170 HD
HETATM   32  O   UNL     1      42.650  -9.517  -5.897  1.00  0.00    -0.247 OA
HETATM   33  C   UNL     1      42.283 -11.955  -0.672  1.00  0.00     0.032 A 
HETATM   34  H   UNL     1      42.546 -12.175  -5.544  1.00  0.00     0.170 HD
ENDBRANCH  20  23
ENDBRANCH  18  19
ENDBRANCH   1  18
TORSDOF 7
ENDMDL
MODEL 10
REMARK VINA RESULT:      -7.1      3.334      8.053
REMARK  7 active torsions:
REMARK  status: ('A' for Active; 'I' for Inactive)
REMARK    1  A    between atoms: C_2  and  C_3 
REMARK    2  A    between atoms: C_6  and  C_7 
REMARK    3  A    between atoms: C_7  and  N_8 
REMARK    4  A    between atoms: C_7  and  C_25 
REMARK    5  A    between atoms: N_8  and  C_11 
REMARK    6  A    between atoms: C_11  and  C_12 
REMARK       I    between atoms: C_12  and  N_13 
REMARK    7  A    between atoms: N_13  and  C_14 
ROOT
HETATM    1  N   UNL     1      43.149 -15.205   2.919  1.00  0.00    -0.054 N 
HETATM    2  H   UNL     1      44.127 -15.189   2.586  1.00  0.00     0.278 HD
HETATM    3  H   UNL     1      42.794 -16.111   2.596  1.00  0.00     0.278 HD
ENDROOT
BRANCH   1   4
HETATM    4  C   UNL     1      43.135 -15.137   4.411  1.00  0.00     0.259 C 
BRANCH   4   5
HETATM    5  C   UNL     1      43.345 -16.504   5.040  1.00  0.00    -0.023 A 
HETATM    6  C   UNL     1      43.730 -16.587   6.390  1.00  0.00     0.010 A 
HETATM    7  C   UNL     1      43.901 -17.826   7.013  1.00  0.00     0.007 A 
HETATM    8  C   UNL     1      43.687 -19.012   6.305  1.00  0.00    -0.059 A 
HETATM    9  C   UNL     1      43.299 -18.940   4.964  1.00  0.00     0.007 A 
HETATM   10  C   UNL     1      43.132 -17.702   4.336  1.00  0.00     0.010 A 
BRANCH   8  11
HETATM   11  C   UNL     1      43.824 -20.348   6.993  1.00  0.00     0.034 C 
HETATM   12  C   UNL     1      44.204 -21.450   6.015  1.00  0.00     0.010 C 
ENDBRANCH   8  11
ENDBRANCH   4   5
BRANCH   4  13
HETATM   13  C   UNL     1      41.897 -14.442   4.923  1.00  0.00     0.017 A 
HETATM   14  S   UNL     1      42.020 -12.819   5.481  1.00  0.00    -0.104 SA
HETATM   15  C   UNL     1      40.353 -12.741   5.839  1.00  0.00     0.050 A 
HETATM   16  C   UNL     1      39.705 -13.916   5.536  1.00  0.00     0.008 A 
HETATM   17  C   UNL     1      40.593 -14.898   5.008  1.00  0.00     0.017 A 
ENDBRANCH   4  13
ENDBRANCH   1   4
BRANCH   1  18
HETATM   18  C   UNL     1      42.412 -14.102   2.203  1.00  0.00     0.336 C 
BRANCH  18  19
HETATM   19  C   UNL     1      41.409 -14.698   1.218  1.00  0.00     0.248 C 
HETATM   20  N   UNL     1      41.389 -14.078  -0.014  1.00  0.00    -0.326 N 
HETATM   21  H   UNL     1      41.989 -13.272  -0.162  1.00  0.00     0.169 HD
HETATM   22  O   UNL     1      40.723 -15.645   1.597  1.00  0.00    -0.271 OA
BRANCH  20  23
HETATM   23  C   UNL     1      40.592 -14.426  -1.130  1.00  0.00     0.037 A 
HETATM   24  C   UNL     1      39.334 -13.867  -1.390  1.00  0.00     0.061 A 
HETATM   25  C   UNL     1      38.671 -14.314  -2.513  1.00  0.00     0.065 A 
HETATM   26  C   UNL     1      39.205 -15.274  -3.368  1.00  0.00     0.063 A 
HETATM   27  N   UNL     1      37.424 -13.949  -3.009  1.00  0.00    -0.306 N 
HETATM   28  N   UNL     1      38.292 -15.498  -4.390  1.00  0.00    -0.307 N 
HETATM   29  C   UNL     1      40.434 -15.841  -3.147  1.00  0.00     0.034 A 
HETATM   30  C   UNL     1      37.172 -14.679  -4.179  1.00  0.00     0.325 A 
HETATM   31  H   UNL     1      38.376 -16.133  -5.167  1.00  0.00     0.170 HD
HETATM   32  O   UNL     1      36.176 -14.614  -4.875  1.00  0.00    -0.247 OA
HETATM   33  C   UNL     1      41.129 -15.407  -2.009  1.00  0.00     0.032 A 
HETATM   34  H   UNL     1      36.775 -13.281  -2.624  1.00  0.00     0.170 HD
ENDBRANCH  20  23
ENDBRANCH  18  19
ENDBRANCH   1  18
TORSDOF 7
ENDMDL
