MODEL 1
REMARK VINA RESULT:      -8.4      0.000      0.000
REMARK  4 active torsions:
REMARK  status: ('A' for Active; 'I' for Inactive)
REMARK    1  A    between atoms: C_7  and  C_8 
REMARK    2  A    between atoms: C_11  and  O_12 
REMARK    3  A    between atoms: C_17  and  C_18 
REMARK    4  A    between atoms: C_25  and  C_26 
REMARK       I    between atoms: C_26  and  N_27 
ROOT
HETATM    1  C   UNL     1      39.615 -13.918  -1.651  1.00  0.00     0.070 C 
HETATM    2  C   UNL     1      39.968 -14.566  -0.333  1.00  0.00     0.037 A 
HETATM    3  N   UNL     1      40.937 -15.562  -0.392  1.00  0.00    -0.192 N 
HETATM    4  C   UNL     1      41.348 -16.260   0.682  1.00  0.00     0.726 A 
HETATM    5  N   UNL     1      40.812 -15.982   1.906  1.00  0.00    -0.083 N 
HETATM    6  N   UNL     1      41.263 -16.833   2.847  1.00  0.00    -0.135 NA
HETATM    7  C   UNL     1      42.161 -17.551   2.147  1.00  0.00     0.199 A 
HETATM    8  N   UNL     1      42.213 -17.233   0.799  1.00  0.00    -0.041 NA
HETATM    9  C   UNL     1      39.795 -14.953   2.146  1.00  0.00     0.202 A 
HETATM   10  C   UNL     1      39.391 -14.252   0.854  1.00  0.00     0.062 A 
HETATM   11  H   UNL     1      41.348 -15.769  -1.298  1.00  0.00     0.184 HD
ENDROOT
BRANCH   7  12
HETATM   12  C   UNL     1      43.018 -18.577   2.736  1.00  0.00     0.014 A 
HETATM   13  C   UNL     1      43.450 -18.478   4.065  1.00  0.00     0.018 A 
HETATM   14  C   UNL     1      44.288 -19.454   4.612  1.00  0.00     0.037 A 
HETATM   15  C   UNL     1      44.708 -20.544   3.847  1.00  0.00     0.068 A 
HETATM   16  C   UNL     1      44.279 -20.652   2.525  1.00  0.00     0.037 A 
HETATM   17  C   UNL     1      43.441 -19.673   1.974  1.00  0.00     0.018 A 
BRANCH  15  18
HETATM   18  O   UNL     1      45.528 -21.420   4.504  1.00  0.00    -0.356 OA
HETATM   19  C   UNL     1      44.899 -22.479   5.214  1.00  0.00     0.210 C 
ENDBRANCH  15  18
ENDBRANCH   7  12
BRANCH   9  20
HETATM   20  C   UNL     1      40.266 -14.006   3.248  1.00  0.00    -0.028 A 
HETATM   21  C   UNL     1      41.361 -13.142   3.062  1.00  0.00     0.012 A 
HETATM   22  C   UNL     1      41.779 -12.297   4.093  1.00  0.00     0.043 A 
HETATM   23  C   UNL     1      41.116 -12.322   5.313  1.00  0.00     0.116 A 
HETATM   24  F   UNL     1      41.522 -11.514   6.302  1.00  0.00    -0.206 F 
HETATM   25  C   UNL     1      40.042 -13.176   5.526  1.00  0.00     0.043 A 
HETATM   26  C   UNL     1      39.618 -14.018   4.498  1.00  0.00     0.012 A 
ENDBRANCH   9  20
BRANCH  10  27
HETATM   27  C   UNL     1      38.410 -13.149   0.953  1.00  0.00     0.249 C 
HETATM   28  N   UNL     1      37.103 -13.508   0.862  1.00  0.00    -0.366 N 
HETATM   29  H   UNL     1      36.770 -14.435   0.640  1.00  0.00     0.159 HD
HETATM   30  H   UNL     1      36.423 -12.760   0.910  1.00  0.00     0.159 HD
HETATM   31  O   UNL     1      38.741 -11.981   1.108  1.00  0.00    -0.268 OA
ENDBRANCH  10  27
TORSDOF 4
ENDMDL
MODEL 2
REMARK VINA RESULT:      -8.2      2.621      4.420
REMARK  4 active torsions:
REMARK  status: ('A' for Active; 'I' for Inactive)
REMARK    1  A    between atoms: C_7  and  C_8 
REMARK    2  A    between atoms: C_11  and  O_12 
REMARK    3  A    between atoms: C_17  and  C_18 
REMARK    4  A    between atoms: C_25  and  C_26 
REMARK       I    between atoms: C_26  and  N_27 
ROOT
HETATM    1  C   UNL     1      39.127 -12.526   7.104  1.00  0.00     0.070 C 
HETATM    2  C   UNL     1      39.846 -13.191   5.955  1.00  0.00     0.037 A 
HETATM    3  N   UNL     1      40.335 -14.468   6.208  1.00  0.00    -0.192 N 
HETATM    4  C   UNL     1      41.023 -15.191   5.306  1.00  0.00     0.726 A 
HETATM    5  N   UNL     1      41.252 -14.670   4.065  1.00  0.00    -0.083 N 
HETATM    6  N   UNL     1      42.033 -15.480   3.326  1.00  0.00    -0.135 NA
HETATM    7  C   UNL     1      42.164 -16.541   4.144  1.00  0.00     0.199 A 
HETATM    8  N   UNL     1      41.570 -16.375   5.386  1.00  0.00    -0.041 NA
HETATM    9  C   UNL     1      40.792 -13.346   3.630  1.00  0.00     0.202 A 
HETATM   10  C   UNL     1      40.052 -12.615   4.744  1.00  0.00     0.062 A 
HETATM   11  H   UNL     1      40.161 -14.868   7.126  1.00  0.00     0.184 HD
ENDROOT
BRANCH   7  12
HETATM   12  C   UNL     1      42.862 -17.770   3.775  1.00  0.00     0.014 A 
HETATM   13  C   UNL     1      42.731 -18.315   2.492  1.00  0.00     0.018 A 
HETATM   14  C   UNL     1      43.387 -19.504   2.156  1.00  0.00     0.037 A 
HETATM   15  C   UNL     1      44.184 -20.167   3.091  1.00  0.00     0.068 A 
HETATM   16  C   UNL     1      44.324 -19.628   4.369  1.00  0.00     0.037 A 
HETATM   17  C   UNL     1      43.665 -18.438   4.709  1.00  0.00     0.018 A 
BRANCH  15  18
HETATM   18  O   UNL     1      44.763 -21.318   2.633  1.00  0.00    -0.356 OA
HETATM   19  C   UNL     1      44.167 -21.927   1.494  1.00  0.00     0.210 C 
ENDBRANCH  15  18
ENDBRANCH   7  12
BRANCH   9  20
HETATM   20  C   UNL     1      39.997 -13.476   2.332  1.00  0.00    -0.028 A 
HETATM   21  C   UNL     1      38.852 -14.290   2.245  1.00  0.00     0.012 A 
HETATM   22  C   UNL     1      38.153 -14.401   1.042  1.00  0.00     0.043 A 
HETATM   23  C   UNL     1      38.600 -13.713  -0.079  1.00  0.00     0.116 A 
HETATM   24  F   UNL     1      37.930 -13.825  -1.234  1.00  0.00    -0.206 F 
HETATM   25  C   UNL     1      39.735 -12.914  -0.022  1.00  0.00     0.043 A 
HETATM   26  C   UNL     1      40.434 -12.797   1.179  1.00  0.00     0.012 A 
ENDBRANCH   9  20
BRANCH  10  27
HETATM   27  C   UNL     1      39.481 -11.288   4.428  1.00  0.00     0.249 C 
HETATM   28  N   UNL     1      40.368 -10.260   4.374  1.00  0.00    -0.366 N 
HETATM   29  H   UNL     1      41.344 -10.321   4.623  1.00  0.00     0.159 HD
HETATM   30  H   UNL     1      39.987  -9.343   4.176  1.00  0.00     0.159 HD
HETATM   31  O   UNL     1      38.288 -11.111   4.225  1.00  0.00    -0.268 OA
ENDBRANCH  10  27
TORSDOF 4
ENDMDL
MODEL 3
REMARK VINA RESULT:      -7.9      3.235      7.865
REMARK  4 active torsions:
REMARK  status: ('A' for Active; 'I' for Inactive)
REMARK    1  A    between atoms: C_7  and  C_8 
REMARK    2  A    between atoms: C_11  and  O_12 
REMARK    3  A    between atoms: C_17  and  C_18 
REMARK    4  A    between atoms: C_25  and  C_26 
REMARK       I    between atoms: C_26  and  N_27 
ROOT
HETATM    1  C   UNL     1      44.555 -13.925   7.023  1.00  0.00     0.070 C 
HETATM    2  C   UNL     1      43.672 -14.624   6.018  1.00  0.00     0.037 A 
HETATM    3  N   UNL     1      43.086 -13.804   5.059  1.00  0.00    -0.192 N 
HETATM    4  C   UNL     1      42.250 -14.258   4.107  1.00  0.00     0.726 A 
HETATM    5  N   UNL     1      41.960 -15.590   4.051  1.00  0.00    -0.083 N 
HETATM    6  N   UNL     1      41.039 -15.856   3.105  1.00  0.00    -0.135 NA
HETATM    7  C   UNL     1      40.881 -14.643   2.542  1.00  0.00     0.199 A 
HETATM    8  N   UNL     1      41.599 -13.633   3.161  1.00  0.00    -0.041 NA
HETATM    9  C   UNL     1      42.505 -16.592   4.974  1.00  0.00     0.202 A 
HETATM   10  C   UNL     1      43.413 -15.955   6.019  1.00  0.00     0.062 A 
HETATM   11  H   UNL     1      43.303 -12.812   5.088  1.00  0.00     0.184 HD
ENDROOT
BRANCH   7  12
HETATM   12  C   UNL     1      40.034 -14.392   1.378  1.00  0.00     0.014 A 
HETATM   13  C   UNL     1      40.586 -14.283   0.096  1.00  0.00     0.018 A 
HETATM   14  C   UNL     1      39.769 -14.021  -1.009  1.00  0.00     0.037 A 
HETATM   15  C   UNL     1      38.390 -13.865  -0.854  1.00  0.00     0.068 A 
HETATM   16  C   UNL     1      37.832 -13.977   0.418  1.00  0.00     0.037 A 
HETATM   17  C   UNL     1      38.650 -14.237   1.527  1.00  0.00     0.018 A 
BRANCH  15  18
HETATM   18  O   UNL     1      37.711 -13.609  -2.013  1.00  0.00    -0.356 OA
HETATM   19  C   UNL     1      37.787 -14.596  -3.034  1.00  0.00     0.210 C 
ENDBRANCH  15  18
ENDBRANCH   7  12
BRANCH   9  20
HETATM   20  C   UNL     1      43.161 -17.722   4.182  1.00  0.00    -0.028 A 
HETATM   21  C   UNL     1      43.625 -17.531   2.867  1.00  0.00     0.012 A 
HETATM   22  C   UNL     1      44.207 -18.586   2.162  1.00  0.00     0.043 A 
HETATM   23  C   UNL     1      44.317 -19.835   2.760  1.00  0.00     0.116 A 
HETATM   24  F   UNL     1      44.872 -20.847   2.080  1.00  0.00    -0.206 F 
HETATM   25  C   UNL     1      43.855 -20.052   4.051  1.00  0.00     0.043 A 
HETATM   26  C   UNL     1      43.276 -19.000   4.761  1.00  0.00     0.012 A 
ENDBRANCH   9  20
BRANCH  10  27
HETATM   27  C   UNL     1      44.080 -16.857   6.985  1.00  0.00     0.249 C 
HETATM   28  N   UNL     1      43.339 -17.221   8.063  1.00  0.00    -0.366 N 
HETATM   29  H   UNL     1      42.428 -16.853   8.293  1.00  0.00     0.159 HD
HETATM   30  H   UNL     1      43.790 -17.823   8.740  1.00  0.00     0.159 HD
HETATM   31  O   UNL     1      45.226 -17.257   6.834  1.00  0.00    -0.268 OA
ENDBRANCH  10  27
TORSDOF 4
ENDMDL
MODEL 4
REMARK VINA RESULT:      -7.8      2.763      4.198
REMARK  4 active torsions:
REMARK  status: ('A' for Active; 'I' for Inactive)
REMARK    1  A    between atoms: C_7  and  C_8 
REMARK    2  A    between atoms: C_11  and  O_12 
REMARK    3  A    between atoms: C_17  and  C_18 
REMARK    4  A    between atoms: C_25  and  C_26 
REMARK       I    between atoms: C_26  and  N_27 
ROOT
HETATM    1  C   UNL     1      38.912 -11.798   3.933  1.00  0.00     0.070 C 
HETATM    2  C   UNL     1      39.942 -12.680   3.269  1.00  0.00     0.037 A 
HETATM    3  N   UNL     1      40.109 -13.940   3.833  1.00  0.00    -0.192 N 
HETATM    4  C   UNL     1      41.003 -14.840   3.385  1.00  0.00     0.726 A 
HETATM    5  N   UNL     1      41.786 -14.528   2.311  1.00  0.00    -0.083 N 
HETATM    6  N   UNL     1      42.685 -15.498   2.057  1.00  0.00    -0.135 NA
HETATM    7  C   UNL     1      42.327 -16.433   2.958  1.00  0.00     0.199 A 
HETATM    8  N   UNL     1      41.307 -16.039   3.808  1.00  0.00    -0.041 NA
HETATM    9  C   UNL     1      41.725 -13.251   1.591  1.00  0.00     0.202 A 
HETATM   10  C   UNL     1      40.699 -12.308   2.207  1.00  0.00     0.062 A 
HETATM   11  H   UNL     1      39.524 -14.184   4.627  1.00  0.00     0.184 HD
ENDROOT
BRANCH   7  12
HETATM   12  C   UNL     1      42.945 -17.754   3.045  1.00  0.00     0.014 A 
HETATM   13  C   UNL     1      43.565 -18.181   4.226  1.00  0.00     0.018 A 
HETATM   14  C   UNL     1      44.173 -19.439   4.292  1.00  0.00     0.037 A 
HETATM   15  C   UNL     1      44.172 -20.291   3.185  1.00  0.00     0.068 A 
HETATM   16  C   UNL     1      43.553 -19.874   2.008  1.00  0.00     0.037 A 
HETATM   17  C   UNL     1      42.946 -18.613   1.939  1.00  0.00     0.018 A 
BRANCH  15  18
HETATM   18  O   UNL     1      44.805 -21.486   3.385  1.00  0.00    -0.356 OA
HETATM   19  C   UNL     1      44.890 -21.952   4.726  1.00  0.00     0.210 C 
ENDBRANCH  15  18
ENDBRANCH   7  12
BRANCH   9  20
HETATM   20  C   UNL     1      41.520 -13.509   0.099  1.00  0.00    -0.028 A 
HETATM   21  C   UNL     1      42.362 -12.937  -0.873  1.00  0.00     0.012 A 
HETATM   22  C   UNL     1      42.142 -13.178  -2.230  1.00  0.00     0.043 A 
HETATM   23  C   UNL     1      41.076 -13.977  -2.623  1.00  0.00     0.116 A 
HETATM   24  F   UNL     1      40.864 -14.202  -3.926  1.00  0.00    -0.206 F 
HETATM   25  C   UNL     1      40.221 -14.540  -1.684  1.00  0.00     0.043 A 
HETATM   26  C   UNL     1      40.440 -14.306  -0.326  1.00  0.00     0.012 A 
ENDBRANCH   9  20
BRANCH  10  27
HETATM   27  C   UNL     1      40.490 -11.001   1.546  1.00  0.00     0.249 C 
HETATM   28  N   UNL     1      41.374 -10.024   1.874  1.00  0.00    -0.366 N 
HETATM   29  H   UNL     1      42.083 -10.097   2.589  1.00  0.00     0.159 HD
HETATM   30  H   UNL     1      41.231  -9.119   1.442  1.00  0.00     0.159 HD
HETATM   31  O   UNL     1      39.582 -10.799   0.751  1.00  0.00    -0.268 OA
ENDBRANCH  10  27
TORSDOF 4
ENDMDL
MODEL 5
REMARK VINA RESULT:      -7.7      4.213      6.930
REMARK  4 active torsions:
REMARK  status: ('A' for Active; 'I' for Inactive)
REMARK    1  A    between atoms: C_7  and  C_8 
REMARK    2  A    between atoms: C_11  and  O_12 
REMARK    3  A    between atoms: C_17  and  C_18 
REMARK    4  A    between atoms: C_25  and  C_26 
REMARK       I    between atoms: C_26  and  N_27 
ROOT
HETATM    1  C   UNL     1      38.918 -15.110   1.744  1.00  0.00     0.070 C 
HETATM    2  C   UNL     1      40.226 -15.095   2.499  1.00  0.00     0.037 A 
HETATM    3  N   UNL     1      40.262 -14.282   3.626  1.00  0.00    -0.192 N 
HETATM    4  C   UNL     1      41.354 -14.130   4.396  1.00  0.00     0.726 A 
HETATM    5  N   UNL     1      42.494 -14.813   4.083  1.00  0.00    -0.083 N 
HETATM    6  N   UNL     1      43.512 -14.472   4.896  1.00  0.00    -0.135 NA
HETATM    7  C   UNL     1      42.896 -13.644   5.760  1.00  0.00     0.199 A 
HETATM    8  N   UNL     1      41.567 -13.395   5.456  1.00  0.00    -0.041 NA
HETATM    9  C   UNL     1      42.621 -15.723   2.940  1.00  0.00     0.202 A 
HETATM   10  C   UNL     1      41.331 -15.790   2.131  1.00  0.00     0.062 A 
HETATM   11  H   UNL     1      39.415 -13.777   3.872  1.00  0.00     0.184 HD
ENDROOT
BRANCH   7  12
HETATM   12  C   UNL     1      43.551 -13.052   6.924  1.00  0.00     0.014 A 
HETATM   13  C   UNL     1      42.938 -12.023   7.649  1.00  0.00     0.018 A 
HETATM   14  C   UNL     1      43.583 -11.447   8.748  1.00  0.00     0.037 A 
HETATM   15  C   UNL     1      44.848 -11.888   9.143  1.00  0.00     0.068 A 
HETATM   16  C   UNL     1      45.464 -12.915   8.429  1.00  0.00     0.037 A 
HETATM   17  C   UNL     1      44.819 -13.491   7.326  1.00  0.00     0.018 A 
BRANCH  15  18
HETATM   18  O   UNL     1      45.365 -11.237  10.229  1.00  0.00    -0.356 OA
HETATM   19  C   UNL     1      44.436 -10.628  11.116  1.00  0.00     0.210 C 
ENDBRANCH  15  18
ENDBRANCH   7  12
BRANCH   9  20
HETATM   20  C   UNL     1      43.131 -17.082   3.415  1.00  0.00    -0.028 A 
HETATM   21  C   UNL     1      43.982 -17.871   2.620  1.00  0.00     0.012 A 
HETATM   22  C   UNL     1      44.421 -19.117   3.074  1.00  0.00     0.043 A 
HETATM   23  C   UNL     1      44.003 -19.584   4.314  1.00  0.00     0.116 A 
HETATM   24  F   UNL     1      44.422 -20.780   4.745  1.00  0.00    -0.206 F 
HETATM   25  C   UNL     1      43.151 -18.830   5.111  1.00  0.00     0.043 A 
HETATM   26  C   UNL     1      42.714 -17.583   4.664  1.00  0.00     0.012 A 
ENDBRANCH   9  20
BRANCH  10  27
HETATM   27  C   UNL     1      41.296 -16.717   0.977  1.00  0.00     0.249 C 
HETATM   28  N   UNL     1      41.874 -16.261  -0.165  1.00  0.00    -0.366 N 
HETATM   29  H   UNL     1      42.228 -15.327  -0.304  1.00  0.00     0.159 HD
HETATM   30  H   UNL     1      41.841 -16.879  -0.966  1.00  0.00     0.159 HD
HETATM   31  O   UNL     1      40.783 -17.825   1.034  1.00  0.00    -0.268 OA
ENDBRANCH  10  27
TORSDOF 4
ENDMDL
MODEL 6
REMARK VINA RESULT:      -7.7      1.938      2.264
REMARK  4 active torsions:
REMARK  status: ('A' for Active; 'I' for Inactive)
REMARK    1  A    between atoms: C_7  and  C_8 
REMARK    2  A    between atoms: C_11  and  O_12 
REMARK    3  A    between atoms: C_17  and  C_18 
REMARK    4  A    between atoms: C_25  and  C_26 
REMARK       I    between atoms: C_26  and  N_27 
ROOT
HETATM    1  C   UNL     1      41.020 -14.829  -3.169  1.00  0.00     0.070 C 
HETATM    2  C   UNL     1      40.861 -15.011  -1.679  1.00  0.00     0.037 A 
HETATM    3  N   UNL     1      41.733 -15.917  -1.086  1.00  0.00    -0.192 N 
HETATM    4  C   UNL     1      41.710 -16.220   0.224  1.00  0.00     0.726 A 
HETATM    5  N   UNL     1      40.801 -15.605   1.037  1.00  0.00    -0.083 N 
HETATM    6  N   UNL     1      40.851 -16.093   2.291  1.00  0.00    -0.135 NA
HETATM    7  C   UNL     1      41.895 -16.939   2.205  1.00  0.00     0.199 A 
HETATM    8  N   UNL     1      42.426 -17.056   0.930  1.00  0.00    -0.041 NA
HETATM    9  C   UNL     1      39.822 -14.615   0.576  1.00  0.00     0.202 A 
HETATM   10  C   UNL     1      39.928 -14.377  -0.925  1.00  0.00     0.062 A 
HETATM   11  H   UNL     1      42.420 -16.372  -1.682  1.00  0.00     0.184 HD
ENDROOT
BRANCH   7  12
HETATM   12  C   UNL     1      42.438 -17.678   3.342  1.00  0.00     0.014 A 
HETATM   13  C   UNL     1      41.947 -17.468   4.637  1.00  0.00     0.018 A 
HETATM   14  C   UNL     1      42.489 -18.165   5.722  1.00  0.00     0.037 A 
HETATM   15  C   UNL     1      43.526 -19.081   5.535  1.00  0.00     0.068 A 
HETATM   16  C   UNL     1      44.017 -19.299   4.249  1.00  0.00     0.037 A 
HETATM   17  C   UNL     1      43.477 -18.600   3.160  1.00  0.00     0.018 A 
BRANCH  15  18
HETATM   18  O   UNL     1      43.964 -19.687   6.680  1.00  0.00    -0.356 OA
HETATM   19  C   UNL     1      43.989 -18.893   7.859  1.00  0.00     0.210 C 
ENDBRANCH  15  18
ENDBRANCH   7  12
BRANCH   9  20
HETATM   20  C   UNL     1      39.936 -13.345   1.419  1.00  0.00    -0.028 A 
HETATM   21  C   UNL     1      41.139 -12.620   1.504  1.00  0.00     0.012 A 
HETATM   22  C   UNL     1      41.219 -11.472   2.294  1.00  0.00     0.043 A 
HETATM   23  C   UNL     1      40.105 -11.050   3.009  1.00  0.00     0.116 A 
HETATM   24  F   UNL     1      40.185  -9.951   3.770  1.00  0.00    -0.206 F 
HETATM   25  C   UNL     1      38.910 -11.757   2.953  1.00  0.00     0.043 A 
HETATM   26  C   UNL     1      38.825 -12.903   2.162  1.00  0.00     0.012 A 
ENDBRANCH   9  20
BRANCH  10  27
HETATM   27  C   UNL     1      39.036 -13.357  -1.520  1.00  0.00     0.249 C 
HETATM   28  N   UNL     1      37.795 -13.786  -1.866  1.00  0.00    -0.366 N 
HETATM   29  H   UNL     1      37.483 -14.745  -1.837  1.00  0.00     0.159 HD
HETATM   30  H   UNL     1      37.182 -13.102  -2.291  1.00  0.00     0.159 HD
HETATM   31  O   UNL     1      39.382 -12.197  -1.694  1.00  0.00    -0.268 OA
ENDBRANCH  10  27
TORSDOF 4
ENDMDL
MODEL 7
REMARK VINA RESULT:      -7.3      2.610      6.683
REMARK  4 active torsions:
REMARK  status: ('A' for Active; 'I' for Inactive)
REMARK    1  A    between atoms: C_7  and  C_8 
REMARK    2  A    between atoms: C_11  and  O_12 
REMARK    3  A    between atoms: C_17  and  C_18 
REMARK    4  A    between atoms: C_25  and  C_26 
REMARK       I    between atoms: C_26  and  N_27 
ROOT
HETATM    1  C   UNL     1      43.359 -18.940   5.668  1.00  0.00     0.070 C 
HETATM    2  C   UNL     1      42.995 -17.710   4.873  1.00  0.00     0.037 A 
HETATM    3  N   UNL     1      42.426 -17.945   3.626  1.00  0.00    -0.192 N 
HETATM    4  C   UNL     1      42.069 -16.965   2.777  1.00  0.00     0.726 A 
HETATM    5  N   UNL     1      42.250 -15.663   3.144  1.00  0.00    -0.083 N 
HETATM    6  N   UNL     1      41.930 -14.819   2.145  1.00  0.00    -0.135 NA
HETATM    7  C   UNL     1      41.457 -15.673   1.218  1.00  0.00     0.199 A 
HETATM    8  N   UNL     1      41.557 -17.008   1.575  1.00  0.00    -0.041 NA
HETATM    9  C   UNL     1      42.820 -15.241   4.429  1.00  0.00     0.202 A 
HETATM   10  C   UNL     1      43.209 -16.436   5.289  1.00  0.00     0.062 A 
HETATM   11  H   UNL     1      42.279 -18.912   3.348  1.00  0.00     0.184 HD
ENDROOT
BRANCH   7  12
HETATM   12  C   UNL     1      40.882 -15.251  -0.057  1.00  0.00     0.014 A 
HETATM   13  C   UNL     1      39.903 -14.250  -0.109  1.00  0.00     0.018 A 
HETATM   14  C   UNL     1      39.343 -13.869  -1.332  1.00  0.00     0.037 A 
HETATM   15  C   UNL     1      39.749 -14.476  -2.522  1.00  0.00     0.068 A 
HETATM   16  C   UNL     1      40.725 -15.470  -2.479  1.00  0.00     0.037 A 
HETATM   17  C   UNL     1      41.286 -15.856  -1.254  1.00  0.00     0.018 A 
BRANCH  15  18
HETATM   18  O   UNL     1      39.118 -14.013  -3.643  1.00  0.00    -0.356 OA
HETATM   19  C   UNL     1      37.772 -13.579  -3.490  1.00  0.00     0.210 C 
ENDBRANCH  15  18
ENDBRANCH   7  12
BRANCH   9  20
HETATM   20  C   UNL     1      41.873 -14.258   5.117  1.00  0.00    -0.028 A 
HETATM   21  C   UNL     1      40.542 -14.603   5.418  1.00  0.00     0.012 A 
HETATM   22  C   UNL     1      39.694 -13.680   6.034  1.00  0.00     0.043 A 
HETATM   23  C   UNL     1      40.166 -12.409   6.339  1.00  0.00     0.116 A 
HETATM   24  F   UNL     1      39.350 -11.524   6.925  1.00  0.00    -0.206 F 
HETATM   25  C   UNL     1      41.471 -12.041   6.038  1.00  0.00     0.043 A 
HETATM   26  C   UNL     1      42.323 -12.961   5.427  1.00  0.00     0.012 A 
ENDBRANCH   9  20
BRANCH  10  27
HETATM   27  C   UNL     1      43.746 -16.159   6.640  1.00  0.00     0.249 C 
HETATM   28  N   UNL     1      42.948 -16.518   7.679  1.00  0.00    -0.366 N 
HETATM   29  H   UNL     1      42.002 -16.859   7.593  1.00  0.00     0.159 HD
HETATM   30  H   UNL     1      43.297 -16.318   8.608  1.00  0.00     0.159 HD
HETATM   31  O   UNL     1      44.839 -15.642   6.824  1.00  0.00    -0.268 OA
ENDBRANCH  10  27
TORSDOF 4
ENDMDL
MODEL 8
REMARK VINA RESULT:      -7.2      3.724      7.915
REMARK  4 active torsions:
REMARK  status: ('A' for Active; 'I' for Inactive)
REMARK    1  A    between atoms: C_7  and  C_8 
REMARK    2  A    between atoms: C_11  and  O_12 
REMARK    3  A    between atoms: C_17  and  C_18 
REMARK    4  A    between atoms: C_25  and  C_26 
REMARK       I    between atoms: C_26  and  N_27 
ROOT
HETATM    1  C   UNL     1      40.300 -17.197   1.747  1.00  0.00     0.070 C 
HETATM    2  C   UNL     1      40.957 -16.404   2.850  1.00  0.00     0.037 A 
HETATM    3  N   UNL     1      40.199 -15.366   3.380  1.00  0.00    -0.192 N 
HETATM    4  C   UNL     1      40.642 -14.543   4.348  1.00  0.00     0.726 A 
HETATM    5  N   UNL     1      41.892 -14.729   4.864  1.00  0.00    -0.083 N 
HETATM    6  N   UNL     1      42.209 -13.764   5.749  1.00  0.00    -0.135 NA
HETATM    7  C   UNL     1      41.057 -13.070   5.809  1.00  0.00     0.199 A 
HETATM    8  N   UNL     1      40.081 -13.516   4.932  1.00  0.00    -0.041 NA
HETATM    9  C   UNL     1      42.814 -15.784   4.430  1.00  0.00     0.202 A 
HETATM   10  C   UNL     1      42.212 -16.630   3.314  1.00  0.00     0.062 A 
HETATM   11  H   UNL     1      39.263 -15.227   3.009  1.00  0.00     0.184 HD
ENDROOT
BRANCH   7  12
HETATM   12  C   UNL     1      40.833 -11.945   6.713  1.00  0.00     0.014 A 
HETATM   13  C   UNL     1      41.871 -11.062   7.033  1.00  0.00     0.018 A 
HETATM   14  C   UNL     1      41.652 -10.000   7.918  1.00  0.00     0.037 A 
HETATM   15  C   UNL     1      40.396  -9.801   8.495  1.00  0.00     0.068 A 
HETATM   16  C   UNL     1      39.356 -10.674   8.177  1.00  0.00     0.037 A 
HETATM   17  C   UNL     1      39.575 -11.739   7.293  1.00  0.00     0.018 A 
BRANCH  15  18
HETATM   18  O   UNL     1      40.321  -8.731   9.343  1.00  0.00    -0.356 OA
HETATM   19  C   UNL     1      41.229  -8.715  10.437  1.00  0.00     0.210 C 
ENDBRANCH  15  18
ENDBRANCH   7  12
BRANCH   9  20
HETATM   20  C   UNL     1      43.284 -16.590   5.640  1.00  0.00    -0.028 A 
HETATM   21  C   UNL     1      44.607 -17.058   5.746  1.00  0.00     0.012 A 
HETATM   22  C   UNL     1      45.006 -17.805   6.857  1.00  0.00     0.043 A 
HETATM   23  C   UNL     1      44.085 -18.097   7.856  1.00  0.00     0.116 A 
HETATM   24  F   UNL     1      44.469 -18.817   8.918  1.00  0.00    -0.206 F 
HETATM   25  C   UNL     1      42.770 -17.658   7.766  1.00  0.00     0.043 A 
HETATM   26  C   UNL     1      42.369 -16.908   6.661  1.00  0.00     0.012 A 
ENDBRANCH   9  20
BRANCH  10  27
HETATM   27  C   UNL     1      43.011 -17.772   2.816  1.00  0.00     0.249 C 
HETATM   28  N   UNL     1      43.973 -17.468   1.906  1.00  0.00    -0.366 N 
HETATM   29  H   UNL     1      44.110 -16.561   1.487  1.00  0.00     0.159 HD
HETATM   30  H   UNL     1      44.514 -18.244   1.544  1.00  0.00     0.159 HD
HETATM   31  O   UNL     1      42.828 -18.921   3.192  1.00  0.00    -0.268 OA
ENDBRANCH  10  27
TORSDOF 4
ENDMDL
MODEL 9
REMARK VINA RESULT:      -7.2      3.709      5.117
REMARK  4 active torsions:
REMARK  status: ('A' for Active; 'I' for Inactive)
REMARK    1  A    between atoms: C_7  and  C_8 
REMARK    2  A    between atoms: C_11  and  O_12 
REMARK    3  A    between atoms: C_17  and  C_18 
REMARK    4  A    between atoms: C_25  and  C_26 
REMARK       I    between atoms: C_26  and  N_27 
ROOT
HETATM    1  C   UNL     1      40.297 -16.007  -3.307  1.00  0.00     0.070 C 
HETATM    2  C   UNL     1      40.576 -15.189  -2.070  1.00  0.00     0.037 A 
HETATM    3  N   UNL     1      41.217 -15.861  -1.035  1.00  0.00    -0.192 N 
HETATM    4  C   UNL     1      41.516 -15.291   0.147  1.00  0.00     0.726 A 
HETATM    5  N   UNL     1      41.196 -13.980   0.357  1.00  0.00    -0.083 N 
HETATM    6  N   UNL     1      41.477 -13.600   1.618  1.00  0.00    -0.135 NA
HETATM    7  C   UNL     1      42.069 -14.708   2.103  1.00  0.00     0.199 A 
HETATM    8  N   UNL     1      42.081 -15.777   1.221  1.00  0.00    -0.041 NA
HETATM    9  C   UNL     1      40.534 -13.125  -0.633  1.00  0.00     0.202 A 
HETATM   10  C   UNL     1      40.223 -13.887  -1.915  1.00  0.00     0.062 A 
HETATM   11  H   UNL     1      41.467 -16.834  -1.186  1.00  0.00     0.184 HD
ENDROOT
BRANCH   7  12
HETATM   12  C   UNL     1      42.656 -14.797   3.438  1.00  0.00     0.014 A 
HETATM   13  C   UNL     1      43.079 -13.647   4.117  1.00  0.00     0.018 A 
HETATM   14  C   UNL     1      43.659 -13.745   5.385  1.00  0.00     0.037 A 
HETATM   15  C   UNL     1      43.827 -14.988   5.998  1.00  0.00     0.068 A 
HETATM   16  C   UNL     1      43.405 -16.137   5.331  1.00  0.00     0.037 A 
HETATM   17  C   UNL     1      42.825 -16.041   4.059  1.00  0.00     0.018 A 
BRANCH  15  18
HETATM   18  O   UNL     1      44.411 -14.941   7.234  1.00  0.00    -0.356 OA
HETATM   19  C   UNL     1      44.821 -13.662   7.702  1.00  0.00     0.210 C 
ENDBRANCH  15  18
ENDBRANCH   7  12
BRANCH   9  20
HETATM   20  C   UNL     1      41.352 -11.852  -0.847  1.00  0.00    -0.028 A 
HETATM   21  C   UNL     1      40.810 -10.576  -0.606  1.00  0.00     0.012 A 
HETATM   22  C   UNL     1      41.576  -9.429  -0.824  1.00  0.00     0.043 A 
HETATM   23  C   UNL     1      42.878  -9.551  -1.294  1.00  0.00     0.116 A 
HETATM   24  F   UNL     1      43.609  -8.449  -1.507  1.00  0.00    -0.206 F 
HETATM   25  C   UNL     1      43.431 -10.798  -1.553  1.00  0.00     0.043 A 
HETATM   26  C   UNL     1      42.671 -11.947  -1.333  1.00  0.00     0.012 A 
ENDBRANCH   9  20
BRANCH  10  27
HETATM   27  C   UNL     1      39.605 -13.132  -3.027  1.00  0.00     0.249 C 
HETATM   28  N   UNL     1      38.250 -13.030  -2.991  1.00  0.00    -0.366 N 
HETATM   29  H   UNL     1      37.650 -13.502  -2.332  1.00  0.00     0.159 HD
HETATM   30  H   UNL     1      37.814 -12.531  -3.756  1.00  0.00     0.159 HD
HETATM   31  O   UNL     1      40.259 -12.625  -3.928  1.00  0.00    -0.268 OA
ENDBRANCH  10  27
TORSDOF 4
ENDMDL
MODEL 10
REMARK VINA RESULT:      -7.1      2.688      6.757
REMARK  4 active torsions:
REMARK  status: ('A' for Active; 'I' for Inactive)
REMARK    1  A    between atoms: C_7  and  C_8 
REMARK    2  A    between atoms: C_11  and  O_12 
REMARK    3  A    between atoms: C_17  and  C_18 
REMARK    4  A    between atoms: C_25  and  C_26 
REMARK       I    between atoms: C_26  and  N_27 
ROOT
HETATM    1  C   UNL     1      43.318 -18.914   5.137  1.00  0.00     0.070 C 
HETATM    2  C   UNL     1      43.049 -17.600   4.446  1.00  0.00     0.037 A 
HETATM    3  N   UNL     1      42.605 -17.690   3.131  1.00  0.00    -0.192 N 
HETATM    4  C   UNL     1      42.346 -16.618   2.361  1.00  0.00     0.726 A 
HETATM    5  N   UNL     1      42.505 -15.367   2.880  1.00  0.00    -0.083 N 
HETATM    6  N   UNL     1      42.297 -14.415   1.950  1.00  0.00    -0.135 NA
HETATM    7  C   UNL     1      41.908 -15.157   0.896  1.00  0.00     0.199 A 
HETATM    8  N   UNL     1      41.956 -16.524   1.116  1.00  0.00    -0.041 NA
HETATM    9  C   UNL     1      42.950 -15.094   4.252  1.00  0.00     0.202 A 
HETATM   10  C   UNL     1      43.237 -16.382   5.014  1.00  0.00     0.062 A 
HETATM   11  H   UNL     1      42.475 -18.619   2.739  1.00  0.00     0.184 HD
ENDROOT
BRANCH   7  12
HETATM   12  C   UNL     1      41.467 -14.591  -0.377  1.00  0.00     0.014 A 
HETATM   13  C   UNL     1      41.384 -13.205  -0.558  1.00  0.00     0.018 A 
HETATM   14  C   UNL     1      40.940 -12.673  -1.773  1.00  0.00     0.037 A 
HETATM   15  C   UNL     1      40.573 -13.513  -2.827  1.00  0.00     0.068 A 
HETATM   16  C   UNL     1      40.657 -14.894  -2.656  1.00  0.00     0.037 A 
HETATM   17  C   UNL     1      41.100 -15.428  -1.438  1.00  0.00     0.018 A 
BRANCH  15  18
HETATM   18  O   UNL     1      40.154 -12.863  -3.954  1.00  0.00    -0.356 OA
HETATM   19  C   UNL     1      40.725 -11.586  -4.210  1.00  0.00     0.210 C 
ENDBRANCH  15  18
ENDBRANCH   7  12
BRANCH   9  20
HETATM   20  C   UNL     1      41.951 -14.168   4.945  1.00  0.00    -0.028 A 
HETATM   21  C   UNL     1      42.345 -12.931   5.488  1.00  0.00     0.012 A 
HETATM   22  C   UNL     1      41.414 -12.112   6.130  1.00  0.00     0.043 A 
HETATM   23  C   UNL     1      40.094 -12.528   6.241  1.00  0.00     0.116 A 
HETATM   24  F   UNL     1      39.203 -11.742   6.861  1.00  0.00    -0.206 F 
HETATM   25  C   UNL     1      39.683 -13.750   5.726  1.00  0.00     0.043 A 
HETATM   26  C   UNL     1      40.609 -14.571   5.080  1.00  0.00     0.012 A 
ENDBRANCH   9  20
BRANCH  10  27
HETATM   27  C   UNL     1      43.641 -16.260   6.432  1.00  0.00     0.249 C 
HETATM   28  N   UNL     1      42.666 -16.503   7.347  1.00  0.00    -0.366 N 
HETATM   29  H   UNL     1      41.693 -16.660   7.132  1.00  0.00     0.159 HD
HETATM   30  H   UNL     1      42.925 -16.406   8.321  1.00  0.00     0.159 HD
HETATM   31  O   UNL     1      44.776 -15.961   6.774  1.00  0.00    -0.268 OA
ENDBRANCH  10  27
TORSDOF 4
ENDMDL
