MODEL 1
REMARK VINA RESULT:      -8.8      0.000      0.000
REMARK  2 active torsions:
REMARK  status: ('A' for Active; 'I' for Inactive)
REMARK    1  A    between atoms: C_5  and  C_7 
REMARK    2  A    between atoms: C_5  and  O_6 
ROOT
HETATM    1  C   UNL     1      41.303 -12.083   6.198  1.00  0.00     0.050 C 
HETATM    2  C   UNL     1      41.772 -13.089   5.194  1.00  0.00    -0.034 A 
HETATM    3  C   UNL     1      41.537 -14.453   5.295  1.00  0.00     0.052 A 
HETATM    4  C   UNL     1      41.996 -15.384   4.347  1.00  0.00     0.039 A 
HETATM    5  C   UNL     1      41.539 -16.772   4.747  1.00  0.00     0.200 A 
HETATM    6  C   UNL     1      40.792 -16.484   6.095  1.00  0.00     0.266 A 
HETATM    7  O   UNL     1      40.210 -17.264   6.833  1.00  0.00    -0.269 OA
HETATM    8  N   UNL     1      40.837 -15.106   6.302  1.00  0.00    -0.323 N 
HETATM    9  C   UNL     1      42.695 -14.938   3.237  1.00  0.00     0.046 A 
HETATM   10 CL   UNL     1      43.227 -15.989   1.987  1.00  0.00    -0.084 Cl
HETATM   11  C   UNL     1      42.955 -13.570   3.110  1.00  0.00     0.025 A 
HETATM   12  C   UNL     1      42.502 -12.658   4.078  1.00  0.00     0.011 A 
HETATM   13  H   UNL     1      40.405 -14.680   7.108  1.00  0.00     0.169 HD
ENDROOT
BRANCH   5  14
HETATM   14  C   UNL     1      42.760 -17.645   4.947  1.00  0.00     0.025 A 
HETATM   15  C   UNL     1      43.265 -18.676   4.064  1.00  0.00     0.003 A 
HETATM   16  C   UNL     1      44.409 -19.216   4.651  1.00  0.00     0.043 A 
HETATM   17  C   UNL     1      42.864 -19.208   2.816  1.00  0.00     0.014 A 
HETATM   18  C   UNL     1      45.160 -20.246   4.071  1.00  0.00     0.030 A 
HETATM   19  N   UNL     1      44.611 -18.549   5.831  1.00  0.00    -0.359 N 
HETATM   20  C   UNL     1      44.736 -20.747   2.839  1.00  0.00     0.002 A 
HETATM   21  C   UNL     1      43.603 -20.236   2.217  1.00  0.00     0.001 A 
HETATM   22  H   UNL     1      45.379 -18.732   6.462  1.00  0.00     0.166 HD
HETATM   23  C   UNL     1      43.648 -17.594   6.022  1.00  0.00     0.016 A 
HETATM   24  C   UNL     1      43.684 -16.719   7.226  1.00  0.00     0.069 C 
ENDBRANCH   5  14
BRANCH   5  25
HETATM   25  O   UNL     1      40.613 -17.273   3.784  1.00  0.00    -0.371 OA
HETATM   26  H   UNL     1      40.066 -16.525   3.498  1.00  0.00     0.212 HD
ENDBRANCH   5  25
TORSDOF 2
ENDMDL
MODEL 2
REMARK VINA RESULT:      -8.2      1.883      5.850
REMARK  2 active torsions:
REMARK  status: ('A' for Active; 'I' for Inactive)
REMARK    1  A    between atoms: C_5  and  C_7 
REMARK    2  A    between atoms: C_5  and  O_6 
ROOT
HETATM    1  C   UNL     1      44.566 -19.980   4.924  1.00  0.00     0.050 C 
HETATM    2  C   UNL     1      44.077 -18.703   4.314  1.00  0.00    -0.034 A 
HETATM    3  C   UNL     1      43.852 -17.538   5.033  1.00  0.00     0.052 A 
HETATM    4  C   UNL     1      43.381 -16.351   4.444  1.00  0.00     0.039 A 
HETATM    5  C   UNL     1      43.279 -15.273   5.504  1.00  0.00     0.200 A 
HETATM    6  C   UNL     1      43.721 -16.051   6.792  1.00  0.00     0.266 A 
HETATM    7  O   UNL     1      43.835 -15.641   7.937  1.00  0.00    -0.269 OA
HETATM    8  N   UNL     1      44.048 -17.347   6.396  1.00  0.00    -0.323 N 
HETATM    9  C   UNL     1      43.149 -16.313   3.079  1.00  0.00     0.046 A 
HETATM   10 CL   UNL     1      42.650 -14.890   2.258  1.00  0.00    -0.084 Cl
HETATM   11  C   UNL     1      43.359 -17.474   2.328  1.00  0.00     0.025 A 
HETATM   12  C   UNL     1      43.813 -18.655   2.939  1.00  0.00     0.011 A 
HETATM   13  H   UNL     1      44.375 -18.034   7.058  1.00  0.00     0.169 HD
ENDROOT
BRANCH   5  14
HETATM   14  C   UNL     1      41.841 -14.807   5.584  1.00  0.00     0.025 A 
HETATM   15  C   UNL     1      41.324 -13.482   5.310  1.00  0.00     0.003 A 
HETATM   16  C   UNL     1      39.944 -13.515   5.511  1.00  0.00     0.043 A 
HETATM   17  C   UNL     1      41.892 -12.251   4.907  1.00  0.00     0.014 A 
HETATM   18  C   UNL     1      39.114 -12.400   5.340  1.00  0.00     0.030 A 
HETATM   19  N   UNL     1      39.619 -14.794   5.880  1.00  0.00    -0.359 N 
HETATM   20  C   UNL     1      39.708 -11.201   4.942  1.00  0.00     0.002 A 
HETATM   21  C   UNL     1      41.078 -11.125   4.726  1.00  0.00     0.001 A 
HETATM   22  H   UNL     1      38.680 -15.104   6.083  1.00  0.00     0.166 HD
HETATM   23  C   UNL     1      40.734 -15.589   5.914  1.00  0.00     0.016 A 
HETATM   24  C   UNL     1      40.618 -17.033   6.260  1.00  0.00     0.069 C 
ENDBRANCH   5  14
BRANCH   5  25
HETATM   25  O   UNL     1      44.217 -14.234   5.229  1.00  0.00    -0.371 OA
HETATM   26  H   UNL     1      44.466 -13.841   6.080  1.00  0.00     0.212 HD
ENDBRANCH   5  25
TORSDOF 2
ENDMDL
MODEL 3
REMARK VINA RESULT:      -8.0      1.891      6.007
REMARK  2 active torsions:
REMARK  status: ('A' for Active; 'I' for Inactive)
REMARK    1  A    between atoms: C_5  and  C_7 
REMARK    2  A    between atoms: C_5  and  O_6 
ROOT
HETATM    1  C   UNL     1      44.341 -20.178   2.522  1.00  0.00     0.050 C 
HETATM    2  C   UNL     1      44.004 -19.235   3.635  1.00  0.00    -0.034 A 
HETATM    3  C   UNL     1      42.942 -18.341   3.599  1.00  0.00     0.052 A 
HETATM    4  C   UNL     1      42.649 -17.455   4.650  1.00  0.00     0.039 A 
HETATM    5  C   UNL     1      41.415 -16.650   4.296  1.00  0.00     0.200 A 
HETATM    6  C   UNL     1      41.086 -17.188   2.860  1.00  0.00     0.266 A 
HETATM    7  O   UNL     1      40.166 -16.884   2.117  1.00  0.00    -0.269 OA
HETATM    8  N   UNL     1      42.024 -18.178   2.569  1.00  0.00    -0.323 N 
HETATM    9  C   UNL     1      43.427 -17.475   5.796  1.00  0.00     0.046 A 
HETATM   10 CL   UNL     1      43.100 -16.487   7.162  1.00  0.00    -0.084 Cl
HETATM   11  C   UNL     1      44.509 -18.359   5.860  1.00  0.00     0.025 A 
HETATM   12  C   UNL     1      44.796 -19.225   4.791  1.00  0.00     0.011 A 
HETATM   13  H   UNL     1      42.005 -18.681   1.695  1.00  0.00     0.169 HD
ENDROOT
BRANCH   5  14
HETATM   14  C   UNL     1      41.781 -15.181   4.285  1.00  0.00     0.025 A 
HETATM   15  C   UNL     1      41.136 -14.103   5.006  1.00  0.00     0.003 A 
HETATM   16  C   UNL     1      41.810 -12.922   4.695  1.00  0.00     0.043 A 
HETATM   17  C   UNL     1      40.043 -14.011   5.898  1.00  0.00     0.014 A 
HETATM   18  C   UNL     1      41.452 -11.672   5.215  1.00  0.00     0.030 A 
HETATM   19  N   UNL     1      42.825 -13.249   3.835  1.00  0.00    -0.359 N 
HETATM   20  C   UNL     1      40.368 -11.617   6.093  1.00  0.00     0.002 A 
HETATM   21  C   UNL     1      39.672 -12.771   6.432  1.00  0.00     0.001 A 
HETATM   22  H   UNL     1      43.481 -12.583   3.452  1.00  0.00     0.166 HD
HETATM   23  C   UNL     1      42.839 -14.596   3.588  1.00  0.00     0.016 A 
HETATM   24  C   UNL     1      43.880 -15.188   2.703  1.00  0.00     0.069 C 
ENDBRANCH   5  14
BRANCH   5  25
HETATM   25  O   UNL     1      40.350 -16.981   5.186  1.00  0.00    -0.371 OA
HETATM   26  H   UNL     1      39.540 -16.596   4.817  1.00  0.00     0.212 HD
ENDBRANCH   5  25
TORSDOF 2
ENDMDL
MODEL 4
REMARK VINA RESULT:      -7.6      2.805      6.358
REMARK  2 active torsions:
REMARK  status: ('A' for Active; 'I' for Inactive)
REMARK    1  A    between atoms: C_5  and  C_7 
REMARK    2  A    between atoms: C_5  and  O_6 
ROOT
HETATM    1  C   UNL     1      44.279 -19.795   2.782  1.00  0.00     0.050 C 
HETATM    2  C   UNL     1      43.344 -18.822   3.430  1.00  0.00    -0.034 A 
HETATM    3  C   UNL     1      42.568 -17.909   2.730  1.00  0.00     0.052 A 
HETATM    4  C   UNL     1      41.704 -16.996   3.358  1.00  0.00     0.039 A 
HETATM    5  C   UNL     1      40.991 -16.174   2.304  1.00  0.00     0.200 A 
HETATM    6  C   UNL     1      41.626 -16.735   0.983  1.00  0.00     0.266 A 
HETATM    7  O   UNL     1      41.388 -16.428  -0.175  1.00  0.00    -0.269 OA
HETATM    8  N   UNL     1      42.509 -17.748   1.352  1.00  0.00    -0.323 N 
HETATM    9  C   UNL     1      41.585 -17.008   4.739  1.00  0.00     0.046 A 
HETATM   10 CL   UNL     1      40.498 -15.985   5.590  1.00  0.00    -0.084 Cl
HETATM   11  C   UNL     1      42.360 -17.911   5.473  1.00  0.00     0.025 A 
HETATM   12  C   UNL     1      43.231 -18.805   4.827  1.00  0.00     0.011 A 
HETATM   13  H   UNL     1      43.030 -18.269   0.663  1.00  0.00     0.169 HD
ENDROOT
BRANCH   5  14
HETATM   14  C   UNL     1      41.325 -14.714   2.520  1.00  0.00     0.025 A 
HETATM   15  C   UNL     1      40.421 -13.582   2.465  1.00  0.00     0.003 A 
HETATM   16  C   UNL     1      41.164 -12.432   2.729  1.00  0.00     0.043 A 
HETATM   17  C   UNL     1      39.038 -13.419   2.218  1.00  0.00     0.014 A 
HETATM   18  C   UNL     1      40.610 -11.146   2.753  1.00  0.00     0.030 A 
HETATM   19  N   UNL     1      42.458 -12.827   2.947  1.00  0.00    -0.359 N 
HETATM   20  C   UNL     1      39.242 -11.021   2.505  1.00  0.00     0.002 A 
HETATM   21  C   UNL     1      38.464 -12.142   2.242  1.00  0.00     0.001 A 
HETATM   22  H   UNL     1      43.214 -12.195   3.169  1.00  0.00     0.166 HD
HETATM   23  C   UNL     1      42.576 -14.188   2.844  1.00  0.00     0.016 A 
HETATM   24  C   UNL     1      43.890 -14.849   3.075  1.00  0.00     0.069 C 
ENDBRANCH   5  14
BRANCH   5  25
HETATM   25  O   UNL     1      39.595 -16.466   2.324  1.00  0.00    -0.371 OA
HETATM   26  H   UNL     1      39.283 -16.306   3.228  1.00  0.00     0.212 HD
ENDBRANCH   5  25
TORSDOF 2
ENDMDL
MODEL 5
REMARK VINA RESULT:      -7.6      2.606      5.419
REMARK  2 active torsions:
REMARK  status: ('A' for Active; 'I' for Inactive)
REMARK    1  A    between atoms: C_5  and  C_7 
REMARK    2  A    between atoms: C_5  and  O_6 
ROOT
HETATM    1  C   UNL     1      44.719 -18.421   7.115  1.00  0.00     0.050 C 
HETATM    2  C   UNL     1      44.293 -18.049   5.729  1.00  0.00    -0.034 A 
HETATM    3  C   UNL     1      43.888 -16.774   5.359  1.00  0.00     0.052 A 
HETATM    4  C   UNL     1      43.481 -16.447   4.054  1.00  0.00     0.039 A 
HETATM    5  C   UNL     1      43.138 -14.973   3.992  1.00  0.00     0.200 A 
HETATM    6  C   UNL     1      43.369 -14.530   5.478  1.00  0.00     0.266 A 
HETATM    7  O   UNL     1      43.253 -13.421   5.978  1.00  0.00    -0.269 OA
HETATM    8  N   UNL     1      43.822 -15.650   6.173  1.00  0.00    -0.323 N 
HETATM    9  C   UNL     1      43.502 -17.420   3.068  1.00  0.00     0.046 A 
HETATM   10 CL   UNL     1      43.099 -17.098   1.431  1.00  0.00    -0.084 Cl
HETATM   11  C   UNL     1      43.899 -18.717   3.412  1.00  0.00     0.025 A 
HETATM   12  C   UNL     1      44.286 -19.028   4.726  1.00  0.00     0.011 A 
HETATM   13  H   UNL     1      44.051 -15.605   7.154  1.00  0.00     0.169 HD
ENDROOT
BRANCH   5  14
HETATM   14  C   UNL     1      41.690 -14.830   3.573  1.00  0.00     0.025 A 
HETATM   15  C   UNL     1      41.179 -14.353   2.304  1.00  0.00     0.003 A 
HETATM   16  C   UNL     1      39.786 -14.393   2.365  1.00  0.00     0.043 A 
HETATM   17  C   UNL     1      41.762 -13.891   1.102  1.00  0.00     0.014 A 
HETATM   18  C   UNL     1      38.957 -13.996   1.309  1.00  0.00     0.030 A 
HETATM   19  N   UNL     1      39.449 -14.877   3.602  1.00  0.00    -0.359 N 
HETATM   20  C   UNL     1      39.566 -13.546   0.136  1.00  0.00     0.002 A 
HETATM   21  C   UNL     1      40.951 -13.494   0.031  1.00  0.00     0.001 A 
HETATM   22  H   UNL     1      38.499 -15.019   3.917  1.00  0.00     0.166 HD
HETATM   23  C   UNL     1      40.570 -15.162   4.336  1.00  0.00     0.016 A 
HETATM   24  C   UNL     1      40.448 -15.733   5.706  1.00  0.00     0.069 C 
ENDBRANCH   5  14
BRANCH   5  25
HETATM   25  O   UNL     1      44.063 -14.295   3.142  1.00  0.00    -0.371 OA
HETATM   26  H   UNL     1      44.918 -14.290   3.599  1.00  0.00     0.212 HD
ENDBRANCH   5  25
TORSDOF 2
ENDMDL
MODEL 6
REMARK VINA RESULT:      -7.4      2.036      3.178
REMARK  2 active torsions:
REMARK  status: ('A' for Active; 'I' for Inactive)
REMARK    1  A    between atoms: C_5  and  C_7 
REMARK    2  A    between atoms: C_5  and  O_6 
ROOT
HETATM    1  C   UNL     1      38.935 -13.039   5.796  1.00  0.00     0.050 C 
HETATM    2  C   UNL     1      40.327 -13.313   5.316  1.00  0.00    -0.034 A 
HETATM    3  C   UNL     1      40.644 -14.278   4.370  1.00  0.00     0.052 A 
HETATM    4  C   UNL     1      41.959 -14.529   3.941  1.00  0.00     0.039 A 
HETATM    5  C   UNL     1      41.942 -15.616   2.887  1.00  0.00     0.200 A 
HETATM    6  C   UNL     1      40.416 -15.974   2.824  1.00  0.00     0.266 A 
HETATM    7  O   UNL     1      39.845 -16.787   2.114  1.00  0.00    -0.269 OA
HETATM    8  N   UNL     1      39.759 -15.122   3.711  1.00  0.00    -0.323 N 
HETATM    9  C   UNL     1      43.000 -13.770   4.452  1.00  0.00     0.046 A 
HETATM   10 CL   UNL     1      44.626 -13.949   3.931  1.00  0.00    -0.084 Cl
HETATM   11  C   UNL     1      42.713 -12.795   5.412  1.00  0.00     0.025 A 
HETATM   12  C   UNL     1      41.394 -12.572   5.842  1.00  0.00     0.011 A 
HETATM   13  H   UNL     1      38.759 -15.158   3.833  1.00  0.00     0.169 HD
ENDROOT
BRANCH   5  14
HETATM   14  C   UNL     1      42.780 -16.778   3.376  1.00  0.00     0.025 A 
HETATM   15  C   UNL     1      42.884 -17.286   4.729  1.00  0.00     0.003 A 
HETATM   16  C   UNL     1      43.769 -18.364   4.712  1.00  0.00     0.043 A 
HETATM   17  C   UNL     1      42.311 -16.937   5.974  1.00  0.00     0.014 A 
HETATM   18  C   UNL     1      44.112 -19.098   5.854  1.00  0.00     0.030 A 
HETATM   19  N   UNL     1      44.185 -18.525   3.416  1.00  0.00    -0.359 N 
HETATM   20  C   UNL     1      43.528 -18.726   7.066  1.00  0.00     0.002 A 
HETATM   21  C   UNL     1      42.638 -17.661   7.128  1.00  0.00     0.001 A 
HETATM   22  H   UNL     1      44.827 -19.242   3.111  1.00  0.00     0.166 HD
HETATM   23  C   UNL     1      43.594 -17.600   2.596  1.00  0.00     0.016 A 
HETATM   24  C   UNL     1      43.873 -17.604   1.134  1.00  0.00     0.069 C 
ENDBRANCH   5  14
BRANCH   5  25
HETATM   25  O   UNL     1      42.358 -15.082   1.631  1.00  0.00    -0.371 OA
HETATM   26  H   UNL     1      41.563 -14.762   1.179  1.00  0.00     0.212 HD
ENDBRANCH   5  25
TORSDOF 2
ENDMDL
MODEL 7
REMARK VINA RESULT:      -7.4      2.512      5.652
REMARK  2 active torsions:
REMARK  status: ('A' for Active; 'I' for Inactive)
REMARK    1  A    between atoms: C_5  and  C_7 
REMARK    2  A    between atoms: C_5  and  O_6 
ROOT
HETATM    1  C   UNL     1      44.067 -17.835   1.641  1.00  0.00     0.050 C 
HETATM    2  C   UNL     1      43.184 -17.532   2.812  1.00  0.00    -0.034 A 
HETATM    3  C   UNL     1      42.503 -16.334   2.980  1.00  0.00     0.052 A 
HETATM    4  C   UNL     1      41.688 -16.064   4.092  1.00  0.00     0.039 A 
HETATM    5  C   UNL     1      41.075 -14.687   3.941  1.00  0.00     0.200 A 
HETATM    6  C   UNL     1      41.711 -14.203   2.592  1.00  0.00     0.266 A 
HETATM    7  O   UNL     1      41.537 -13.153   1.992  1.00  0.00    -0.269 OA
HETATM    8  N   UNL     1      42.504 -15.247   2.115  1.00  0.00    -0.323 N 
HETATM    9  C   UNL     1      41.521 -17.035   5.067  1.00  0.00     0.046 A 
HETATM   10 CL   UNL     1      40.485 -16.827   6.421  1.00  0.00    -0.084 Cl
HETATM   11  C   UNL     1      42.200 -18.249   4.931  1.00  0.00     0.025 A 
HETATM   12  C   UNL     1      43.025 -18.493   3.819  1.00  0.00     0.011 A 
HETATM   13  H   UNL     1      43.008 -15.170   1.245  1.00  0.00     0.169 HD
ENDROOT
BRANCH   5  14
HETATM   14  C   UNL     1      41.508 -13.833   5.114  1.00  0.00     0.025 A 
HETATM   15  C   UNL     1      42.772 -13.877   5.822  1.00  0.00     0.003 A 
HETATM   16  C   UNL     1      42.729 -12.912   6.827  1.00  0.00     0.043 A 
HETATM   17  C   UNL     1      43.955 -14.643   5.707  1.00  0.00     0.014 A 
HETATM   18  C   UNL     1      43.786 -12.677   7.715  1.00  0.00     0.030 A 
HETATM   19  N   UNL     1      41.509 -12.294   6.743  1.00  0.00    -0.359 N 
HETATM   20  C   UNL     1      44.939 -13.451   7.574  1.00  0.00     0.002 A 
HETATM   21  C   UNL     1      45.026 -14.421   6.583  1.00  0.00     0.001 A 
HETATM   22  H   UNL     1      41.210 -11.544   7.351  1.00  0.00     0.166 HD
HETATM   23  C   UNL     1      40.768 -12.815   5.717  1.00  0.00     0.016 A 
HETATM   24  C   UNL     1      39.414 -12.274   5.414  1.00  0.00     0.069 C 
ENDBRANCH   5  14
BRANCH   5  25
HETATM   25  O   UNL     1      39.661 -14.800   3.789  1.00  0.00    -0.371 OA
HETATM   26  H   UNL     1      39.346 -15.400   4.483  1.00  0.00     0.212 HD
ENDBRANCH   5  25
TORSDOF 2
ENDMDL
MODEL 8
REMARK VINA RESULT:      -7.1      2.261      3.002
REMARK  2 active torsions:
REMARK  status: ('A' for Active; 'I' for Inactive)
REMARK    1  A    between atoms: C_5  and  C_7 
REMARK    2  A    between atoms: C_5  and  O_6 
ROOT
HETATM    1  C   UNL     1      38.584 -12.677   1.914  1.00  0.00     0.050 C 
HETATM    2  C   UNL     1      39.927 -13.070   2.447  1.00  0.00    -0.034 A 
HETATM    3  C   UNL     1      40.447 -14.354   2.365  1.00  0.00     0.052 A 
HETATM    4  C   UNL     1      41.706 -14.706   2.882  1.00  0.00     0.039 A 
HETATM    5  C   UNL     1      41.973 -16.169   2.595  1.00  0.00     0.200 A 
HETATM    6  C   UNL     1      40.646 -16.600   1.878  1.00  0.00     0.266 A 
HETATM    7  O   UNL     1      40.340 -17.688   1.415  1.00  0.00    -0.269 OA
HETATM    8  N   UNL     1      39.846 -15.463   1.782  1.00  0.00    -0.323 N 
HETATM    9  C   UNL     1      42.493 -13.736   3.481  1.00  0.00     0.046 A 
HETATM   10 CL   UNL     1      44.075 -14.052   4.071  1.00  0.00    -0.084 Cl
HETATM   11  C   UNL     1      41.993 -12.434   3.585  1.00  0.00     0.025 A 
HETATM   12  C   UNL     1      40.724 -12.106   3.078  1.00  0.00     0.011 A 
HETATM   13  H   UNL     1      38.939 -15.492   1.342  1.00  0.00     0.169 HD
ENDROOT
BRANCH   5  14
HETATM   14  C   UNL     1      42.171 -16.893   3.910  1.00  0.00     0.025 A 
HETATM   15  C   UNL     1      43.048 -18.013   4.181  1.00  0.00     0.003 A 
HETATM   16  C   UNL     1      42.904 -18.350   5.526  1.00  0.00     0.043 A 
HETATM   17  C   UNL     1      43.957 -18.778   3.414  1.00  0.00     0.014 A 
HETATM   18  C   UNL     1      43.604 -19.398   6.137  1.00  0.00     0.030 A 
HETATM   19  N   UNL     1      41.994 -17.480   6.066  1.00  0.00    -0.359 N 
HETATM   20  C   UNL     1      44.493 -20.133   5.352  1.00  0.00     0.002 A 
HETATM   21  C   UNL     1      44.670 -19.828   4.007  1.00  0.00     0.001 A 
HETATM   22  H   UNL     1      41.704 -17.490   7.034  1.00  0.00     0.166 HD
HETATM   23  C   UNL     1      41.554 -16.588   5.124  1.00  0.00     0.016 A 
HETATM   24  C   UNL     1      40.580 -15.523   5.492  1.00  0.00     0.069 C 
ENDBRANCH   5  14
BRANCH   5  25
HETATM   25  O   UNL     1      43.068 -16.293   1.688  1.00  0.00    -0.371 OA
HETATM   26  H   UNL     1      43.851 -15.934   2.135  1.00  0.00     0.212 HD
ENDBRANCH   5  25
TORSDOF 2
ENDMDL
MODEL 9
REMARK VINA RESULT:      -7.1      2.319      3.323
REMARK  2 active torsions:
REMARK  status: ('A' for Active; 'I' for Inactive)
REMARK    1  A    between atoms: C_5  and  C_7 
REMARK    2  A    between atoms: C_5  and  O_6 
ROOT
HETATM    1  C   UNL     1      43.765 -13.321   6.681  1.00  0.00     0.050 C 
HETATM    2  C   UNL     1      43.027 -14.538   6.215  1.00  0.00    -0.034 A 
HETATM    3  C   UNL     1      43.578 -15.811   6.180  1.00  0.00     0.052 A 
HETATM    4  C   UNL     1      42.873 -16.941   5.729  1.00  0.00     0.039 A 
HETATM    5  C   UNL     1      43.756 -18.165   5.854  1.00  0.00     0.200 A 
HETATM    6  C   UNL     1      45.087 -17.542   6.402  1.00  0.00     0.266 A 
HETATM    7  O   UNL     1      46.132 -18.100   6.701  1.00  0.00    -0.269 OA
HETATM    8  N   UNL     1      44.860 -16.177   6.572  1.00  0.00    -0.323 N 
HETATM    9  C   UNL     1      41.556 -16.804   5.319  1.00  0.00     0.046 A 
HETATM   10 CL   UNL     1      40.591 -18.135   4.827  1.00  0.00    -0.084 Cl
HETATM   11  C   UNL     1      40.976 -15.532   5.336  1.00  0.00     0.025 A 
HETATM   12  C   UNL     1      41.703 -14.413   5.774  1.00  0.00     0.011 A 
HETATM   13  H   UNL     1      45.577 -15.564   6.930  1.00  0.00     0.169 HD
ENDROOT
BRANCH   5  14
HETATM   14  C   UNL     1      43.936 -18.775   4.480  1.00  0.00     0.025 A 
HETATM   15  C   UNL     1      44.199 -20.162   4.156  1.00  0.00     0.003 A 
HETATM   16  C   UNL     1      44.289 -20.264   2.768  1.00  0.00     0.043 A 
HETATM   17  C   UNL     1      44.369 -21.349   4.906  1.00  0.00     0.014 A 
HETATM   18  C   UNL     1      44.541 -21.468   2.099  1.00  0.00     0.030 A 
HETATM   19  N   UNL     1      44.083 -19.010   2.256  1.00  0.00    -0.359 N 
HETATM   20  C   UNL     1      44.703 -22.621   2.870  1.00  0.00     0.002 A 
HETATM   21  C   UNL     1      44.618 -22.564   4.256  1.00  0.00     0.001 A 
HETATM   22  H   UNL     1      44.085 -18.793   1.270  1.00  0.00     0.166 HD
HETATM   23  C   UNL     1      43.853 -18.106   3.259  1.00  0.00     0.016 A 
HETATM   24  C   UNL     1      43.570 -16.680   2.937  1.00  0.00     0.069 C 
ENDBRANCH   5  14
BRANCH   5  25
HETATM   25  O   UNL     1      43.212 -19.058   6.825  1.00  0.00    -0.371 OA
HETATM   26  H   UNL     1      42.942 -18.521   7.586  1.00  0.00     0.212 HD
ENDBRANCH   5  25
TORSDOF 2
ENDMDL
MODEL 10
REMARK VINA RESULT:      -7.1      3.505      5.817
REMARK  2 active torsions:
REMARK  status: ('A' for Active; 'I' for Inactive)
REMARK    1  A    between atoms: C_5  and  C_7 
REMARK    2  A    between atoms: C_5  and  O_6 
ROOT
HETATM    1  C   UNL     1      40.599 -17.015   6.466  1.00  0.00     0.050 C 
HETATM    2  C   UNL     1      41.493 -16.922   5.268  1.00  0.00    -0.034 A 
HETATM    3  C   UNL     1      41.457 -15.878   4.354  1.00  0.00     0.052 A 
HETATM    4  C   UNL     1      42.296 -15.815   3.228  1.00  0.00     0.039 A 
HETATM    5  C   UNL     1      42.016 -14.536   2.467  1.00  0.00     0.200 A 
HETATM    6  C   UNL     1      40.853 -13.911   3.313  1.00  0.00     0.266 A 
HETATM    7  O   UNL     1      40.262 -12.855   3.146  1.00  0.00    -0.269 OA
HETATM    8  N   UNL     1      40.627 -14.764   4.392  1.00  0.00    -0.323 N 
HETATM    9  C   UNL     1      43.230 -16.817   3.016  1.00  0.00     0.046 A 
HETATM   10 CL   UNL     1      44.350 -16.786   1.715  1.00  0.00    -0.084 Cl
HETATM   11  C   UNL     1      43.285 -17.886   3.916  1.00  0.00     0.025 A 
HETATM   12  C   UNL     1      42.425 -17.940   5.025  1.00  0.00     0.011 A 
HETATM   13  H   UNL     1      39.926 -14.561   5.087  1.00  0.00     0.169 HD
ENDROOT
BRANCH   5  14
HETATM   14  C   UNL     1      41.572 -14.894   1.065  1.00  0.00     0.025 A 
HETATM   15  C   UNL     1      41.745 -14.115  -0.145  1.00  0.00     0.003 A 
HETATM   16  C   UNL     1      41.182 -14.835  -1.198  1.00  0.00     0.043 A 
HETATM   17  C   UNL     1      42.329 -12.864  -0.453  1.00  0.00     0.014 A 
HETATM   18  C   UNL     1      41.165 -14.378  -2.522  1.00  0.00     0.030 A 
HETATM   19  N   UNL     1      40.694 -16.004  -0.674  1.00  0.00    -0.359 N 
HETATM   20  C   UNL     1      41.750 -13.139  -2.790  1.00  0.00     0.002 A 
HETATM   21  C   UNL     1      42.326 -12.391  -1.771  1.00  0.00     0.001 A 
HETATM   22  H   UNL     1      40.238 -16.722  -1.218  1.00  0.00     0.166 HD
HETATM   23  C   UNL     1      40.930 -16.070   0.673  1.00  0.00     0.016 A 
HETATM   24  C   UNL     1      40.515 -17.269   1.452  1.00  0.00     0.069 C 
ENDBRANCH   5  14
BRANCH   5  25
HETATM   25  O   UNL     1      43.157 -13.681   2.519  1.00  0.00    -0.371 OA
HETATM   26  H   UNL     1      43.779 -13.992   1.843  1.00  0.00     0.212 HD
ENDBRANCH   5  25
TORSDOF 2
ENDMDL
