MODEL 1
REMARK VINA RESULT:      -7.7      0.000      0.000
REMARK  9 active torsions:
REMARK  status: ('A' for Active; 'I' for Inactive)
REMARK    1  A    between atoms: C_2  and  C_3 
REMARK    2  A    between atoms: C_3  and  N_4 
REMARK    3  A    between atoms: C_7  and  C_8 
REMARK       I    between atoms: C_8  and  N_9 
REMARK    4  A    between atoms: N_9  and  C_10 
REMARK    5  A    between atoms: C_10  and  C_11 
REMARK    6  A    between atoms: C_13  and  O_14 
REMARK    7  A    between atoms: O_14  and  C_15 
REMARK    8  A    between atoms: C_15  and  C_16 
REMARK       I    between atoms: C_16  and  N_17 
REMARK    9  A    between atoms: C_23  and  C_24 
ROOT
HETATM    1  C   UNL     1      42.410 -14.342   2.525  1.00  0.00     0.255 C 
HETATM    2  N   UNL     1      41.323 -14.555   1.701  1.00  0.00    -0.353 N 
HETATM    3  O   UNL     1      43.057 -13.299   2.525  1.00  0.00    -0.268 OA
HETATM    4  H   UNL     1      40.713 -15.334   1.908  1.00  0.00     0.163 HD
ENDROOT
BRANCH   2   5
HETATM    5  C   UNL     1      40.805 -13.430   0.955  1.00  0.00     0.161 C 
BRANCH   5   6
HETATM    6  C   UNL     1      41.298 -13.289  -0.463  1.00  0.00    -0.038 A 
HETATM    7  C   UNL     1      40.948 -14.168  -1.498  1.00  0.00     0.045 A 
HETATM    8  C   UNL     1      41.525 -14.054  -2.771  1.00  0.00     0.070 A 
HETATM    9  C   UNL     1      42.471 -13.056  -3.010  1.00  0.00     0.037 A 
HETATM   10  C   UNL     1      42.835 -12.179  -1.989  1.00  0.00     0.003 A 
HETATM   11  C   UNL     1      42.255 -12.296  -0.728  1.00  0.00     0.009 A 
BRANCH   8  12
HETATM   12  O   UNL     1      41.091 -14.974  -3.689  1.00  0.00    -0.342 OA
BRANCH  12  13
HETATM   13  C   UNL     1      40.274 -16.032  -3.188  1.00  0.00     0.278 C 
BRANCH  13  14
HETATM   14  C   UNL     1      38.938 -16.098  -3.925  1.00  0.00     0.239 C 
HETATM   15  N   UNL     1      37.845 -15.706  -3.209  1.00  0.00    -0.368 N 
HETATM   16  H   UNL     1      37.914 -15.594  -2.203  1.00  0.00     0.159 HD
HETATM   17  H   UNL     1      36.936 -15.789  -3.641  1.00  0.00     0.159 HD
HETATM   18  O   UNL     1      38.837 -16.426  -5.103  1.00  0.00    -0.271 OA
ENDBRANCH  13  14
ENDBRANCH  12  13
ENDBRANCH   8  12
ENDBRANCH   5   6
ENDBRANCH   2   5
BRANCH   1  19
HETATM   19  C   UNL     1      42.688 -15.396   3.472  1.00  0.00     0.075 A 
HETATM   20  C   UNL     1      42.395 -15.331   4.851  1.00  0.00     0.158 A 
HETATM   21  N   UNL     1      42.887 -16.357   5.538  1.00  0.00    -0.183 NA
HETATM   22  N   UNL     1      43.556 -17.074   4.612  1.00  0.00    -0.268 N 
HETATM   23  C   UNL     1      43.421 -16.566   3.332  1.00  0.00     0.052 A 
BRANCH  22  24
HETATM   24  C   UNL     1      44.445 -18.156   5.044  1.00  0.00     0.106 C 
HETATM   25  C   UNL     1      45.021 -17.822   6.425  1.00  0.00     0.034 C 
BRANCH  24  26
HETATM   26  C   UNL     1      43.795 -19.556   5.081  1.00  0.00     0.022 C 
HETATM   27  C   UNL     1      44.701 -20.653   4.541  1.00  0.00     0.007 C 
ENDBRANCH  24  26
ENDBRANCH  22  24
BRANCH  23  28
HETATM   28  C   UNL     1      44.067 -17.176   2.086  1.00  0.00     0.038 A 
HETATM   29  C   UNL     1      43.630 -18.540   1.606  1.00  0.00     0.011 A 
HETATM   30  C   UNL     1      43.279 -17.331   0.807  1.00  0.00     0.011 A 
ENDBRANCH  23  28
ENDBRANCH   1  19
TORSDOF 9
ENDMDL
MODEL 2
REMARK VINA RESULT:      -7.7      3.893      7.955
REMARK  9 active torsions:
REMARK  status: ('A' for Active; 'I' for Inactive)
REMARK    1  A    between atoms: C_2  and  C_3 
REMARK    2  A    between atoms: C_3  and  N_4 
REMARK    3  A    between atoms: C_7  and  C_8 
REMARK       I    between atoms: C_8  and  N_9 
REMARK    4  A    between atoms: N_9  and  C_10 
REMARK    5  A    between atoms: C_10  and  C_11 
REMARK    6  A    between atoms: C_13  and  O_14 
REMARK    7  A    between atoms: O_14  and  C_15 
REMARK    8  A    between atoms: C_15  and  C_16 
REMARK       I    between atoms: C_16  and  N_17 
REMARK    9  A    between atoms: C_23  and  C_24 
ROOT
HETATM    1  C   UNL     1      41.367 -16.596   1.947  1.00  0.00     0.255 C 
HETATM    2  N   UNL     1      42.741 -16.624   1.826  1.00  0.00    -0.353 N 
HETATM    3  O   UNL     1      40.630 -17.430   1.428  1.00  0.00    -0.268 OA
HETATM    4  H   UNL     1      43.286 -16.048   2.451  1.00  0.00     0.163 HD
ENDROOT
BRANCH   2   5
HETATM    5  C   UNL     1      43.347 -17.795   1.234  1.00  0.00     0.161 C 
BRANCH   5   6
HETATM    6  C   UNL     1      43.741 -18.894   2.188  1.00  0.00    -0.038 A 
HETATM    7  C   UNL     1      44.275 -18.661   3.463  1.00  0.00     0.045 A 
HETATM    8  C   UNL     1      44.727 -19.720   4.264  1.00  0.00     0.070 A 
HETATM    9  C   UNL     1      44.654 -21.027   3.780  1.00  0.00     0.037 A 
HETATM   10  C   UNL     1      44.132 -21.275   2.511  1.00  0.00     0.003 A 
HETATM   11  C   UNL     1      43.682 -20.218   1.723  1.00  0.00     0.009 A 
BRANCH   8  12
HETATM   12  O   UNL     1      45.222 -19.352   5.487  1.00  0.00    -0.342 OA
BRANCH  12  13
HETATM   13  C   UNL     1      44.512 -18.321   6.174  1.00  0.00     0.278 C 
BRANCH  13  14
HETATM   14  C   UNL     1      43.874 -18.847   7.457  1.00  0.00     0.239 C 
HETATM   15  N   UNL     1      43.553 -17.905   8.391  1.00  0.00    -0.368 N 
HETATM   16  H   UNL     1      43.920 -16.964   8.305  1.00  0.00     0.159 HD
HETATM   17  H   UNL     1      43.181 -18.218   9.277  1.00  0.00     0.159 HD
HETATM   18  O   UNL     1      43.606 -20.031   7.637  1.00  0.00    -0.271 OA
ENDBRANCH  13  14
ENDBRANCH  12  13
ENDBRANCH   8  12
ENDBRANCH   5   6
ENDBRANCH   2   5
BRANCH   1  19
HETATM   19  C   UNL     1      40.839 -15.568   2.814  1.00  0.00     0.075 A 
HETATM   20  C   UNL     1      40.266 -14.359   2.365  1.00  0.00     0.158 A 
HETATM   21  N   UNL     1      39.997 -13.511   3.353  1.00  0.00    -0.183 NA
HETATM   22  N   UNL     1      40.449 -14.146   4.455  1.00  0.00    -0.268 N 
HETATM   23  C   UNL     1      40.918 -15.420   4.191  1.00  0.00     0.052 A 
BRANCH  22  24
HETATM   24  C   UNL     1      40.551 -13.410   5.718  1.00  0.00     0.106 C 
HETATM   25  C   UNL     1      41.839 -12.577   5.720  1.00  0.00     0.034 C 
BRANCH  24  26
HETATM   26  C   UNL     1      39.346 -12.498   6.038  1.00  0.00     0.022 C 
HETATM   27  C   UNL     1      39.524 -11.696   7.319  1.00  0.00     0.007 C 
ENDBRANCH  24  26
ENDBRANCH  22  24
BRANCH  23  28
HETATM   28  C   UNL     1      41.486 -16.369   5.249  1.00  0.00     0.038 A 
HETATM   29  C   UNL     1      40.582 -16.916   6.329  1.00  0.00     0.011 A 
HETATM   30  C   UNL     1      41.093 -17.828   5.266  1.00  0.00     0.011 A 
ENDBRANCH  23  28
ENDBRANCH   1  19
TORSDOF 9
ENDMDL
MODEL 3
REMARK VINA RESULT:      -7.6      1.543      2.422
REMARK  9 active torsions:
REMARK  status: ('A' for Active; 'I' for Inactive)
REMARK    1  A    between atoms: C_2  and  C_3 
REMARK    2  A    between atoms: C_3  and  N_4 
REMARK    3  A    between atoms: C_7  and  C_8 
REMARK       I    between atoms: C_8  and  N_9 
REMARK    4  A    between atoms: N_9  and  C_10 
REMARK    5  A    between atoms: C_10  and  C_11 
REMARK    6  A    between atoms: C_13  and  O_14 
REMARK    7  A    between atoms: O_14  and  C_15 
REMARK    8  A    between atoms: C_15  and  C_16 
REMARK       I    between atoms: C_16  and  N_17 
REMARK    9  A    between atoms: C_23  and  C_24 
ROOT
HETATM    1  C   UNL     1      41.614 -15.754   1.745  1.00  0.00     0.255 C 
HETATM    2  N   UNL     1      42.129 -14.479   1.626  1.00  0.00    -0.353 N 
HETATM    3  O   UNL     1      40.444 -16.030   1.494  1.00  0.00    -0.268 OA
HETATM    4  H   UNL     1      43.133 -14.369   1.634  1.00  0.00     0.163 HD
ENDROOT
BRANCH   2   5
HETATM    5  C   UNL     1      41.312 -13.472   0.988  1.00  0.00     0.161 C 
BRANCH   5   6
HETATM    6  C   UNL     1      41.585 -13.223  -0.474  1.00  0.00    -0.038 A 
HETATM    7  C   UNL     1      41.210 -14.106  -1.496  1.00  0.00     0.045 A 
HETATM    8  C   UNL     1      41.589 -13.877  -2.826  1.00  0.00     0.070 A 
HETATM    9  C   UNL     1      42.360 -12.757  -3.138  1.00  0.00     0.037 A 
HETATM   10  C   UNL     1      42.747 -11.873  -2.132  1.00  0.00     0.003 A 
HETATM   11  C   UNL     1      42.364 -12.105  -0.813  1.00  0.00     0.009 A 
BRANCH   8  12
HETATM   12  O   UNL     1      41.153 -14.817  -3.723  1.00  0.00    -0.342 OA
BRANCH  12  13
HETATM   13  C   UNL     1      40.359 -15.878  -3.194  1.00  0.00     0.278 C 
BRANCH  13  14
HETATM   14  C   UNL     1      39.018 -15.981  -3.916  1.00  0.00     0.239 C 
HETATM   15  N   UNL     1      37.946 -15.453  -3.256  1.00  0.00    -0.368 N 
HETATM   16  H   UNL     1      38.026 -15.216  -2.274  1.00  0.00     0.159 HD
HETATM   17  H   UNL     1      37.032 -15.553  -3.674  1.00  0.00     0.159 HD
HETATM   18  O   UNL     1      38.896 -16.455  -5.041  1.00  0.00    -0.271 OA
ENDBRANCH  13  14
ENDBRANCH  12  13
ENDBRANCH   8  12
ENDBRANCH   5   6
ENDBRANCH   2   5
BRANCH   1  19
HETATM   19  C   UNL     1      42.567 -16.781   2.094  1.00  0.00     0.075 A 
HETATM   20  C   UNL     1      43.640 -17.189   1.273  1.00  0.00     0.158 A 
HETATM   21  N   UNL     1      44.281 -18.254   1.743  1.00  0.00    -0.183 NA
HETATM   22  N   UNL     1      43.589 -18.583   2.854  1.00  0.00    -0.268 N 
HETATM   23  C   UNL     1      42.574 -17.689   3.143  1.00  0.00     0.052 A 
BRANCH  22  24
HETATM   24  C   UNL     1      43.852 -19.866   3.511  1.00  0.00     0.106 C 
HETATM   25  C   UNL     1      44.382 -20.869   2.480  1.00  0.00     0.034 C 
BRANCH  24  26
HETATM   26  C   UNL     1      44.823 -19.795   4.710  1.00  0.00     0.022 C 
HETATM   27  C   UNL     1      44.308 -20.522   5.943  1.00  0.00     0.007 C 
ENDBRANCH  24  26
ENDBRANCH  22  24
BRANCH  23  28
HETATM   28  C   UNL     1      41.631 -17.809   4.342  1.00  0.00     0.038 A 
HETATM   29  C   UNL     1      42.142 -17.504   5.731  1.00  0.00     0.011 A 
HETATM   30  C   UNL     1      41.170 -16.577   5.086  1.00  0.00     0.011 A 
ENDBRANCH  23  28
ENDBRANCH   1  19
TORSDOF 9
ENDMDL
MODEL 4
REMARK VINA RESULT:      -7.5      5.375      9.280
REMARK  9 active torsions:
REMARK  status: ('A' for Active; 'I' for Inactive)
REMARK    1  A    between atoms: C_2  and  C_3 
REMARK    2  A    between atoms: C_3  and  N_4 
REMARK    3  A    between atoms: C_7  and  C_8 
REMARK       I    between atoms: C_8  and  N_9 
REMARK    4  A    between atoms: N_9  and  C_10 
REMARK    5  A    between atoms: C_10  and  C_11 
REMARK    6  A    between atoms: C_13  and  O_14 
REMARK    7  A    between atoms: O_14  and  C_15 
REMARK    8  A    between atoms: C_15  and  C_16 
REMARK       I    between atoms: C_16  and  N_17 
REMARK    9  A    between atoms: C_23  and  C_24 
ROOT
HETATM    1  C   UNL     1      44.823 -13.821   6.954  1.00  0.00     0.255 C 
HETATM    2  N   UNL     1      44.178 -13.323   8.067  1.00  0.00    -0.353 N 
HETATM    3  O   UNL     1      45.909 -13.401   6.564  1.00  0.00    -0.268 OA
HETATM    4  H   UNL     1      43.410 -13.856   8.451  1.00  0.00     0.163 HD
ENDROOT
BRANCH   2   5
HETATM    5  C   UNL     1      44.903 -12.411   8.923  1.00  0.00     0.161 C 
BRANCH   5   6
HETATM    6  C   UNL     1      44.067 -11.517   9.802  1.00  0.00    -0.038 A 
HETATM    7  C   UNL     1      42.813 -11.012   9.427  1.00  0.00     0.045 A 
HETATM    8  C   UNL     1      42.130 -10.094  10.238  1.00  0.00     0.070 A 
HETATM    9  C   UNL     1      42.711  -9.668  11.433  1.00  0.00     0.037 A 
HETATM   10  C   UNL     1      43.959 -10.156  11.816  1.00  0.00     0.003 A 
HETATM   11  C   UNL     1      44.631 -11.069  11.007  1.00  0.00     0.009 A 
BRANCH   8  12
HETATM   12  O   UNL     1      40.915  -9.685   9.754  1.00  0.00    -0.342 OA
BRANCH  12  13
HETATM   13  C   UNL     1      39.792 -10.500  10.089  1.00  0.00     0.278 C 
BRANCH  13  14
HETATM   14  C   UNL     1      39.156 -11.108   8.841  1.00  0.00     0.239 C 
HETATM   15  N   UNL     1      38.909 -12.449   8.894  1.00  0.00    -0.368 N 
HETATM   16  H   UNL     1      39.325 -13.010   9.629  1.00  0.00     0.159 HD
HETATM   17  H   UNL     1      38.542 -12.900   8.067  1.00  0.00     0.159 HD
HETATM   18  O   UNL     1      38.829 -10.444   7.862  1.00  0.00    -0.271 OA
ENDBRANCH  13  14
ENDBRANCH  12  13
ENDBRANCH   8  12
ENDBRANCH   5   6
ENDBRANCH   2   5
BRANCH   1  19
HETATM   19  C   UNL     1      44.186 -14.950   6.317  1.00  0.00     0.075 A 
HETATM   20  C   UNL     1      44.362 -16.294   6.710  1.00  0.00     0.158 A 
HETATM   21  N   UNL     1      43.795 -17.159   5.874  1.00  0.00    -0.183 NA
HETATM   22  N   UNL     1      43.290 -16.380   4.896  1.00  0.00    -0.268 N 
HETATM   23  C   UNL     1      43.450 -15.029   5.144  1.00  0.00     0.052 A 
BRANCH  22  24
HETATM   24  C   UNL     1      42.802 -17.001   3.662  1.00  0.00     0.106 C 
HETATM   25  C   UNL     1      43.580 -18.297   3.400  1.00  0.00     0.034 C 
BRANCH  24  26
HETATM   26  C   UNL     1      41.287 -17.295   3.637  1.00  0.00     0.022 C 
HETATM   27  C   UNL     1      40.613 -16.863   2.343  1.00  0.00     0.007 C 
ENDBRANCH  24  26
ENDBRANCH  22  24
BRANCH  23  28
HETATM   28  C   UNL     1      42.971 -13.915   4.210  1.00  0.00     0.038 A 
HETATM   29  C   UNL     1      41.492 -13.656   4.048  1.00  0.00     0.011 A 
HETATM   30  C   UNL     1      42.339 -12.661   4.766  1.00  0.00     0.011 A 
ENDBRANCH  23  28
ENDBRANCH   1  19
TORSDOF 9
ENDMDL
MODEL 5
REMARK VINA RESULT:      -7.4      6.078      9.535
REMARK  9 active torsions:
REMARK  status: ('A' for Active; 'I' for Inactive)
REMARK    1  A    between atoms: C_2  and  C_3 
REMARK    2  A    between atoms: C_3  and  N_4 
REMARK    3  A    between atoms: C_7  and  C_8 
REMARK       I    between atoms: C_8  and  N_9 
REMARK    4  A    between atoms: N_9  and  C_10 
REMARK    5  A    between atoms: C_10  and  C_11 
REMARK    6  A    between atoms: C_13  and  O_14 
REMARK    7  A    between atoms: O_14  and  C_15 
REMARK    8  A    between atoms: C_15  and  C_16 
REMARK       I    between atoms: C_16  and  N_17 
REMARK    9  A    between atoms: C_23  and  C_24 
ROOT
HETATM    1  C   UNL     1      43.840 -16.601   7.016  1.00  0.00     0.255 C 
HETATM    2  N   UNL     1      44.214 -15.369   6.519  1.00  0.00    -0.353 N 
HETATM    3  O   UNL     1      43.300 -16.747   8.109  1.00  0.00    -0.268 OA
HETATM    4  H   UNL     1      44.445 -15.302   5.538  1.00  0.00     0.163 HD
ENDROOT
BRANCH   2   5
HETATM    5  C   UNL     1      43.769 -14.188   7.223  1.00  0.00     0.161 C 
BRANCH   5   6
HETATM    6  C   UNL     1      44.853 -13.291   7.767  1.00  0.00    -0.038 A 
HETATM    7  C   UNL     1      44.668 -12.418   8.849  1.00  0.00     0.045 A 
HETATM    8  C   UNL     1      45.677 -11.526   9.240  1.00  0.00     0.070 A 
HETATM    9  C   UNL     1      46.881 -11.499   8.536  1.00  0.00     0.037 A 
HETATM   10  C   UNL     1      47.077 -12.355   7.453  1.00  0.00     0.003 A 
HETATM   11  C   UNL     1      46.072 -13.241   7.072  1.00  0.00     0.009 A 
BRANCH   8  12
HETATM   12  O   UNL     1      45.366 -10.733  10.314  1.00  0.00    -0.342 OA
BRANCH  12  13
HETATM   13  C   UNL     1      43.981 -10.457  10.517  1.00  0.00     0.278 C 
BRANCH  13  14
HETATM   14  C   UNL     1      43.556 -10.775  11.949  1.00  0.00     0.239 C 
HETATM   15  N   UNL     1      43.151 -12.058  12.177  1.00  0.00    -0.368 N 
HETATM   16  H   UNL     1      42.950 -12.670  11.395  1.00  0.00     0.159 HD
HETATM   17  H   UNL     1      42.807 -12.293  13.098  1.00  0.00     0.159 HD
HETATM   18  O   UNL     1      43.618  -9.960  12.864  1.00  0.00    -0.271 OA
ENDBRANCH  13  14
ENDBRANCH  12  13
ENDBRANCH   8  12
ENDBRANCH   5   6
ENDBRANCH   2   5
BRANCH   1  19
HETATM   19  C   UNL     1      44.034 -17.718   6.123  1.00  0.00     0.075 A 
HETATM   20  C   UNL     1      45.233 -18.456   6.013  1.00  0.00     0.158 A 
HETATM   21  N   UNL     1      45.216 -19.332   5.013  1.00  0.00    -0.183 NA
HETATM   22  N   UNL     1      44.017 -19.131   4.427  1.00  0.00    -0.268 N 
HETATM   23  C   UNL     1      43.238 -18.202   5.095  1.00  0.00     0.052 A 
BRANCH  22  24
HETATM   24  C   UNL     1      43.739 -19.748   3.128  1.00  0.00     0.106 C 
HETATM   25  C   UNL     1      44.031 -18.740   2.010  1.00  0.00     0.034 C 
BRANCH  24  26
HETATM   26  C   UNL     1      44.506 -21.060   2.854  1.00  0.00     0.022 C 
HETATM   27  C   UNL     1      43.995 -21.811   1.633  1.00  0.00     0.007 C 
ENDBRANCH  24  26
ENDBRANCH  22  24
BRANCH  23  28
HETATM   28  C   UNL     1      41.834 -17.779   4.659  1.00  0.00     0.038 A 
HETATM   29  C   UNL     1      40.902 -17.133   5.658  1.00  0.00     0.011 A 
HETATM   30  C   UNL     1      41.470 -16.317   4.548  1.00  0.00     0.011 A 
ENDBRANCH  23  28
ENDBRANCH   1  19
TORSDOF 9
ENDMDL
MODEL 6
REMARK VINA RESULT:      -7.4      3.815      7.894
REMARK  9 active torsions:
REMARK  status: ('A' for Active; 'I' for Inactive)
REMARK    1  A    between atoms: C_2  and  C_3 
REMARK    2  A    between atoms: C_3  and  N_4 
REMARK    3  A    between atoms: C_7  and  C_8 
REMARK       I    between atoms: C_8  and  N_9 
REMARK    4  A    between atoms: N_9  and  C_10 
REMARK    5  A    between atoms: C_10  and  C_11 
REMARK    6  A    between atoms: C_13  and  O_14 
REMARK    7  A    between atoms: O_14  and  C_15 
REMARK    8  A    between atoms: C_15  and  C_16 
REMARK       I    between atoms: C_16  and  N_17 
REMARK    9  A    between atoms: C_23  and  C_24 
ROOT
HETATM    1  C   UNL     1      42.310 -16.772   1.891  1.00  0.00     0.255 C 
HETATM    2  N   UNL     1      43.426 -17.580   1.804  1.00  0.00    -0.353 N 
HETATM    3  O   UNL     1      41.219 -17.082   1.422  1.00  0.00    -0.268 OA
HETATM    4  H   UNL     1      44.217 -17.365   2.394  1.00  0.00     0.163 HD
ENDROOT
BRANCH   2   5
HETATM    5  C   UNL     1      43.251 -18.930   1.319  1.00  0.00     0.161 C 
BRANCH   5   6
HETATM    6  C   UNL     1      43.691 -20.032   2.249  1.00  0.00    -0.038 A 
HETATM    7  C   UNL     1      44.014 -19.827   3.598  1.00  0.00     0.045 A 
HETATM    8  C   UNL     1      44.525 -20.869   4.387  1.00  0.00     0.070 A 
HETATM    9  C   UNL     1      44.723 -22.127   3.818  1.00  0.00     0.037 A 
HETATM   10  C   UNL     1      44.413 -22.345   2.477  1.00  0.00     0.003 A 
HETATM   11  C   UNL     1      43.904 -21.307   1.700  1.00  0.00     0.009 A 
BRANCH   8  12
HETATM   12  O   UNL     1      44.795 -20.532   5.687  1.00  0.00    -0.342 OA
BRANCH  12  13
HETATM   13  C   UNL     1      43.801 -19.761   6.362  1.00  0.00     0.278 C 
BRANCH  13  14
HETATM   14  C   UNL     1      44.432 -18.639   7.183  1.00  0.00     0.239 C 
HETATM   15  N   UNL     1      45.344 -17.864   6.528  1.00  0.00    -0.368 N 
HETATM   16  H   UNL     1      45.716 -18.167   5.635  1.00  0.00     0.159 HD
HETATM   17  H   UNL     1      45.827 -17.147   7.053  1.00  0.00     0.159 HD
HETATM   18  O   UNL     1      44.115 -18.396   8.344  1.00  0.00    -0.271 OA
ENDBRANCH  13  14
ENDBRANCH  12  13
ENDBRANCH   8  12
ENDBRANCH   5   6
ENDBRANCH   2   5
BRANCH   1  19
HETATM   19  C   UNL     1      42.476 -15.563   2.663  1.00  0.00     0.075 A 
HETATM   20  C   UNL     1      42.819 -14.307   2.119  1.00  0.00     0.158 A 
HETATM   21  N   UNL     1      43.065 -13.386   3.046  1.00  0.00    -0.183 NA
HETATM   22  N   UNL     1      42.936 -14.057   4.209  1.00  0.00    -0.268 N 
HETATM   23  C   UNL     1      42.525 -15.367   4.035  1.00  0.00     0.052 A 
BRANCH  22  24
HETATM   24  C   UNL     1      43.379 -13.428   5.456  1.00  0.00     0.106 C 
HETATM   25  C   UNL     1      42.161 -12.893   6.219  1.00  0.00     0.034 C 
BRANCH  24  26
HETATM   26  C   UNL     1      44.211 -14.339   6.384  1.00  0.00     0.022 C 
HETATM   27  C   UNL     1      44.736 -13.619   7.618  1.00  0.00     0.007 C 
ENDBRANCH  24  26
ENDBRANCH  22  24
BRANCH  23  28
HETATM   28  C   UNL     1      42.293 -16.359   5.177  1.00  0.00     0.038 A 
HETATM   29  C   UNL     1      40.992 -16.331   5.943  1.00  0.00     0.011 A 
HETATM   30  C   UNL     1      41.286 -17.476   5.034  1.00  0.00     0.011 A 
ENDBRANCH  23  28
ENDBRANCH   1  19
TORSDOF 9
ENDMDL
MODEL 7
REMARK VINA RESULT:      -7.2      2.092      2.896
REMARK  9 active torsions:
REMARK  status: ('A' for Active; 'I' for Inactive)
REMARK    1  A    between atoms: C_2  and  C_3 
REMARK    2  A    between atoms: C_3  and  N_4 
REMARK    3  A    between atoms: C_7  and  C_8 
REMARK       I    between atoms: C_8  and  N_9 
REMARK    4  A    between atoms: N_9  and  C_10 
REMARK    5  A    between atoms: C_10  and  C_11 
REMARK    6  A    between atoms: C_13  and  O_14 
REMARK    7  A    between atoms: O_14  and  C_15 
REMARK    8  A    between atoms: C_15  and  C_16 
REMARK       I    between atoms: C_16  and  N_17 
REMARK    9  A    between atoms: C_23  and  C_24 
ROOT
HETATM    1  C   UNL     1      41.106 -15.543   3.584  1.00  0.00     0.255 C 
HETATM    2  N   UNL     1      40.088 -15.911   2.728  1.00  0.00    -0.353 N 
HETATM    3  O   UNL     1      41.346 -14.375   3.878  1.00  0.00    -0.268 OA
HETATM    4  H   UNL     1      39.811 -16.882   2.706  1.00  0.00     0.163 HD
ENDROOT
BRANCH   2   5
HETATM    5  C   UNL     1      39.142 -14.896   2.321  1.00  0.00     0.161 C 
BRANCH   5   6
HETATM    6  C   UNL     1      39.118 -14.562   0.851  1.00  0.00    -0.038 A 
HETATM    7  C   UNL     1      40.209 -14.755  -0.008  1.00  0.00     0.045 A 
HETATM    8  C   UNL     1      40.168 -14.322  -1.341  1.00  0.00     0.070 A 
HETATM    9  C   UNL     1      39.025 -13.679  -1.819  1.00  0.00     0.037 A 
HETATM   10  C   UNL     1      37.934 -13.473  -0.976  1.00  0.00     0.003 A 
HETATM   11  C   UNL     1      37.982 -13.909   0.346  1.00  0.00     0.009 A 
BRANCH   8  12
HETATM   12  O   UNL     1      41.300 -14.577  -2.069  1.00  0.00    -0.342 OA
BRANCH  12  13
HETATM   13  C   UNL     1      41.429 -13.880  -3.308  1.00  0.00     0.278 C 
BRANCH  13  14
HETATM   14  C   UNL     1      42.388 -12.699  -3.183  1.00  0.00     0.239 C 
HETATM   15  N   UNL     1      42.475 -11.887  -4.277  1.00  0.00    -0.368 N 
HETATM   16  H   UNL     1      42.090 -12.191  -5.163  1.00  0.00     0.159 HD
HETATM   17  H   UNL     1      43.142 -11.128  -4.255  1.00  0.00     0.159 HD
HETATM   18  O   UNL     1      43.010 -12.445  -2.156  1.00  0.00    -0.271 OA
ENDBRANCH  13  14
ENDBRANCH  12  13
ENDBRANCH   8  12
ENDBRANCH   5   6
ENDBRANCH   2   5
BRANCH   1  19
HETATM   19  C   UNL     1      41.823 -16.633   4.203  1.00  0.00     0.075 A 
HETATM   20  C   UNL     1      41.527 -17.166   5.476  1.00  0.00     0.158 A 
HETATM   21  N   UNL     1      42.424 -18.055   5.890  1.00  0.00    -0.183 NA
HETATM   22  N   UNL     1      43.346 -18.067   4.906  1.00  0.00    -0.268 N 
HETATM   23  C   UNL     1      43.002 -17.264   3.833  1.00  0.00     0.052 A 
BRANCH  22  24
HETATM   24  C   UNL     1      44.623 -18.750   5.126  1.00  0.00     0.106 C 
HETATM   25  C   UNL     1      45.295 -18.187   6.384  1.00  0.00     0.034 C 
BRANCH  24  26
HETATM   26  C   UNL     1      44.527 -20.287   5.236  1.00  0.00     0.022 C 
HETATM   27  C   UNL     1      44.756 -21.000   3.911  1.00  0.00     0.007 C 
ENDBRANCH  24  26
ENDBRANCH  22  24
BRANCH  23  28
HETATM   28  C   UNL     1      43.857 -17.087   2.577  1.00  0.00     0.038 A 
HETATM   29  C   UNL     1      43.983 -18.223   1.589  1.00  0.00     0.011 A 
HETATM   30  C   UNL     1      43.213 -17.003   1.212  1.00  0.00     0.011 A 
ENDBRANCH  23  28
ENDBRANCH   1  19
TORSDOF 9
ENDMDL
MODEL 8
REMARK VINA RESULT:      -7.1      2.256      3.526
REMARK  9 active torsions:
REMARK  status: ('A' for Active; 'I' for Inactive)
REMARK    1  A    between atoms: C_2  and  C_3 
REMARK    2  A    between atoms: C_3  and  N_4 
REMARK    3  A    between atoms: C_7  and  C_8 
REMARK       I    between atoms: C_8  and  N_9 
REMARK    4  A    between atoms: N_9  and  C_10 
REMARK    5  A    between atoms: C_10  and  C_11 
REMARK    6  A    between atoms: C_13  and  O_14 
REMARK    7  A    between atoms: O_14  and  C_15 
REMARK    8  A    between atoms: C_15  and  C_16 
REMARK       I    between atoms: C_16  and  N_17 
REMARK    9  A    between atoms: C_23  and  C_24 
ROOT
HETATM    1  C   UNL     1      42.039 -15.950   2.581  1.00  0.00     0.255 C 
HETATM    2  N   UNL     1      40.751 -16.153   2.128  1.00  0.00    -0.353 N 
HETATM    3  O   UNL     1      42.430 -14.876   3.029  1.00  0.00    -0.268 OA
HETATM    4  H   UNL     1      40.442 -17.104   1.983  1.00  0.00     0.163 HD
ENDROOT
BRANCH   2   5
HETATM    5  C   UNL     1      39.771 -15.121   2.379  1.00  0.00     0.161 C 
BRANCH   5   6
HETATM    6  C   UNL     1      39.243 -14.397   1.167  1.00  0.00    -0.038 A 
HETATM    7  C   UNL     1      40.064 -13.828   0.183  1.00  0.00     0.045 A 
HETATM    8  C   UNL     1      39.521 -13.069  -0.864  1.00  0.00     0.070 A 
HETATM    9  C   UNL     1      38.142 -12.868  -0.923  1.00  0.00     0.037 A 
HETATM   10  C   UNL     1      37.313 -13.420   0.052  1.00  0.00     0.003 A 
HETATM   11  C   UNL     1      37.859 -14.176   1.087  1.00  0.00     0.009 A 
BRANCH   8  12
HETATM   12  O   UNL     1      40.436 -12.576  -1.757  1.00  0.00    -0.342 OA
BRANCH  12  13
HETATM   13  C   UNL     1      40.232 -12.917  -3.128  1.00  0.00     0.278 C 
BRANCH  13  14
HETATM   14  C   UNL     1      40.997 -14.183  -3.505  1.00  0.00     0.239 C 
HETATM   15  N   UNL     1      42.342 -14.155  -3.274  1.00  0.00    -0.368 N 
HETATM   16  H   UNL     1      42.801 -13.274  -3.074  1.00  0.00     0.159 HD
HETATM   17  H   UNL     1      42.893 -14.952  -3.563  1.00  0.00     0.159 HD
HETATM   18  O   UNL     1      40.452 -15.194  -3.937  1.00  0.00    -0.271 OA
ENDBRANCH  13  14
ENDBRANCH  12  13
ENDBRANCH   8  12
ENDBRANCH   5   6
ENDBRANCH   2   5
BRANCH   1  19
HETATM   19  C   UNL     1      42.888 -17.117   2.588  1.00  0.00     0.075 A 
HETATM   20  C   UNL     1      43.734 -17.499   1.524  1.00  0.00     0.158 A 
HETATM   21  N   UNL     1      44.294 -18.691   1.705  1.00  0.00    -0.183 NA
HETATM   22  N   UNL     1      43.771 -19.120   2.872  1.00  0.00    -0.268 N 
HETATM   23  C   UNL     1      42.955 -18.180   3.477  1.00  0.00     0.052 A 
BRANCH  22  24
HETATM   24  C   UNL     1      43.966 -20.514   3.278  1.00  0.00     0.106 C 
HETATM   25  C   UNL     1      44.238 -21.374   2.038  1.00  0.00     0.034 C 
BRANCH  24  26
HETATM   26  C   UNL     1      45.086 -20.737   4.317  1.00  0.00     0.022 C 
HETATM   27  C   UNL     1      44.621 -21.503   5.547  1.00  0.00     0.007 C 
ENDBRANCH  24  26
ENDBRANCH  22  24
BRANCH  23  28
HETATM   28  C   UNL     1      42.231 -18.392   4.808  1.00  0.00     0.038 A 
HETATM   29  C   UNL     1      42.887 -17.955   6.097  1.00  0.00     0.011 A 
HETATM   30  C   UNL     1      41.696 -17.216   5.591  1.00  0.00     0.011 A 
ENDBRANCH  23  28
ENDBRANCH   1  19
TORSDOF 9
ENDMDL
MODEL 9
REMARK VINA RESULT:      -7.1      5.125      8.740
REMARK  9 active torsions:
REMARK  status: ('A' for Active; 'I' for Inactive)
REMARK    1  A    between atoms: C_2  and  C_3 
REMARK    2  A    between atoms: C_3  and  N_4 
REMARK    3  A    between atoms: C_7  and  C_8 
REMARK       I    between atoms: C_8  and  N_9 
REMARK    4  A    between atoms: N_9  and  C_10 
REMARK    5  A    between atoms: C_10  and  C_11 
REMARK    6  A    between atoms: C_13  and  O_14 
REMARK    7  A    between atoms: O_14  and  C_15 
REMARK    8  A    between atoms: C_15  and  C_16 
REMARK       I    between atoms: C_16  and  N_17 
REMARK    9  A    between atoms: C_23  and  C_24 
ROOT
HETATM    1  C   UNL     1      44.510 -14.473   7.178  1.00  0.00     0.255 C 
HETATM    2  N   UNL     1      45.323 -13.359   7.235  1.00  0.00    -0.353 N 
HETATM    3  O   UNL     1      44.183 -15.116   8.172  1.00  0.00    -0.268 OA
HETATM    4  H   UNL     1      45.368 -12.760   6.423  1.00  0.00     0.163 HD
ENDROOT
BRANCH   2   5
HETATM    5  C   UNL     1      45.635 -12.811   8.536  1.00  0.00     0.161 C 
BRANCH   5   6
HETATM    6  C   UNL     1      44.586 -11.919   9.150  1.00  0.00    -0.038 A 
HETATM    7  C   UNL     1      43.423 -11.513   8.481  1.00  0.00     0.045 A 
HETATM    8  C   UNL     1      42.538 -10.592   9.061  1.00  0.00     0.070 A 
HETATM    9  C   UNL     1      42.823 -10.064  10.320  1.00  0.00     0.037 A 
HETATM   10  C   UNL     1      43.979 -10.452  10.995  1.00  0.00     0.003 A 
HETATM   11  C   UNL     1      44.852 -11.369  10.415  1.00  0.00     0.009 A 
BRANCH   8  12
HETATM   12  O   UNL     1      41.440 -10.286   8.300  1.00  0.00    -0.342 OA
BRANCH  12  13
HETATM   13  C   UNL     1      40.167 -10.497   8.909  1.00  0.00     0.278 C 
BRANCH  13  14
HETATM   14  C   UNL     1      39.357 -11.547   8.154  1.00  0.00     0.239 C 
HETATM   15  N   UNL     1      38.861 -12.570   8.908  1.00  0.00    -0.368 N 
HETATM   16  H   UNL     1      39.202 -12.713   9.852  1.00  0.00     0.159 HD
HETATM   17  H   UNL     1      38.368 -13.316   8.436  1.00  0.00     0.159 HD
HETATM   18  O   UNL     1      39.108 -11.469   6.954  1.00  0.00    -0.271 OA
ENDBRANCH  13  14
ENDBRANCH  12  13
ENDBRANCH   8  12
ENDBRANCH   5   6
ENDBRANCH   2   5
BRANCH   1  19
HETATM   19  C   UNL     1      43.977 -14.789   5.874  1.00  0.00     0.075 A 
HETATM   20  C   UNL     1      43.566 -13.829   4.924  1.00  0.00     0.158 A 
HETATM   21  N   UNL     1      42.967 -14.367   3.865  1.00  0.00    -0.183 NA
HETATM   22  N   UNL     1      42.936 -15.686   4.147  1.00  0.00    -0.268 N 
HETATM   23  C   UNL     1      43.586 -16.002   5.327  1.00  0.00     0.052 A 
BRANCH  22  24
HETATM   24  C   UNL     1      42.124 -16.580   3.318  1.00  0.00     0.106 C 
HETATM   25  C   UNL     1      40.668 -16.097   3.321  1.00  0.00     0.034 C 
BRANCH  24  26
HETATM   26  C   UNL     1      42.612 -16.737   1.861  1.00  0.00     0.022 C 
HETATM   27  C   UNL     1      44.077 -17.137   1.759  1.00  0.00     0.007 C 
ENDBRANCH  24  26
ENDBRANCH  22  24
BRANCH  23  28
HETATM   28  C   UNL     1      43.711 -17.419   5.893  1.00  0.00     0.038 A 
HETATM   29  C   UNL     1      44.524 -18.453   5.151  1.00  0.00     0.011 A 
HETATM   30  C   UNL     1      45.026 -17.914   6.447  1.00  0.00     0.011 A 
ENDBRANCH  23  28
ENDBRANCH   1  19
TORSDOF 9
ENDMDL
MODEL 10
REMARK VINA RESULT:      -7.1      3.562      7.789
REMARK  9 active torsions:
REMARK  status: ('A' for Active; 'I' for Inactive)
REMARK    1  A    between atoms: C_2  and  C_3 
REMARK    2  A    between atoms: C_3  and  N_4 
REMARK    3  A    between atoms: C_7  and  C_8 
REMARK       I    between atoms: C_8  and  N_9 
REMARK    4  A    between atoms: N_9  and  C_10 
REMARK    5  A    between atoms: C_10  and  C_11 
REMARK    6  A    between atoms: C_13  and  O_14 
REMARK    7  A    between atoms: O_14  and  C_15 
REMARK    8  A    between atoms: C_15  and  C_16 
REMARK       I    between atoms: C_16  and  N_17 
REMARK    9  A    between atoms: C_23  and  C_24 
ROOT
HETATM    1  C   UNL     1      43.320 -14.738   4.868  1.00  0.00     0.255 C 
HETATM    2  N   UNL     1      43.008 -15.963   5.421  1.00  0.00    -0.353 N 
HETATM    3  O   UNL     1      44.218 -14.018   5.294  1.00  0.00    -0.268 OA
HETATM    4  H   UNL     1      42.417 -16.588   4.891  1.00  0.00     0.163 HD
ENDROOT
BRANCH   2   5
HETATM    5  C   UNL     1      43.906 -16.509   6.413  1.00  0.00     0.161 C 
BRANCH   5   6
HETATM    6  C   UNL     1      44.099 -18.004   6.384  1.00  0.00    -0.038 A 
HETATM    7  C   UNL     1      44.713 -18.687   5.324  1.00  0.00     0.045 A 
HETATM    8  C   UNL     1      44.765 -20.089   5.299  1.00  0.00     0.070 A 
HETATM    9  C   UNL     1      44.188 -20.816   6.341  1.00  0.00     0.037 A 
HETATM   10  C   UNL     1      43.569 -20.152   7.398  1.00  0.00     0.003 A 
HETATM   11  C   UNL     1      43.523 -18.760   7.418  1.00  0.00     0.009 A 
BRANCH   8  12
HETATM   12  O   UNL     1      45.396 -20.626   4.208  1.00  0.00    -0.342 OA
BRANCH  12  13
HETATM   13  C   UNL     1      44.679 -20.580   2.975  1.00  0.00     0.278 C 
BRANCH  13  14
HETATM   14  C   UNL     1      44.389 -21.984   2.449  1.00  0.00     0.239 C 
HETATM   15  N   UNL     1      43.833 -22.050   1.205  1.00  0.00    -0.368 N 
HETATM   16  H   UNL     1      43.452 -21.213   0.778  1.00  0.00     0.159 HD
HETATM   17  H   UNL     1      43.573 -22.957   0.845  1.00  0.00     0.159 HD
HETATM   18  O   UNL     1      44.679 -23.005   3.066  1.00  0.00    -0.271 OA
ENDBRANCH  13  14
ENDBRANCH  12  13
ENDBRANCH   8  12
ENDBRANCH   5   6
ENDBRANCH   2   5
BRANCH   1  19
HETATM   19  C   UNL     1      42.582 -14.386   3.677  1.00  0.00     0.075 A 
HETATM   20  C   UNL     1      41.929 -13.152   3.476  1.00  0.00     0.158 A 
HETATM   21  N   UNL     1      41.189 -13.126   2.371  1.00  0.00    -0.183 NA
HETATM   22  N   UNL     1      41.314 -14.373   1.871  1.00  0.00    -0.268 N 
HETATM   23  C   UNL     1      42.192 -15.160   2.594  1.00  0.00     0.052 A 
BRANCH  22  24
HETATM   24  C   UNL     1      40.435 -14.801   0.779  1.00  0.00     0.106 C 
HETATM   25  C   UNL     1      38.992 -14.393   1.096  1.00  0.00     0.034 C 
BRANCH  24  26
HETATM   26  C   UNL     1      40.827 -14.271  -0.617  1.00  0.00     0.022 C 
HETATM   27  C   UNL     1      40.843 -15.353  -1.687  1.00  0.00     0.007 C 
ENDBRANCH  24  26
ENDBRANCH  22  24
BRANCH  23  28
HETATM   28  C   UNL     1      42.530 -16.614   2.255  1.00  0.00     0.038 A 
HETATM   29  C   UNL     1      43.095 -16.956   0.896  1.00  0.00     0.011 A 
HETATM   30  C   UNL     1      43.967 -17.056   2.101  1.00  0.00     0.011 A 
ENDBRANCH  23  28
ENDBRANCH   1  19
TORSDOF 9
ENDMDL
