MODEL 1
REMARK VINA RESULT:      -7.5      0.000      0.000
REMARK  5 active torsions:
REMARK  status: ('A' for Active; 'I' for Inactive)
REMARK    1  A    between atoms: C_2  and  O_3 
REMARK    2  A    between atoms: O_3  and  C_4 
REMARK    3  A    between atoms: C_5  and  N_6 
REMARK       I    between atoms: N_6  and  C_7 
REMARK       I    between atoms: C_7  and  N_8 
REMARK    4  A    between atoms: N_8  and  C_9 
REMARK    5  A    between atoms: C_9  and  C_10 
ROOT
HETATM    1  N   UNL     1      44.552 -19.301   5.119  1.00  0.00    -0.306 N 
HETATM    2  C   UNL     1      44.103 -19.583   6.379  1.00  0.00     0.321 C 
HETATM    3  N   UNL     1      44.350 -18.601   7.301  1.00  0.00    -0.337 N 
HETATM    4  O   UNL     1      43.554 -20.613   6.754  1.00  0.00    -0.247 OA
HETATM    5  H   UNL     1      45.439 -18.800   5.147  1.00  0.00     0.171 HD
HETATM    6  H   UNL     1      43.975 -18.876   8.199  1.00  0.00     0.164 HD
ENDROOT
BRANCH   1   7
HETATM    7  C   UNL     1      44.294 -20.089   3.980  1.00  0.00     0.069 A 
HETATM    8  C   UNL     1      43.451 -19.700   2.929  1.00  0.00     0.096 A 
HETATM    9  C   UNL     1      43.185 -20.587   1.880  1.00  0.00     0.039 A 
HETATM   10  C   UNL     1      43.817 -21.829   1.831  1.00  0.00     0.003 A 
HETATM   11  C   UNL     1      44.717 -22.188   2.830  1.00  0.00     0.002 A 
HETATM   12  C   UNL     1      44.961 -21.319   3.896  1.00  0.00     0.032 A 
BRANCH   8  13
HETATM   13  O   UNL     1      42.854 -18.469   2.823  1.00  0.00    -0.344 OA
BRANCH  13  14
HETATM   14  C   UNL     1      42.912 -17.913   1.500  1.00  0.00     0.121 C 
HETATM   15  C   UNL     1      44.105 -16.963   1.470  1.00  0.00     0.040 C 
HETATM   16  C   UNL     1      41.627 -17.150   1.186  1.00  0.00     0.040 C 
ENDBRANCH  13  14
ENDBRANCH   8  13
ENDBRANCH   1   7
BRANCH   3  17
HETATM   17  C   UNL     1      44.340 -17.178   7.004  1.00  0.00     0.183 C 
BRANCH  17  18
HETATM   18  C   UNL     1      43.109 -16.642   6.289  1.00  0.00     0.053 A 
HETATM   19  N   UNL     1      41.874 -16.891   6.803  1.00  0.00    -0.264 NA
HETATM   20  C   UNL     1      40.805 -16.342   6.180  1.00  0.00     0.118 A 
HETATM   21  C   UNL     1      40.899 -15.525   5.073  1.00  0.00     0.043 A 
HETATM   22  C   UNL     1      42.167 -15.268   4.575  1.00  0.00     0.037 A 
HETATM   23 CL   UNL     1      42.356 -14.243   3.206  1.00  0.00    -0.084 Cl
HETATM   24  C   UNL     1      43.290 -15.822   5.179  1.00  0.00     0.052 A 
ENDBRANCH  17  18
ENDBRANCH   3  17
TORSDOF 5
ENDMDL
MODEL 2
REMARK VINA RESULT:      -7.4      1.971      3.905
REMARK  5 active torsions:
REMARK  status: ('A' for Active; 'I' for Inactive)
REMARK    1  A    between atoms: C_2  and  O_3 
REMARK    2  A    between atoms: O_3  and  C_4 
REMARK    3  A    between atoms: C_5  and  N_6 
REMARK       I    between atoms: N_6  and  C_7 
REMARK       I    between atoms: C_7  and  N_8 
REMARK    4  A    between atoms: N_8  and  C_9 
REMARK    5  A    between atoms: C_9  and  C_10 
ROOT
HETATM    1  N   UNL     1      42.784 -18.346   2.053  1.00  0.00    -0.306 N 
HETATM    2  C   UNL     1      43.437 -17.274   1.512  1.00  0.00     0.321 C 
HETATM    3  N   UNL     1      42.641 -16.181   1.289  1.00  0.00    -0.337 N 
HETATM    4  O   UNL     1      44.616 -17.215   1.185  1.00  0.00    -0.247 OA
HETATM    5  H   UNL     1      41.842 -18.435   1.673  1.00  0.00     0.171 HD
HETATM    6  H   UNL     1      43.198 -15.428   0.907  1.00  0.00     0.164 HD
ENDROOT
BRANCH   1   7
HETATM    7  C   UNL     1      43.411 -19.528   2.497  1.00  0.00     0.069 A 
HETATM    8  C   UNL     1      44.062 -19.655   3.733  1.00  0.00     0.096 A 
HETATM    9  C   UNL     1      44.734 -20.840   4.051  1.00  0.00     0.039 A 
HETATM   10  C   UNL     1      44.695 -21.927   3.178  1.00  0.00     0.003 A 
HETATM   11  C   UNL     1      43.984 -21.833   1.986  1.00  0.00     0.002 A 
HETATM   12  C   UNL     1      43.337 -20.642   1.650  1.00  0.00     0.032 A 
BRANCH   8  13
HETATM   13  O   UNL     1      44.082 -18.689   4.707  1.00  0.00    -0.344 OA
BRANCH  13  14
HETATM   14  C   UNL     1      44.707 -19.115   5.928  1.00  0.00     0.121 C 
HETATM   15  C   UNL     1      43.587 -19.532   6.877  1.00  0.00     0.040 C 
HETATM   16  C   UNL     1      45.514 -17.972   6.540  1.00  0.00     0.040 C 
ENDBRANCH  13  14
ENDBRANCH   8  13
ENDBRANCH   1   7
BRANCH   3  17
HETATM   17  C   UNL     1      41.526 -15.794   2.136  1.00  0.00     0.183 C 
BRANCH  17  18
HETATM   18  C   UNL     1      41.766 -15.836   3.638  1.00  0.00     0.053 A 
HETATM   19  N   UNL     1      41.091 -16.741   4.399  1.00  0.00    -0.264 NA
HETATM   20  C   UNL     1      41.378 -16.798   5.720  1.00  0.00     0.118 A 
HETATM   21  C   UNL     1      42.332 -16.011   6.332  1.00  0.00     0.043 A 
HETATM   22  C   UNL     1      43.022 -15.109   5.538  1.00  0.00     0.037 A 
HETATM   23 CL   UNL     1      44.236 -14.110   6.235  1.00  0.00    -0.084 Cl
HETATM   24  C   UNL     1      42.749 -15.011   4.178  1.00  0.00     0.052 A 
ENDBRANCH  17  18
ENDBRANCH   3  17
TORSDOF 5
ENDMDL
MODEL 3
REMARK VINA RESULT:      -7.2      2.805      4.542
REMARK  5 active torsions:
REMARK  status: ('A' for Active; 'I' for Inactive)
REMARK    1  A    between atoms: C_2  and  O_3 
REMARK    2  A    between atoms: O_3  and  C_4 
REMARK    3  A    between atoms: C_5  and  N_6 
REMARK       I    between atoms: N_6  and  C_7 
REMARK       I    between atoms: C_7  and  N_8 
REMARK    4  A    between atoms: N_8  and  C_9 
REMARK    5  A    between atoms: C_9  and  C_10 
ROOT
HETATM    1  N   UNL     1      42.900 -18.638   1.568  1.00  0.00    -0.306 N 
HETATM    2  C   UNL     1      43.458 -17.480   1.103  1.00  0.00     0.321 C 
HETATM    3  N   UNL     1      42.615 -16.710   0.347  1.00  0.00    -0.337 N 
HETATM    4  O   UNL     1      44.613 -17.101   1.263  1.00  0.00    -0.247 OA
HETATM    5  H   UNL     1      42.270 -19.047   0.879  1.00  0.00     0.171 HD
HETATM    6  H   UNL     1      43.094 -15.867   0.056  1.00  0.00     0.164 HD
ENDROOT
BRANCH   1   7
HETATM    7  C   UNL     1      43.519 -19.521   2.476  1.00  0.00     0.069 A 
HETATM    8  C   UNL     1      43.850 -19.185   3.797  1.00  0.00     0.096 A 
HETATM    9  C   UNL     1      44.545 -20.098   4.597  1.00  0.00     0.039 A 
HETATM   10  C   UNL     1      44.843 -21.372   4.116  1.00  0.00     0.003 A 
HETATM   11  C   UNL     1      44.446 -21.738   2.833  1.00  0.00     0.002 A 
HETATM   12  C   UNL     1      43.780 -20.820   2.019  1.00  0.00     0.032 A 
BRANCH   8  13
HETATM   13  O   UNL     1      43.522 -18.000   4.406  1.00  0.00    -0.344 OA
BRANCH  13  14
HETATM   14  C   UNL     1      42.697 -18.161   5.571  1.00  0.00     0.121 C 
HETATM   15  C   UNL     1      41.259 -17.894   5.135  1.00  0.00     0.040 C 
HETATM   16  C   UNL     1      43.108 -17.168   6.656  1.00  0.00     0.040 C 
ENDBRANCH  13  14
ENDBRANCH   8  13
ENDBRANCH   1   7
BRANCH   3  17
HETATM   17  C   UNL     1      41.185 -16.593   0.576  1.00  0.00     0.183 C 
BRANCH  17  18
HETATM   18  C   UNL     1      40.718 -15.368   1.347  1.00  0.00     0.053 A 
HETATM   19  N   UNL     1      40.380 -14.238   0.666  1.00  0.00    -0.264 NA
HETATM   20  C   UNL     1      39.903 -13.189   1.377  1.00  0.00     0.118 A 
HETATM   21  C   UNL     1      39.717 -13.209   2.743  1.00  0.00     0.043 A 
HETATM   22  C   UNL     1      40.049 -14.375   3.416  1.00  0.00     0.037 A 
HETATM   23 CL   UNL     1      39.824 -14.473   5.119  1.00  0.00    -0.084 Cl
HETATM   24  C   UNL     1      40.552 -15.471   2.725  1.00  0.00     0.052 A 
ENDBRANCH  17  18
ENDBRANCH   3  17
TORSDOF 5
ENDMDL
MODEL 4
REMARK VINA RESULT:      -7.1      2.409      4.342
REMARK  5 active torsions:
REMARK  status: ('A' for Active; 'I' for Inactive)
REMARK    1  A    between atoms: C_2  and  O_3 
REMARK    2  A    between atoms: O_3  and  C_4 
REMARK    3  A    between atoms: C_5  and  N_6 
REMARK       I    between atoms: N_6  and  C_7 
REMARK       I    between atoms: C_7  and  N_8 
REMARK    4  A    between atoms: N_8  and  C_9 
REMARK    5  A    between atoms: C_9  and  C_10 
ROOT
HETATM    1  N   UNL     1      43.047 -17.370   4.171  1.00  0.00    -0.306 N 
HETATM    2  C   UNL     1      41.847 -17.161   4.792  1.00  0.00     0.321 C 
HETATM    3  N   UNL     1      41.573 -15.847   5.064  1.00  0.00    -0.337 N 
HETATM    4  O   UNL     1      41.043 -18.013   5.149  1.00  0.00    -0.247 OA
HETATM    5  H   UNL     1      43.760 -16.732   4.522  1.00  0.00     0.171 HD
HETATM    6  H   UNL     1      40.665 -15.774   5.505  1.00  0.00     0.164 HD
ENDROOT
BRANCH   1   7
HETATM    7  C   UNL     1      43.486 -18.611   3.669  1.00  0.00     0.069 A 
HETATM    8  C   UNL     1      44.316 -19.495   4.375  1.00  0.00     0.096 A 
HETATM    9  C   UNL     1      44.773 -20.666   3.761  1.00  0.00     0.039 A 
HETATM   10  C   UNL     1      44.345 -21.002   2.477  1.00  0.00     0.003 A 
HETATM   11  C   UNL     1      43.458 -20.167   1.802  1.00  0.00     0.002 A 
HETATM   12  C   UNL     1      43.023 -18.981   2.399  1.00  0.00     0.032 A 
BRANCH   8  13
HETATM   13  O   UNL     1      44.720 -19.316   5.673  1.00  0.00    -0.344 OA
BRANCH  13  14
HETATM   14  C   UNL     1      43.696 -19.603   6.639  1.00  0.00     0.121 C 
HETATM   15  C   UNL     1      43.931 -18.671   7.824  1.00  0.00     0.040 C 
HETATM   16  C   UNL     1      43.784 -21.059   7.092  1.00  0.00     0.040 C 
ENDBRANCH  13  14
ENDBRANCH   8  13
ENDBRANCH   1   7
BRANCH   3  17
HETATM   17  C   UNL     1      41.970 -14.735   4.217  1.00  0.00     0.183 C 
BRANCH  17  18
HETATM   18  C   UNL     1      41.436 -14.741   2.792  1.00  0.00     0.053 A 
HETATM   19  N   UNL     1      42.270 -15.066   1.766  1.00  0.00    -0.264 NA
HETATM   20  C   UNL     1      41.747 -15.128   0.520  1.00  0.00     0.118 A 
HETATM   21  C   UNL     1      40.416 -14.907   0.234  1.00  0.00     0.043 A 
HETATM   22  C   UNL     1      39.579 -14.595   1.294  1.00  0.00     0.037 A 
HETATM   23 CL   UNL     1      37.904 -14.324   1.010  1.00  0.00    -0.084 Cl
HETATM   24  C   UNL     1      40.079 -14.510   2.589  1.00  0.00     0.052 A 
ENDBRANCH  17  18
ENDBRANCH   3  17
TORSDOF 5
ENDMDL
MODEL 5
REMARK VINA RESULT:      -7.1      2.977      5.557
REMARK  5 active torsions:
REMARK  status: ('A' for Active; 'I' for Inactive)
REMARK    1  A    between atoms: C_2  and  O_3 
REMARK    2  A    between atoms: O_3  and  C_4 
REMARK    3  A    between atoms: C_5  and  N_6 
REMARK       I    between atoms: N_6  and  C_7 
REMARK       I    between atoms: C_7  and  N_8 
REMARK    4  A    between atoms: N_8  and  C_9 
REMARK    5  A    between atoms: C_9  and  C_10 
ROOT
HETATM    1  N   UNL     1      39.900 -15.519   3.691  1.00  0.00    -0.306 N 
HETATM    2  C   UNL     1      40.198 -14.734   4.770  1.00  0.00     0.321 C 
HETATM    3  N   UNL     1      40.137 -15.383   5.975  1.00  0.00    -0.337 N 
HETATM    4  O   UNL     1      40.467 -13.539   4.762  1.00  0.00    -0.247 OA
HETATM    5  H   UNL     1      39.155 -16.179   3.910  1.00  0.00     0.171 HD
HETATM    6  H   UNL     1      40.387 -14.743   6.718  1.00  0.00     0.164 HD
ENDROOT
BRANCH   1   7
HETATM    7  C   UNL     1      40.028 -15.117   2.346  1.00  0.00     0.069 A 
HETATM    8  C   UNL     1      41.210 -15.236   1.600  1.00  0.00     0.096 A 
HETATM    9  C   UNL     1      41.268 -14.728   0.298  1.00  0.00     0.039 A 
HETATM   10  C   UNL     1      40.133 -14.173  -0.294  1.00  0.00     0.003 A 
HETATM   11  C   UNL     1      38.936 -14.126   0.415  1.00  0.00     0.002 A 
HETATM   12  C   UNL     1      38.881 -14.603   1.726  1.00  0.00     0.032 A 
BRANCH   8  13
HETATM   13  O   UNL     1      42.353 -15.848   2.044  1.00  0.00    -0.344 OA
BRANCH  13  14
HETATM   14  C   UNL     1      42.778 -16.944   1.217  1.00  0.00     0.121 C 
HETATM   15  C   UNL     1      41.907 -18.141   1.587  1.00  0.00     0.040 C 
HETATM   16  C   UNL     1      44.248 -17.267   1.473  1.00  0.00     0.040 C 
ENDBRANCH  13  14
ENDBRANCH   8  13
ENDBRANCH   1   7
BRANCH   3  17
HETATM   17  C   UNL     1      40.499 -16.776   6.174  1.00  0.00     0.183 C 
BRANCH  17  18
HETATM   18  C   UNL     1      41.981 -17.112   6.099  1.00  0.00     0.053 A 
HETATM   19  N   UNL     1      42.849 -16.505   6.955  1.00  0.00    -0.264 NA
HETATM   20  C   UNL     1      44.149 -16.877   6.908  1.00  0.00     0.118 A 
HETATM   21  C   UNL     1      44.639 -17.851   6.061  1.00  0.00     0.043 A 
HETATM   22  C   UNL     1      43.736 -18.470   5.210  1.00  0.00     0.037 A 
HETATM   23 CL   UNL     1      44.278 -19.705   4.142  1.00  0.00    -0.084 Cl
HETATM   24  C   UNL     1      42.394 -18.109   5.220  1.00  0.00     0.052 A 
ENDBRANCH  17  18
ENDBRANCH   3  17
TORSDOF 5
ENDMDL
MODEL 6
REMARK VINA RESULT:      -6.8      3.013      6.669
REMARK  5 active torsions:
REMARK  status: ('A' for Active; 'I' for Inactive)
REMARK    1  A    between atoms: C_2  and  O_3 
REMARK    2  A    between atoms: O_3  and  C_4 
REMARK    3  A    between atoms: C_5  and  N_6 
REMARK       I    between atoms: N_6  and  C_7 
REMARK       I    between atoms: C_7  and  N_8 
REMARK    4  A    between atoms: N_8  and  C_9 
REMARK    5  A    between atoms: C_9  and  C_10 
ROOT
HETATM    1  N   UNL     1      41.566 -15.225   2.470  1.00  0.00    -0.306 N 
HETATM    2  C   UNL     1      41.012 -16.326   1.878  1.00  0.00     0.321 C 
HETATM    3  N   UNL     1      41.849 -16.986   1.017  1.00  0.00    -0.337 N 
HETATM    4  O   UNL     1      39.867 -16.739   2.012  1.00  0.00    -0.247 OA
HETATM    5  H   UNL     1      42.176 -14.726   1.824  1.00  0.00     0.171 HD
HETATM    6  H   UNL     1      41.375 -17.794   0.636  1.00  0.00     0.164 HD
ENDROOT
BRANCH   1   7
HETATM    7  C   UNL     1      40.954 -14.469   3.490  1.00  0.00     0.069 A 
HETATM    8  C   UNL     1      41.149 -14.695   4.861  1.00  0.00     0.096 A 
HETATM    9  C   UNL     1      40.430 -13.951   5.801  1.00  0.00     0.039 A 
HETATM   10  C   UNL     1      39.577 -12.928   5.387  1.00  0.00     0.003 A 
HETATM   11  C   UNL     1      39.441 -12.646   4.031  1.00  0.00     0.002 A 
HETATM   12  C   UNL     1      40.133 -13.407   3.086  1.00  0.00     0.032 A 
BRANCH   8  13
HETATM   13  O   UNL     1      42.033 -15.605   5.382  1.00  0.00    -0.344 OA
BRANCH  13  14
HETATM   14  C   UNL     1      41.406 -16.624   6.178  1.00  0.00     0.121 C 
HETATM   15  C   UNL     1      42.457 -17.122   7.168  1.00  0.00     0.040 C 
HETATM   16  C   UNL     1      40.934 -17.776   5.294  1.00  0.00     0.040 C 
ENDBRANCH  13  14
ENDBRANCH   8  13
ENDBRANCH   1   7
BRANCH   3  17
HETATM   17  C   UNL     1      43.285 -17.108   1.203  1.00  0.00     0.183 C 
BRANCH  17  18
HETATM   18  C   UNL     1      43.754 -18.145   2.213  1.00  0.00     0.053 A 
HETATM   19  N   UNL     1      44.000 -17.766   3.497  1.00  0.00    -0.264 NA
HETATM   20  C   UNL     1      44.350 -18.725   4.385  1.00  0.00     0.118 A 
HETATM   21  C   UNL     1      44.446 -20.065   4.069  1.00  0.00     0.043 A 
HETATM   22  C   UNL     1      44.173 -20.434   2.761  1.00  0.00     0.037 A 
HETATM   23 CL   UNL     1      44.257 -22.090   2.305  1.00  0.00    -0.084 Cl
HETATM   24  C   UNL     1      43.821 -19.477   1.816  1.00  0.00     0.052 A 
ENDBRANCH  17  18
ENDBRANCH   3  17
TORSDOF 5
ENDMDL
MODEL 7
REMARK VINA RESULT:      -6.8      2.383      3.200
REMARK  5 active torsions:
REMARK  status: ('A' for Active; 'I' for Inactive)
REMARK    1  A    between atoms: C_2  and  O_3 
REMARK    2  A    between atoms: O_3  and  C_4 
REMARK    3  A    between atoms: C_5  and  N_6 
REMARK       I    between atoms: N_6  and  C_7 
REMARK       I    between atoms: C_7  and  N_8 
REMARK    4  A    between atoms: N_8  and  C_9 
REMARK    5  A    between atoms: C_9  and  C_10 
ROOT
HETATM    1  N   UNL     1      43.535 -16.795   5.032  1.00  0.00    -0.306 N 
HETATM    2  C   UNL     1      42.386 -16.580   5.741  1.00  0.00     0.321 C 
HETATM    3  N   UNL     1      42.339 -15.374   6.389  1.00  0.00    -0.337 N 
HETATM    4  O   UNL     1      41.447 -17.355   5.878  1.00  0.00    -0.247 OA
HETATM    5  H   UNL     1      44.345 -16.412   5.518  1.00  0.00     0.171 HD
HETATM    6  H   UNL     1      41.455 -15.284   6.873  1.00  0.00     0.164 HD
ENDROOT
BRANCH   1   7
HETATM    7  C   UNL     1      43.758 -17.894   4.178  1.00  0.00     0.069 A 
HETATM    8  C   UNL     1      43.397 -17.921   2.822  1.00  0.00     0.096 A 
HETATM    9  C   UNL     1      43.577 -19.088   2.074  1.00  0.00     0.039 A 
HETATM   10  C   UNL     1      44.187 -20.205   2.646  1.00  0.00     0.003 A 
HETATM   11  C   UNL     1      44.619 -20.156   3.968  1.00  0.00     0.002 A 
HETATM   12  C   UNL     1      44.413 -19.003   4.729  1.00  0.00     0.032 A 
BRANCH   8  13
HETATM   13  O   UNL     1      42.882 -16.854   2.132  1.00  0.00    -0.344 OA
BRANCH  13  14
HETATM   14  C   UNL     1      41.580 -17.102   1.576  1.00  0.00     0.121 C 
HETATM   15  C   UNL     1      41.557 -16.454   0.194  1.00  0.00     0.040 C 
HETATM   16  C   UNL     1      40.497 -16.489   2.460  1.00  0.00     0.040 C 
ENDBRANCH  13  14
ENDBRANCH   8  13
ENDBRANCH   1   7
BRANCH   3  17
HETATM   17  C   UNL     1      42.923 -14.146   5.876  1.00  0.00     0.183 C 
BRANCH  17  18
HETATM   18  C   UNL     1      42.357 -13.619   4.566  1.00  0.00     0.053 A 
HETATM   19  N   UNL     1      43.083 -13.750   3.422  1.00  0.00    -0.264 NA
HETATM   20  C   UNL     1      42.521 -13.332   2.264  1.00  0.00     0.118 A 
HETATM   21  C   UNL     1      41.249 -12.806   2.174  1.00  0.00     0.043 A 
HETATM   22  C   UNL     1      40.519 -12.697   3.347  1.00  0.00     0.037 A 
HETATM   23 CL   UNL     1      38.919 -12.065   3.303  1.00  0.00    -0.084 Cl
HETATM   24  C   UNL     1      41.063 -13.105   4.560  1.00  0.00     0.052 A 
ENDBRANCH  17  18
ENDBRANCH   3  17
TORSDOF 5
ENDMDL
MODEL 8
REMARK VINA RESULT:      -6.8      5.903      8.880
REMARK  5 active torsions:
REMARK  status: ('A' for Active; 'I' for Inactive)
REMARK    1  A    between atoms: C_2  and  O_3 
REMARK    2  A    between atoms: O_3  and  C_4 
REMARK    3  A    between atoms: C_5  and  N_6 
REMARK       I    between atoms: N_6  and  C_7 
REMARK       I    between atoms: C_7  and  N_8 
REMARK    4  A    between atoms: N_8  and  C_9 
REMARK    5  A    between atoms: C_9  and  C_10 
ROOT
HETATM    1  N   UNL     1      44.187 -12.727   9.022  1.00  0.00    -0.306 N 
HETATM    2  C   UNL     1      45.366 -12.635   8.335  1.00  0.00     0.321 C 
HETATM    3  N   UNL     1      45.506 -13.551   7.326  1.00  0.00    -0.337 N 
HETATM    4  O   UNL     1      46.291 -11.862   8.556  1.00  0.00    -0.247 OA
HETATM    5  H   UNL     1      43.901 -13.699   9.133  1.00  0.00     0.171 HD
HETATM    6  H   UNL     1      46.391 -13.406   6.857  1.00  0.00     0.164 HD
ENDROOT
BRANCH   1   7
HETATM    7  C   UNL     1      43.757 -11.814  10.005  1.00  0.00     0.069 A 
HETATM    8  C   UNL     1      43.175 -10.569   9.720  1.00  0.00     0.096 A 
HETATM    9  C   UNL     1      42.860  -9.691  10.761  1.00  0.00     0.039 A 
HETATM   10  C   UNL     1      43.048 -10.074  12.089  1.00  0.00     0.003 A 
HETATM   11  C   UNL     1      43.551 -11.339  12.379  1.00  0.00     0.002 A 
HETATM   12  C   UNL     1      43.896 -12.209  11.342  1.00  0.00     0.032 A 
BRANCH   8  13
HETATM   13  O   UNL     1      42.855 -10.128   8.461  1.00  0.00    -0.344 OA
BRANCH  13  14
HETATM   14  C   UNL     1      41.448  -9.910   8.268  1.00  0.00     0.121 C 
HETATM   15  C   UNL     1      40.949 -11.024   7.352  1.00  0.00     0.040 C 
HETATM   16  C   UNL     1      41.205  -8.549   7.619  1.00  0.00     0.040 C 
ENDBRANCH  13  14
ENDBRANCH   8  13
ENDBRANCH   1   7
BRANCH   3  17
HETATM   17  C   UNL     1      44.411 -14.037   6.504  1.00  0.00     0.183 C 
BRANCH  17  18
HETATM   18  C   UNL     1      43.955 -15.466   6.753  1.00  0.00     0.053 A 
HETATM   19  N   UNL     1      43.853 -15.923   8.032  1.00  0.00    -0.264 NA
HETATM   20  C   UNL     1      43.380 -17.177   8.220  1.00  0.00     0.118 A 
HETATM   21  C   UNL     1      42.972 -18.006   7.196  1.00  0.00     0.043 A 
HETATM   22  C   UNL     1      43.065 -17.516   5.902  1.00  0.00     0.037 A 
HETATM   23 CL   UNL     1      42.557 -18.491   4.580  1.00  0.00    -0.084 Cl
HETATM   24  C   UNL     1      43.557 -16.237   5.665  1.00  0.00     0.052 A 
ENDBRANCH  17  18
ENDBRANCH   3  17
TORSDOF 5
ENDMDL
MODEL 9
REMARK VINA RESULT:      -6.7      2.145      3.335
REMARK  5 active torsions:
REMARK  status: ('A' for Active; 'I' for Inactive)
REMARK    1  A    between atoms: C_2  and  O_3 
REMARK    2  A    between atoms: O_3  and  C_4 
REMARK    3  A    between atoms: C_5  and  N_6 
REMARK       I    between atoms: N_6  and  C_7 
REMARK       I    between atoms: C_7  and  N_8 
REMARK    4  A    between atoms: N_8  and  C_9 
REMARK    5  A    between atoms: C_9  and  C_10 
ROOT
HETATM    1  N   UNL     1      43.131 -17.952   5.523  1.00  0.00    -0.306 N 
HETATM    2  C   UNL     1      43.684 -16.823   6.062  1.00  0.00     0.321 C 
HETATM    3  N   UNL     1      42.943 -15.686   5.875  1.00  0.00    -0.337 N 
HETATM    4  O   UNL     1      44.759 -16.732   6.643  1.00  0.00    -0.247 OA
HETATM    5  H   UNL     1      42.671 -17.749   4.637  1.00  0.00     0.171 HD
HETATM    6  H   UNL     1      43.407 -14.903   6.315  1.00  0.00     0.164 HD
ENDROOT
BRANCH   1   7
HETATM    7  C   UNL     1      43.633 -19.256   5.703  1.00  0.00     0.069 A 
HETATM    8  C   UNL     1      44.380 -19.951   4.740  1.00  0.00     0.096 A 
HETATM    9  C   UNL     1      44.761 -21.276   4.974  1.00  0.00     0.039 A 
HETATM   10  C   UNL     1      44.471 -21.889   6.193  1.00  0.00     0.003 A 
HETATM   11  C   UNL     1      43.800 -21.177   7.183  1.00  0.00     0.002 A 
HETATM   12  C   UNL     1      43.390 -19.863   6.943  1.00  0.00     0.032 A 
BRANCH   8  13
HETATM   13  O   UNL     1      44.805 -19.418   3.550  1.00  0.00    -0.344 OA
BRANCH  13  14
HETATM   14  C   UNL     1      43.736 -19.143   2.629  1.00  0.00     0.121 C 
HETATM   15  C   UNL     1      43.516 -20.415   1.814  1.00  0.00     0.040 C 
HETATM   16  C   UNL     1      44.114 -17.988   1.704  1.00  0.00     0.040 C 
ENDBRANCH  13  14
ENDBRANCH   8  13
ENDBRANCH   1   7
BRANCH   3  17
HETATM   17  C   UNL     1      41.490 -15.649   5.855  1.00  0.00     0.183 C 
BRANCH  17  18
HETATM   18  C   UNL     1      40.831 -15.518   4.490  1.00  0.00     0.053 A 
HETATM   19  N   UNL     1      40.146 -14.382   4.184  1.00  0.00    -0.264 NA
HETATM   20  C   UNL     1      39.630 -14.270   2.938  1.00  0.00     0.118 A 
HETATM   21  C   UNL     1      39.782 -15.226   1.956  1.00  0.00     0.043 A 
HETATM   22  C   UNL     1      40.498 -16.368   2.281  1.00  0.00     0.037 A 
HETATM   23 CL   UNL     1      40.739 -17.592   1.097  1.00  0.00    -0.084 Cl
HETATM   24  C   UNL     1      41.035 -16.527   3.554  1.00  0.00     0.052 A 
ENDBRANCH  17  18
ENDBRANCH   3  17
TORSDOF 5
ENDMDL
MODEL 10
REMARK VINA RESULT:      -6.7      3.069      5.178
REMARK  5 active torsions:
REMARK  status: ('A' for Active; 'I' for Inactive)
REMARK    1  A    between atoms: C_2  and  O_3 
REMARK    2  A    between atoms: O_3  and  C_4 
REMARK    3  A    between atoms: C_5  and  N_6 
REMARK       I    between atoms: N_6  and  C_7 
REMARK       I    between atoms: C_7  and  N_8 
REMARK    4  A    between atoms: N_8  and  C_9 
REMARK    5  A    between atoms: C_9  and  C_10 
ROOT
HETATM    1  N   UNL     1      42.141 -16.164   4.104  1.00  0.00    -0.306 N 
HETATM    2  C   UNL     1      40.912 -15.792   4.576  1.00  0.00     0.321 C 
HETATM    3  N   UNL     1      40.098 -15.215   3.638  1.00  0.00    -0.337 N 
HETATM    4  O   UNL     1      40.503 -15.888   5.727  1.00  0.00    -0.247 OA
HETATM    5  H   UNL     1      42.494 -15.491   3.425  1.00  0.00     0.171 HD
HETATM    6  H   UNL     1      39.206 -14.985   4.059  1.00  0.00     0.164 HD
ENDROOT
BRANCH   1   7
HETATM    7  C   UNL     1      43.094 -16.897   4.839  1.00  0.00     0.069 A 
HETATM    8  C   UNL     1      43.424 -18.236   4.582  1.00  0.00     0.096 A 
HETATM    9  C   UNL     1      44.318 -18.908   5.421  1.00  0.00     0.039 A 
HETATM   10  C   UNL     1      44.948 -18.233   6.466  1.00  0.00     0.003 A 
HETATM   11  C   UNL     1      44.685 -16.882   6.676  1.00  0.00     0.002 A 
HETATM   12  C   UNL     1      43.769 -16.215   5.860  1.00  0.00     0.032 A 
BRANCH   8  13
HETATM   13  O   UNL     1      42.942 -18.969   3.528  1.00  0.00    -0.344 OA
BRANCH  13  14
HETATM   14  C   UNL     1      43.929 -19.247   2.522  1.00  0.00     0.121 C 
HETATM   15  C   UNL     1      43.785 -18.169   1.451  1.00  0.00     0.040 C 
HETATM   16  C   UNL     1      43.694 -20.626   1.910  1.00  0.00     0.040 C 
ENDBRANCH  13  14
ENDBRANCH   8  13
ENDBRANCH   1   7
BRANCH   3  17
HETATM   17  C   UNL     1      40.073 -15.589   2.234  1.00  0.00     0.183 C 
BRANCH  17  18
HETATM   18  C   UNL     1      40.687 -14.599   1.256  1.00  0.00     0.053 A 
HETATM   19  N   UNL     1      41.281 -13.469   1.730  1.00  0.00    -0.264 NA
HETATM   20  C   UNL     1      41.877 -12.645   0.838  1.00  0.00     0.118 A 
HETATM   21  C   UNL     1      41.940 -12.897  -0.517  1.00  0.00     0.043 A 
HETATM   22  C   UNL     1      41.346 -14.061  -0.978  1.00  0.00     0.037 A 
HETATM   23 CL   UNL     1      41.404 -14.444  -2.654  1.00  0.00    -0.084 Cl
HETATM   24  C   UNL     1      40.713 -14.929  -0.096  1.00  0.00     0.052 A 
ENDBRANCH  17  18
ENDBRANCH   3  17
TORSDOF 5
ENDMDL
