MODEL 1
REMARK VINA RESULT:      -8.7      0.000      0.000
REMARK  6 active torsions:
REMARK  status: ('A' for Active; 'I' for Inactive)
REMARK    1  A    between atoms: C_9  and  C_10 
REMARK    2  A    between atoms: C_10  and  N_11 
REMARK       I    between atoms: N_11  and  C_12 
REMARK    3  A    between atoms: N_11  and  C_22 
REMARK    4  A    between atoms: C_12  and  C_13 
REMARK    5  A    between atoms: C_15  and  O_16 
REMARK    6  A    between atoms: C_22  and  C_23 
ROOT
HETATM    1  N   UNL     1      43.326 -15.518   5.824  1.00  0.00    -0.341 N 
HETATM    2  C   UNL     1      43.759 -14.224   5.481  1.00  0.00     0.254 C 
HETATM    3  O   UNL     1      44.797 -13.716   5.900  1.00  0.00    -0.267 OA
ENDROOT
BRANCH   1   4
HETATM    4  C   UNL     1      44.273 -16.309   6.617  1.00  0.00     0.170 C 
BRANCH   4   5
HETATM    5  C   UNL     1      44.240 -17.768   6.252  1.00  0.00     0.029 A 
HETATM    6  C   UNL     1      44.230 -18.765   7.366  1.00  0.00     0.253 A 
HETATM    7  N   UNL     1      44.222 -20.092   7.017  1.00  0.00    -0.322 N 
HETATM    8  O   UNL     1      44.240 -18.434   8.550  1.00  0.00    -0.268 OA
HETATM    9  C   UNL     1      44.291 -20.548   5.696  1.00  0.00     0.045 A 
HETATM   10  H   UNL     1      44.205 -20.750   7.782  1.00  0.00     0.169 HD
HETATM   11  C   UNL     1      44.341 -19.617   4.654  1.00  0.00    -0.008 A 
HETATM   12  C   UNL     1      44.335 -21.915   5.430  1.00  0.00     0.031 A 
HETATM   13  C   UNL     1      44.462 -20.065   3.335  1.00  0.00     0.020 A 
HETATM   14  C   UNL     1      44.290 -18.194   4.976  1.00  0.00     0.028 A 
HETATM   15  C   UNL     1      44.543 -21.436   3.055  1.00  0.00    -0.061 A 
HETATM   16  C   UNL     1      44.670 -21.913   1.638  1.00  0.00     0.048 C 
HETATM   17  C   UNL     1      44.456 -22.356   4.109  1.00  0.00     0.009 A 
ENDBRANCH   4   5
ENDBRANCH   1   4
BRANCH   1  18
HETATM   18  C   UNL     1      41.879 -15.739   6.048  1.00  0.00     0.158 C 
BRANCH  18  19
HETATM   19  C   UNL     1      41.074 -16.358   4.893  1.00  0.00     0.139 C 
HETATM   20  O   UNL     1      40.140 -15.392   4.356  1.00  0.00    -0.384 OA
HETATM   21  C   UNL     1      40.113 -15.519   2.928  1.00  0.00     0.168 C 
HETATM   22  C   UNL     1      40.950 -16.729   2.577  1.00  0.00     0.029 C 
HETATM   23  C   UNL     1      41.943 -16.762   3.710  1.00  0.00     0.035 C 
ENDBRANCH  18  19
ENDBRANCH   1  18
BRANCH   2  24
HETATM   24  C   UNL     1      42.936 -13.416   4.548  1.00  0.00     0.034 A 
HETATM   25  C   UNL     1      43.118 -13.588   3.170  1.00  0.00     0.053 A 
HETATM   26  C   UNL     1      42.334 -12.869   2.270  1.00  0.00     0.069 A 
HETATM   27  C   UNL     1      41.373 -11.977   2.758  1.00  0.00     0.037 A 
HETATM   28  C   UNL     1      41.169 -11.826   4.131  1.00  0.00     0.004 A 
HETATM   29  C   UNL     1      41.940 -12.558   5.031  1.00  0.00     0.017 A 
BRANCH  26  30
HETATM   30  O   UNL     1      42.410 -12.939   0.905  1.00  0.00    -0.356 OA
HETATM   31  C   UNL     1      41.957 -11.798   0.185  1.00  0.00     0.210 C 
ENDBRANCH  26  30
ENDBRANCH   2  24
TORSDOF 6
ENDMDL
MODEL 2
REMARK VINA RESULT:      -8.6      3.681      5.505
REMARK  6 active torsions:
REMARK  status: ('A' for Active; 'I' for Inactive)
REMARK    1  A    between atoms: C_9  and  C_10 
REMARK    2  A    between atoms: C_10  and  N_11 
REMARK       I    between atoms: N_11  and  C_12 
REMARK    3  A    between atoms: N_11  and  C_22 
REMARK    4  A    between atoms: C_12  and  C_13 
REMARK    5  A    between atoms: C_15  and  O_16 
REMARK    6  A    between atoms: C_22  and  C_23 
ROOT
HETATM    1  N   UNL     1      41.148 -15.006   0.615  1.00  0.00    -0.341 N 
HETATM    2  C   UNL     1      41.311 -14.357  -0.623  1.00  0.00     0.254 C 
HETATM    3  O   UNL     1      42.138 -13.470  -0.828  1.00  0.00    -0.267 OA
ENDROOT
BRANCH   1   4
HETATM    4  C   UNL     1      42.137 -14.662   1.641  1.00  0.00     0.170 C 
BRANCH   4   5
HETATM    5  C   UNL     1      42.652 -15.877   2.364  1.00  0.00     0.029 A 
HETATM    6  C   UNL     1      43.109 -15.705   3.777  1.00  0.00     0.253 A 
HETATM    7  N   UNL     1      43.595 -16.818   4.415  1.00  0.00    -0.322 N 
HETATM    8  O   UNL     1      43.070 -14.623   4.358  1.00  0.00    -0.268 OA
HETATM    9  C   UNL     1      43.746 -18.065   3.798  1.00  0.00     0.045 A 
HETATM   10  H   UNL     1      43.890 -16.685   5.372  1.00  0.00     0.169 HD
HETATM   11  C   UNL     1      43.357 -18.217   2.464  1.00  0.00    -0.008 A 
HETATM   12  C   UNL     1      44.301 -19.131   4.502  1.00  0.00     0.031 A 
HETATM   13  C   UNL     1      43.551 -19.446   1.826  1.00  0.00     0.020 A 
HETATM   14  C   UNL     1      42.776 -17.075   1.763  1.00  0.00     0.028 A 
HETATM   15  C   UNL     1      44.142 -20.516   2.511  1.00  0.00    -0.061 A 
HETATM   16  C   UNL     1      44.347 -21.834   1.823  1.00  0.00     0.048 C 
HETATM   17  C   UNL     1      44.494 -20.356   3.858  1.00  0.00     0.009 A 
ENDBRANCH   4   5
ENDBRANCH   1   4
BRANCH   1  18
HETATM   18  C   UNL     1      39.774 -15.338   1.058  1.00  0.00     0.158 C 
BRANCH  18  19
HETATM   19  C   UNL     1      38.891 -14.176   1.543  1.00  0.00     0.139 C 
HETATM   20  O   UNL     1      39.558 -12.912   1.323  1.00  0.00    -0.384 OA
HETATM   21  C   UNL     1      38.592 -11.952   0.873  1.00  0.00     0.168 C 
HETATM   22  C   UNL     1      37.234 -12.612   0.973  1.00  0.00     0.029 C 
HETATM   23  C   UNL     1      37.579 -14.066   0.778  1.00  0.00     0.035 C 
ENDBRANCH  18  19
ENDBRANCH   1  18
BRANCH   2  24
HETATM   24  C   UNL     1      40.455 -14.764  -1.765  1.00  0.00     0.034 A 
HETATM   25  C   UNL     1      39.431 -13.900  -2.178  1.00  0.00     0.053 A 
HETATM   26  C   UNL     1      38.635 -14.239  -3.269  1.00  0.00     0.069 A 
HETATM   27  C   UNL     1      38.865 -15.445  -3.939  1.00  0.00     0.037 A 
HETATM   28  C   UNL     1      39.905 -16.293  -3.548  1.00  0.00     0.004 A 
HETATM   29  C   UNL     1      40.713 -15.946  -2.468  1.00  0.00     0.017 A 
BRANCH  26  30
HETATM   30  O   UNL     1      37.604 -13.492  -3.773  1.00  0.00    -0.356 OA
HETATM   31  C   UNL     1      36.536 -14.211  -4.380  1.00  0.00     0.210 C 
ENDBRANCH  26  30
ENDBRANCH   2  24
TORSDOF 6
ENDMDL
MODEL 3
REMARK VINA RESULT:      -8.6      1.784      2.679
REMARK  6 active torsions:
REMARK  status: ('A' for Active; 'I' for Inactive)
REMARK    1  A    between atoms: C_9  and  C_10 
REMARK    2  A    between atoms: C_10  and  N_11 
REMARK       I    between atoms: N_11  and  C_12 
REMARK    3  A    between atoms: N_11  and  C_22 
REMARK    4  A    between atoms: C_12  and  C_13 
REMARK    5  A    between atoms: C_15  and  O_16 
REMARK    6  A    between atoms: C_22  and  C_23 
ROOT
HETATM    1  N   UNL     1      42.462 -15.137   4.195  1.00  0.00    -0.341 N 
HETATM    2  C   UNL     1      43.063 -14.223   3.308  1.00  0.00     0.254 C 
HETATM    3  O   UNL     1      44.171 -13.721   3.489  1.00  0.00    -0.267 OA
ENDROOT
BRANCH   1   4
HETATM    4  C   UNL     1      43.308 -15.583   5.307  1.00  0.00     0.170 C 
BRANCH   4   5
HETATM    5  C   UNL     1      43.615 -17.054   5.233  1.00  0.00     0.029 A 
HETATM    6  C   UNL     1      44.087 -17.731   6.479  1.00  0.00     0.253 A 
HETATM    7  N   UNL     1      44.383 -19.068   6.389  1.00  0.00    -0.322 N 
HETATM    8  O   UNL     1      44.222 -17.134   7.545  1.00  0.00    -0.268 OA
HETATM    9  C   UNL     1      44.331 -19.797   5.196  1.00  0.00     0.045 A 
HETATM   10  H   UNL     1      44.691 -19.509   7.243  1.00  0.00     0.169 HD
HETATM   11  C   UNL     1      43.929 -19.156   4.022  1.00  0.00    -0.008 A 
HETATM   12  C   UNL     1      44.703 -21.140   5.182  1.00  0.00     0.031 A 
HETATM   13  C   UNL     1      43.923 -19.865   2.817  1.00  0.00     0.020 A 
HETATM   14  C   UNL     1      43.544 -17.748   4.082  1.00  0.00     0.028 A 
HETATM   15  C   UNL     1      44.329 -21.206   2.780  1.00  0.00    -0.061 A 
HETATM   16  C   UNL     1      44.320 -21.965   1.486  1.00  0.00     0.048 C 
HETATM   17  C   UNL     1      44.697 -21.843   3.974  1.00  0.00     0.009 A 
ENDBRANCH   4   5
ENDBRANCH   1   4
BRANCH   1  18
HETATM   18  C   UNL     1      41.004 -15.032   4.429  1.00  0.00     0.158 C 
BRANCH  18  19
HETATM   19  C   UNL     1      40.518 -13.897   5.346  1.00  0.00     0.139 C 
HETATM   20  O   UNL     1      41.636 -13.091   5.784  1.00  0.00    -0.384 OA
HETATM   21  C   UNL     1      41.243 -11.711   5.777  1.00  0.00     0.168 C 
HETATM   22  C   UNL     1      39.762 -11.676   5.472  1.00  0.00     0.029 C 
HETATM   23  C   UNL     1      39.584 -12.922   4.642  1.00  0.00     0.035 C 
ENDBRANCH  18  19
ENDBRANCH   1  18
BRANCH   2  24
HETATM   24  C   UNL     1      42.339 -13.843   2.070  1.00  0.00     0.034 A 
HETATM   25  C   UNL     1      42.040 -14.842   1.134  1.00  0.00     0.053 A 
HETATM   26  C   UNL     1      41.329 -14.521  -0.021  1.00  0.00     0.069 A 
HETATM   27  C   UNL     1      40.927 -13.199  -0.234  1.00  0.00     0.037 A 
HETATM   28  C   UNL     1      41.198 -12.207   0.713  1.00  0.00     0.004 A 
HETATM   29  C   UNL     1      41.892 -12.531   1.876  1.00  0.00     0.017 A 
BRANCH  26  30
HETATM   30  O   UNL     1      40.975 -15.394  -1.014  1.00  0.00    -0.356 OA
HETATM   31  C   UNL     1      40.736 -14.832  -2.299  1.00  0.00     0.210 C 
ENDBRANCH  26  30
ENDBRANCH   2  24
TORSDOF 6
ENDMDL
MODEL 4
REMARK VINA RESULT:      -8.6      2.783      4.338
REMARK  6 active torsions:
REMARK  status: ('A' for Active; 'I' for Inactive)
REMARK    1  A    between atoms: C_9  and  C_10 
REMARK    2  A    between atoms: C_10  and  N_11 
REMARK       I    between atoms: N_11  and  C_12 
REMARK    3  A    between atoms: N_11  and  C_22 
REMARK    4  A    between atoms: C_12  and  C_13 
REMARK    5  A    between atoms: C_15  and  O_16 
REMARK    6  A    between atoms: C_22  and  C_23 
ROOT
HETATM    1  N   UNL     1      41.628 -14.722   1.664  1.00  0.00    -0.341 N 
HETATM    2  C   UNL     1      41.673 -13.744   0.653  1.00  0.00     0.254 C 
HETATM    3  O   UNL     1      42.464 -12.803   0.647  1.00  0.00    -0.267 OA
ENDROOT
BRANCH   1   4
HETATM    4  C   UNL     1      42.695 -14.642   2.666  1.00  0.00     0.170 C 
BRANCH   4   5
HETATM    5  C   UNL     1      43.083 -15.996   3.194  1.00  0.00     0.029 A 
HETATM    6  C   UNL     1      43.442 -16.104   4.641  1.00  0.00     0.253 A 
HETATM    7  N   UNL     1      43.814 -17.342   5.101  1.00  0.00    -0.322 N 
HETATM    8  O   UNL     1      43.424 -15.138   5.400  1.00  0.00    -0.268 OA
HETATM    9  C   UNL     1      43.937 -18.471   4.283  1.00  0.00     0.045 A 
HETATM   10  H   UNL     1      44.044 -17.396   6.083  1.00  0.00     0.169 HD
HETATM   11  C   UNL     1      43.640 -18.363   2.922  1.00  0.00    -0.008 A 
HETATM   12  C   UNL     1      44.376 -19.679   4.821  1.00  0.00     0.031 A 
HETATM   13  C   UNL     1      43.810 -19.473   2.089  1.00  0.00     0.020 A 
HETATM   14  C   UNL     1      43.181 -17.079   2.399  1.00  0.00     0.028 A 
HETATM   15  C   UNL     1      44.284 -20.685   2.610  1.00  0.00    -0.061 A 
HETATM   16  C   UNL     1      44.463 -21.875   1.714  1.00  0.00     0.048 C 
HETATM   17  C   UNL     1      44.544 -20.785   3.984  1.00  0.00     0.009 A 
ENDBRANCH   4   5
ENDBRANCH   1   4
BRANCH   1  18
HETATM   18  C   UNL     1      40.303 -15.222   2.099  1.00  0.00     0.158 C 
BRANCH  18  19
HETATM   19  C   UNL     1      39.588 -14.442   3.216  1.00  0.00     0.139 C 
HETATM   20  O   UNL     1      40.072 -14.865   4.512  1.00  0.00    -0.384 OA
HETATM   21  C   UNL     1      40.200 -13.712   5.356  1.00  0.00     0.168 C 
HETATM   22  C   UNL     1      39.614 -12.542   4.596  1.00  0.00     0.029 C 
HETATM   23  C   UNL     1      39.860 -12.945   3.164  1.00  0.00     0.035 C 
ENDBRANCH  18  19
ENDBRANCH   1  18
BRANCH   2  24
HETATM   24  C   UNL     1      40.730 -13.847  -0.488  1.00  0.00     0.034 A 
HETATM   25  C   UNL     1      40.983 -14.798  -1.485  1.00  0.00     0.053 A 
HETATM   26  C   UNL     1      40.095 -14.941  -2.549  1.00  0.00     0.069 A 
HETATM   27  C   UNL     1      38.959 -14.126  -2.610  1.00  0.00     0.037 A 
HETATM   28  C   UNL     1      38.689 -13.199  -1.601  1.00  0.00     0.004 A 
HETATM   29  C   UNL     1      39.567 -13.068  -0.527  1.00  0.00     0.017 A 
BRANCH  26  30
HETATM   30  O   UNL     1      40.222 -15.824  -3.587  1.00  0.00    -0.356 OA
HETATM   31  C   UNL     1      39.027 -16.172  -4.276  1.00  0.00     0.210 C 
ENDBRANCH  26  30
ENDBRANCH   2  24
TORSDOF 6
ENDMDL
MODEL 5
REMARK VINA RESULT:      -8.6      2.964      4.545
REMARK  6 active torsions:
REMARK  status: ('A' for Active; 'I' for Inactive)
REMARK    1  A    between atoms: C_9  and  C_10 
REMARK    2  A    between atoms: C_10  and  N_11 
REMARK       I    between atoms: N_11  and  C_12 
REMARK    3  A    between atoms: N_11  and  C_22 
REMARK    4  A    between atoms: C_12  and  C_13 
REMARK    5  A    between atoms: C_15  and  O_16 
REMARK    6  A    between atoms: C_22  and  C_23 
ROOT
HETATM    1  N   UNL     1      41.038 -15.050   1.782  1.00  0.00    -0.341 N 
HETATM    2  C   UNL     1      41.761 -14.122   1.009  1.00  0.00     0.254 C 
HETATM    3  O   UNL     1      42.563 -13.318   1.479  1.00  0.00    -0.267 OA
ENDROOT
BRANCH   1   4
HETATM    4  C   UNL     1      41.405 -15.109   3.200  1.00  0.00     0.170 C 
BRANCH   4   5
HETATM    5  C   UNL     1      42.206 -16.340   3.529  1.00  0.00     0.029 A 
HETATM    6  C   UNL     1      43.048 -16.314   4.764  1.00  0.00     0.253 A 
HETATM    7  N   UNL     1      43.789 -17.436   5.038  1.00  0.00    -0.322 N 
HETATM    8  O   UNL     1      43.099 -15.338   5.510  1.00  0.00    -0.268 OA
HETATM    9  C   UNL     1      43.847 -18.554   4.198  1.00  0.00     0.045 A 
HETATM   10  H   UNL     1      44.343 -17.403   5.881  1.00  0.00     0.169 HD
HETATM   11  C   UNL     1      43.091 -18.563   3.022  1.00  0.00    -0.008 A 
HETATM   12  C   UNL     1      44.669 -19.630   4.523  1.00  0.00     0.031 A 
HETATM   13  C   UNL     1      43.183 -19.655   2.153  1.00  0.00     0.020 A 
HETATM   14  C   UNL     1      42.240 -17.416   2.721  1.00  0.00     0.028 A 
HETATM   15  C   UNL     1      44.034 -20.729   2.450  1.00  0.00    -0.061 A 
HETATM   16  C   UNL     1      44.129 -21.899   1.516  1.00  0.00     0.048 C 
HETATM   17  C   UNL     1      44.758 -20.718   3.650  1.00  0.00     0.009 A 
ENDBRANCH   4   5
ENDBRANCH   1   4
BRANCH   1  18
HETATM   18  C   UNL     1      39.628 -15.321   1.418  1.00  0.00     0.158 C 
BRANCH  18  19
HETATM   19  C   UNL     1      38.600 -14.216   1.712  1.00  0.00     0.139 C 
HETATM   20  O   UNL     1      39.268 -12.951   1.924  1.00  0.00    -0.384 OA
HETATM   21  C   UNL     1      38.503 -11.913   1.297  1.00  0.00     0.168 C 
HETATM   22  C   UNL     1      37.217 -12.544   0.811  1.00  0.00     0.029 C 
HETATM   23  C   UNL     1      37.646 -13.966   0.551  1.00  0.00     0.035 C 
ENDBRANCH  18  19
ENDBRANCH   1  18
BRANCH   2  24
HETATM   24  C   UNL     1      41.567 -14.108  -0.462  1.00  0.00     0.034 A 
HETATM   25  C   UNL     1      41.074 -15.263  -1.086  1.00  0.00     0.053 A 
HETATM   26  C   UNL     1      40.848 -15.267  -2.460  1.00  0.00     0.069 A 
HETATM   27  C   UNL     1      41.122 -14.115  -3.204  1.00  0.00     0.037 A 
HETATM   28  C   UNL     1      41.584 -12.953  -2.581  1.00  0.00     0.004 A 
HETATM   29  C   UNL     1      41.793 -12.942  -1.203  1.00  0.00     0.017 A 
BRANCH  26  30
HETATM   30  O   UNL     1      40.375 -16.322  -3.192  1.00  0.00    -0.356 OA
HETATM   31  C   UNL     1      39.216 -16.079  -3.981  1.00  0.00     0.210 C 
ENDBRANCH  26  30
ENDBRANCH   2  24
TORSDOF 6
ENDMDL
MODEL 6
REMARK VINA RESULT:      -8.2      2.606      7.736
REMARK  6 active torsions:
REMARK  status: ('A' for Active; 'I' for Inactive)
REMARK    1  A    between atoms: C_9  and  C_10 
REMARK    2  A    between atoms: C_10  and  N_11 
REMARK       I    between atoms: N_11  and  C_12 
REMARK    3  A    between atoms: N_11  and  C_22 
REMARK    4  A    between atoms: C_12  and  C_13 
REMARK    5  A    between atoms: C_15  and  O_16 
REMARK    6  A    between atoms: C_22  and  C_23 
ROOT
HETATM    1  N   UNL     1      41.462 -15.795   2.761  1.00  0.00    -0.341 N 
HETATM    2  C   UNL     1      41.135 -15.339   4.052  1.00  0.00     0.254 C 
HETATM    3  O   UNL     1      40.170 -14.618   4.300  1.00  0.00    -0.267 OA
ENDROOT
BRANCH   1   4
HETATM    4  C   UNL     1      40.485 -15.475   1.715  1.00  0.00     0.170 C 
BRANCH   4   5
HETATM    5  C   UNL     1      41.037 -14.515   0.697  1.00  0.00     0.029 A 
HETATM    6  C   UNL     1      41.369 -15.052  -0.659  1.00  0.00     0.253 A 
HETATM    7  N   UNL     1      41.892 -14.168  -1.569  1.00  0.00    -0.322 N 
HETATM    8  O   UNL     1      41.201 -16.231  -0.962  1.00  0.00    -0.268 OA
HETATM    9  C   UNL     1      42.187 -12.832  -1.275  1.00  0.00     0.045 A 
HETATM   10  H   UNL     1      42.101 -14.547  -2.481  1.00  0.00     0.169 HD
HETATM   11  C   UNL     1      41.914 -12.339   0.004  1.00  0.00    -0.008 A 
HETATM   12  C   UNL     1      42.770 -12.016  -2.242  1.00  0.00     0.031 A 
HETATM   13  C   UNL     1      42.252 -11.020   0.320  1.00  0.00     0.020 A 
HETATM   14  C   UNL     1      41.300 -13.227   0.987  1.00  0.00     0.028 A 
HETATM   15  C   UNL     1      42.872 -10.198  -0.631  1.00  0.00    -0.061 A 
HETATM   16  C   UNL     1      43.232  -8.782  -0.289  1.00  0.00     0.048 C 
HETATM   17  C   UNL     1      43.107 -10.699  -1.919  1.00  0.00     0.009 A 
ENDBRANCH   4   5
ENDBRANCH   1   4
BRANCH   1  18
HETATM   18  C   UNL     1      42.891 -15.860   2.379  1.00  0.00     0.158 C 
BRANCH  18  19
HETATM   19  C   UNL     1      43.506 -17.257   2.186  1.00  0.00     0.139 C 
HETATM   20  O   UNL     1      44.071 -17.733   3.429  1.00  0.00    -0.384 OA
HETATM   21  C   UNL     1      43.782 -19.132   3.562  1.00  0.00     0.168 C 
HETATM   22  C   UNL     1      43.147 -19.576   2.263  1.00  0.00     0.029 C 
HETATM   23  C   UNL     1      42.479 -18.309   1.792  1.00  0.00     0.035 C 
ENDBRANCH  18  19
ENDBRANCH   1  18
BRANCH   2  24
HETATM   24  C   UNL     1      41.985 -15.754   5.195  1.00  0.00     0.034 A 
HETATM   25  C   UNL     1      43.073 -14.946   5.552  1.00  0.00     0.053 A 
HETATM   26  C   UNL     1      43.867 -15.292   6.644  1.00  0.00     0.069 A 
HETATM   27  C   UNL     1      43.567 -16.450   7.370  1.00  0.00     0.037 A 
HETATM   28  C   UNL     1      42.465 -17.240   7.035  1.00  0.00     0.004 A 
HETATM   29  C   UNL     1      41.660 -16.885   5.955  1.00  0.00     0.017 A 
BRANCH  26  30
HETATM   30  O   UNL     1      44.955 -14.598   7.096  1.00  0.00    -0.356 OA
HETATM   31  C   UNL     1      44.691 -13.384   7.790  1.00  0.00     0.210 C 
ENDBRANCH  26  30
ENDBRANCH   2  24
TORSDOF 6
ENDMDL
MODEL 7
REMARK VINA RESULT:      -8.2      2.369      3.615
REMARK  6 active torsions:
REMARK  status: ('A' for Active; 'I' for Inactive)
REMARK    1  A    between atoms: C_9  and  C_10 
REMARK    2  A    between atoms: C_10  and  N_11 
REMARK       I    between atoms: N_11  and  C_12 
REMARK    3  A    between atoms: N_11  and  C_22 
REMARK    4  A    between atoms: C_12  and  C_13 
REMARK    5  A    between atoms: C_15  and  O_16 
REMARK    6  A    between atoms: C_22  and  C_23 
ROOT
HETATM    1  N   UNL     1      41.785 -14.643   3.458  1.00  0.00    -0.341 N 
HETATM    2  C   UNL     1      41.541 -13.630   2.512  1.00  0.00     0.254 C 
HETATM    3  O   UNL     1      42.412 -12.886   2.065  1.00  0.00    -0.267 OA
ENDROOT
BRANCH   1   4
HETATM    4  C   UNL     1      43.196 -14.867   3.789  1.00  0.00     0.170 C 
BRANCH   4   5
HETATM    5  C   UNL     1      43.490 -16.317   4.067  1.00  0.00     0.029 A 
HETATM    6  C   UNL     1      43.883 -16.693   5.460  1.00  0.00     0.253 A 
HETATM    7  N   UNL     1      44.169 -18.015   5.692  1.00  0.00    -0.322 N 
HETATM    8  O   UNL     1      43.964 -15.870   6.369  1.00  0.00    -0.268 OA
HETATM    9  C   UNL     1      44.177 -18.995   4.694  1.00  0.00     0.045 A 
HETATM   10  H   UNL     1      44.422 -18.251   6.640  1.00  0.00     0.169 HD
HETATM   11  C   UNL     1      43.849 -18.638   3.384  1.00  0.00    -0.008 A 
HETATM   12  C   UNL     1      44.534 -20.306   5.005  1.00  0.00     0.031 A 
HETATM   13  C   UNL     1      43.904 -19.601   2.372  1.00  0.00     0.020 A 
HETATM   14  C   UNL     1      43.477 -17.254   3.101  1.00  0.00     0.028 A 
HETATM   15  C   UNL     1      44.296 -20.915   2.664  1.00  0.00    -0.061 A 
HETATM   16  C   UNL     1      44.353 -21.947   1.576  1.00  0.00     0.048 C 
HETATM   17  C   UNL     1      44.588 -21.264   3.990  1.00  0.00     0.009 A 
ENDBRANCH   4   5
ENDBRANCH   1   4
BRANCH   1  18
HETATM   18  C   UNL     1      40.778 -14.870   4.520  1.00  0.00     0.158 C 
BRANCH  18  19
HETATM   19  C   UNL     1      40.770 -13.889   5.705  1.00  0.00     0.139 C 
HETATM   20  O   UNL     1      41.710 -12.815   5.474  1.00  0.00    -0.384 OA
HETATM   21  C   UNL     1      41.128 -11.585   5.929  1.00  0.00     0.168 C 
HETATM   22  C   UNL     1      39.830 -11.941   6.621  1.00  0.00     0.029 C 
HETATM   23  C   UNL     1      39.426 -13.200   5.897  1.00  0.00     0.035 C 
ENDBRANCH  18  19
ENDBRANCH   1  18
BRANCH   2  24
HETATM   24  C   UNL     1      40.160 -13.443   2.000  1.00  0.00     0.034 A 
HETATM   25  C   UNL     1      39.468 -12.275   2.345  1.00  0.00     0.053 A 
HETATM   26  C   UNL     1      38.184 -12.056   1.851  1.00  0.00     0.069 A 
HETATM   27  C   UNL     1      37.599 -13.013   1.015  1.00  0.00     0.037 A 
HETATM   28  C   UNL     1      38.299 -14.164   0.645  1.00  0.00     0.004 A 
HETATM   29  C   UNL     1      39.589 -14.375   1.125  1.00  0.00     0.017 A 
BRANCH  26  30
HETATM   30  O   UNL     1      37.399 -10.965   2.110  1.00  0.00    -0.356 OA
HETATM   31  C   UNL     1      37.848 -10.090   3.138  1.00  0.00     0.210 C 
ENDBRANCH  26  30
ENDBRANCH   2  24
TORSDOF 6
ENDMDL
MODEL 8
REMARK VINA RESULT:      -8.1      2.575      8.318
REMARK  6 active torsions:
REMARK  status: ('A' for Active; 'I' for Inactive)
REMARK    1  A    between atoms: C_9  and  C_10 
REMARK    2  A    between atoms: C_10  and  N_11 
REMARK       I    between atoms: N_11  and  C_12 
REMARK    3  A    between atoms: N_11  and  C_22 
REMARK    4  A    between atoms: C_12  and  C_13 
REMARK    5  A    between atoms: C_15  and  O_16 
REMARK    6  A    between atoms: C_22  and  C_23 
ROOT
HETATM    1  N   UNL     1      42.230 -15.829   2.390  1.00  0.00    -0.341 N 
HETATM    2  C   UNL     1      41.782 -17.084   2.843  1.00  0.00     0.254 C 
HETATM    3  O   UNL     1      40.601 -17.354   3.055  1.00  0.00    -0.267 OA
ENDROOT
BRANCH   1   4
HETATM    4  C   UNL     1      41.175 -14.874   2.037  1.00  0.00     0.170 C 
BRANCH   4   5
HETATM    5  C   UNL     1      41.479 -14.137   0.761  1.00  0.00     0.029 A 
HETATM    6  C   UNL     1      41.497 -14.922  -0.511  1.00  0.00     0.253 A 
HETATM    7  N   UNL     1      41.797 -14.239  -1.662  1.00  0.00    -0.322 N 
HETATM    8  O   UNL     1      41.266 -16.129  -0.546  1.00  0.00    -0.268 OA
HETATM    9  C   UNL     1      42.149 -12.886  -1.693  1.00  0.00     0.045 A 
HETATM   10  H   UNL     1      41.795 -14.785  -2.512  1.00  0.00     0.169 HD
HETATM   11  C   UNL     1      42.173 -12.159  -0.500  1.00  0.00    -0.008 A 
HETATM   12  C   UNL     1      42.496 -12.281  -2.900  1.00  0.00     0.031 A 
HETATM   13  C   UNL     1      42.572 -10.819  -0.516  1.00  0.00     0.020 A 
HETATM   14  C   UNL     1      41.800 -12.830   0.743  1.00  0.00     0.028 A 
HETATM   15  C   UNL     1      42.958 -10.208  -1.718  1.00  0.00    -0.061 A 
HETATM   16  C   UNL     1      43.385  -8.769  -1.732  1.00  0.00     0.048 C 
HETATM   17  C   UNL     1      42.895 -10.942  -2.910  1.00  0.00     0.009 A 
ENDBRANCH   4   5
ENDBRANCH   1   4
BRANCH   1  18
HETATM   18  C   UNL     1      43.495 -15.293   2.944  1.00  0.00     0.158 C 
BRANCH  18  19
HETATM   19  C   UNL     1      43.396 -14.418   4.205  1.00  0.00     0.139 C 
HETATM   20  O   UNL     1      43.153 -13.039   3.843  1.00  0.00    -0.384 OA
HETATM   21  C   UNL     1      42.211 -12.477   4.767  1.00  0.00     0.168 C 
HETATM   22  C   UNL     1      41.984 -13.511   5.848  1.00  0.00     0.029 C 
HETATM   23  C   UNL     1      42.229 -14.799   5.105  1.00  0.00     0.035 C 
ENDBRANCH  18  19
ENDBRANCH   1  18
BRANCH   2  24
HETATM   24  C   UNL     1      42.777 -18.162   3.070  1.00  0.00     0.034 A 
HETATM   25  C   UNL     1      43.209 -18.413   4.379  1.00  0.00     0.053 A 
HETATM   26  C   UNL     1      44.115 -19.442   4.626  1.00  0.00     0.069 A 
HETATM   27  C   UNL     1      44.587 -20.212   3.558  1.00  0.00     0.037 A 
HETATM   28  C   UNL     1      44.134 -19.984   2.256  1.00  0.00     0.004 A 
HETATM   29  C   UNL     1      43.214 -18.966   2.011  1.00  0.00     0.017 A 
BRANCH  26  30
HETATM   30  O   UNL     1      44.619 -19.790   5.850  1.00  0.00    -0.356 OA
HETATM   31  C   UNL     1      43.795 -19.517   6.977  1.00  0.00     0.210 C 
ENDBRANCH  26  30
ENDBRANCH   2  24
TORSDOF 6
ENDMDL
MODEL 9
REMARK VINA RESULT:      -8.1      3.338      8.268
REMARK  6 active torsions:
REMARK  status: ('A' for Active; 'I' for Inactive)
REMARK    1  A    between atoms: C_9  and  C_10 
REMARK    2  A    between atoms: C_10  and  N_11 
REMARK       I    between atoms: N_11  and  C_12 
REMARK    3  A    between atoms: N_11  and  C_22 
REMARK    4  A    between atoms: C_12  and  C_13 
REMARK    5  A    between atoms: C_15  and  O_16 
REMARK    6  A    between atoms: C_22  and  C_23 
ROOT
HETATM    1  N   UNL     1      41.330 -15.917   1.133  1.00  0.00    -0.341 N 
HETATM    2  C   UNL     1      42.604 -16.226   1.647  1.00  0.00     0.254 C 
HETATM    3  O   UNL     1      43.469 -16.828   1.014  1.00  0.00    -0.267 OA
ENDROOT
BRANCH   1   4
HETATM    4  C   UNL     1      41.130 -16.232  -0.285  1.00  0.00     0.170 C 
BRANCH   4   5
HETATM    5  C   UNL     1      41.324 -15.029  -1.167  1.00  0.00     0.029 A 
HETATM    6  C   UNL     1      40.959 -15.158  -2.611  1.00  0.00     0.253 A 
HETATM    7  N   UNL     1      41.162 -14.058  -3.407  1.00  0.00    -0.322 N 
HETATM    8  O   UNL     1      40.507 -16.196  -3.089  1.00  0.00    -0.268 OA
HETATM    9  C   UNL     1      41.747 -12.870  -2.956  1.00  0.00     0.045 A 
HETATM   10  H   UNL     1      40.901 -14.162  -4.376  1.00  0.00     0.169 HD
HETATM   11  C   UNL     1      42.125 -12.762  -1.615  1.00  0.00    -0.008 A 
HETATM   12  C   UNL     1      41.969 -11.819  -3.844  1.00  0.00     0.031 A 
HETATM   13  C   UNL     1      42.756 -11.596  -1.169  1.00  0.00     0.020 A 
HETATM   14  C   UNL     1      41.871 -13.885  -0.717  1.00  0.00     0.028 A 
HETATM   15  C   UNL     1      43.018 -10.546  -2.059  1.00  0.00    -0.061 A 
HETATM   16  C   UNL     1      43.693  -9.295  -1.577  1.00  0.00     0.048 C 
HETATM   17  C   UNL     1      42.600 -10.658  -3.393  1.00  0.00     0.009 A 
ENDBRANCH   4   5
ENDBRANCH   1   4
BRANCH   1  18
HETATM   18  C   UNL     1      40.163 -16.020   2.039  1.00  0.00     0.158 C 
BRANCH  18  19
HETATM   19  C   UNL     1      39.344 -14.741   2.283  1.00  0.00     0.139 C 
HETATM   20  O   UNL     1      40.205 -13.579   2.249  1.00  0.00    -0.384 OA
HETATM   21  C   UNL     1      39.523 -12.518   1.567  1.00  0.00     0.168 C 
HETATM   22  C   UNL     1      38.112 -12.996   1.307  1.00  0.00     0.029 C 
HETATM   23  C   UNL     1      38.301 -14.488   1.203  1.00  0.00     0.035 C 
ENDBRANCH  18  19
ENDBRANCH   1  18
BRANCH   2  24
HETATM   24  C   UNL     1      42.945 -15.795   3.025  1.00  0.00     0.034 A 
HETATM   25  C   UNL     1      43.066 -16.771   4.023  1.00  0.00     0.053 A 
HETATM   26  C   UNL     1      43.421 -16.400   5.319  1.00  0.00     0.069 A 
HETATM   27  C   UNL     1      43.649 -15.050   5.607  1.00  0.00     0.037 A 
HETATM   28  C   UNL     1      43.560 -14.079   4.606  1.00  0.00     0.004 A 
HETATM   29  C   UNL     1      43.223 -14.452   3.307  1.00  0.00     0.017 A 
BRANCH  26  30
HETATM   30  O   UNL     1      43.569 -17.246   6.384  1.00  0.00    -0.356 OA
HETATM   31  C   UNL     1      44.868 -17.792   6.584  1.00  0.00     0.210 C 
ENDBRANCH  26  30
ENDBRANCH   2  24
TORSDOF 6
ENDMDL
MODEL 10
REMARK VINA RESULT:      -8.0      2.611      7.999
REMARK  6 active torsions:
REMARK  status: ('A' for Active; 'I' for Inactive)
REMARK    1  A    between atoms: C_9  and  C_10 
REMARK    2  A    between atoms: C_10  and  N_11 
REMARK       I    between atoms: N_11  and  C_12 
REMARK    3  A    between atoms: N_11  and  C_22 
REMARK    4  A    between atoms: C_12  and  C_13 
REMARK    5  A    between atoms: C_15  and  O_16 
REMARK    6  A    between atoms: C_22  and  C_23 
ROOT
HETATM    1  N   UNL     1      42.096 -15.527   3.187  1.00  0.00    -0.341 N 
HETATM    2  C   UNL     1      41.682 -16.866   3.318  1.00  0.00     0.254 C 
HETATM    3  O   UNL     1      40.514 -17.207   3.493  1.00  0.00    -0.267 OA
ENDROOT
BRANCH   1   4
HETATM    4  C   UNL     1      41.015 -14.537   3.125  1.00  0.00     0.170 C 
BRANCH   4   5
HETATM    5  C   UNL     1      40.625 -14.209   1.710  1.00  0.00     0.029 A 
HETATM    6  C   UNL     1      39.307 -14.713   1.215  1.00  0.00     0.253 A 
HETATM    7  N   UNL     1      38.976 -14.424  -0.085  1.00  0.00    -0.322 N 
HETATM    8  O   UNL     1      38.544 -15.370   1.920  1.00  0.00    -0.268 OA
HETATM    9  C   UNL     1      39.825 -13.753  -0.972  1.00  0.00     0.045 A 
HETATM   10  H   UNL     1      38.079 -14.765  -0.397  1.00  0.00     0.169 HD
HETATM   11  C   UNL     1      41.074 -13.316  -0.523  1.00  0.00    -0.008 A 
HETATM   12  C   UNL     1      39.434 -13.548  -2.294  1.00  0.00     0.031 A 
HETATM   13  C   UNL     1      41.948 -12.690  -1.417  1.00  0.00     0.020 A 
HETATM   14  C   UNL     1      41.444 -13.547   0.871  1.00  0.00     0.028 A 
HETATM   15  C   UNL     1      41.582 -12.510  -2.758  1.00  0.00    -0.061 A 
HETATM   16  C   UNL     1      42.521 -11.836  -3.715  1.00  0.00     0.048 C 
HETATM   17  C   UNL     1      40.311 -12.923  -3.183  1.00  0.00     0.009 A 
ENDBRANCH   4   5
ENDBRANCH   1   4
BRANCH   1  18
HETATM   18  C   UNL     1      43.373 -15.121   3.816  1.00  0.00     0.158 C 
BRANCH  18  19
HETATM   19  C   UNL     1      43.317 -14.638   5.276  1.00  0.00     0.139 C 
HETATM   20  O   UNL     1      43.126 -15.759   6.169  1.00  0.00    -0.384 OA
HETATM   21  C   UNL     1      43.938 -15.565   7.336  1.00  0.00     0.168 C 
HETATM   22  C   UNL     1      44.537 -14.180   7.230  1.00  0.00     0.029 C 
HETATM   23  C   UNL     1      44.613 -13.985   5.737  1.00  0.00     0.035 C 
ENDBRANCH  18  19
ENDBRANCH   1  18
BRANCH   2  24
HETATM   24  C   UNL     1      42.699 -17.943   3.227  1.00  0.00     0.034 A 
HETATM   25  C   UNL     1      43.106 -18.582   4.405  1.00  0.00     0.053 A 
HETATM   26  C   UNL     1      44.033 -19.621   4.347  1.00  0.00     0.069 A 
HETATM   27  C   UNL     1      44.549 -20.011   3.107  1.00  0.00     0.037 A 
HETATM   28  C   UNL     1      44.121 -19.396   1.928  1.00  0.00     0.004 A 
HETATM   29  C   UNL     1      43.181 -18.369   1.984  1.00  0.00     0.017 A 
BRANCH  26  30
HETATM   30  O   UNL     1      44.517 -20.326   5.416  1.00  0.00    -0.356 OA
HETATM   31  C   UNL     1      44.855 -21.687   5.178  1.00  0.00     0.210 C 
ENDBRANCH  26  30
ENDBRANCH   2  24
TORSDOF 6
ENDMDL
