MODEL 1
REMARK VINA RESULT:      -8.8      0.000      0.000
REMARK  5 active torsions:
REMARK  status: ('A' for Active; 'I' for Inactive)
REMARK    1  A    between atoms: C_4  and  C_5 
REMARK       I    between atoms: N_6  and  C_7 
REMARK    2  A    between atoms: C_7  and  C_8 
REMARK    3  A    between atoms: C_8  and  C_9 
REMARK    4  A    between atoms: C_11  and  O_12 
REMARK    5  A    between atoms: C_14  and  O_15 
ROOT
HETATM    1  C   UNL     1      41.433 -15.818   3.700  1.00  0.00     0.189 C 
HETATM    2  N   UNL     1      41.132 -15.436   2.293  1.00  0.00    -0.336 N 
HETATM    3  C   UNL     1      41.977 -14.549   1.621  1.00  0.00     0.225 C 
HETATM    4  O   UNL     1      42.937 -13.988   2.152  1.00  0.00    -0.273 OA
HETATM    5  C   UNL     1      40.444 -16.517   1.555  1.00  0.00     0.132 C 
HETATM    6  C   UNL     1      41.390 -17.721   1.327  1.00  0.00     0.061 C 
HETATM    7  C   UNL     1      42.241 -17.959   2.536  1.00  0.00    -0.019 A 
HETATM    8  C   UNL     1      42.272 -17.072   3.603  1.00  0.00     0.046 A 
HETATM    9  N   UNL     1      43.119 -17.585   4.548  1.00  0.00    -0.356 N 
HETATM   10  H   UNL     1      43.316 -17.175   5.451  1.00  0.00     0.166 HD
HETATM   11  C   UNL     1      43.713 -18.735   4.068  1.00  0.00     0.043 A 
HETATM   12  C   UNL     1      43.165 -19.000   2.810  1.00  0.00    -0.001 A 
HETATM   13  C   UNL     1      44.687 -19.556   4.648  1.00  0.00     0.030 A 
HETATM   14  C   UNL     1      45.111 -20.675   3.922  1.00  0.00     0.002 A 
HETATM   15  C   UNL     1      44.575 -20.965   2.669  1.00  0.00     0.001 A 
HETATM   16  C   UNL     1      43.600 -20.137   2.103  1.00  0.00     0.014 A 
ENDROOT
BRANCH   1  17
HETATM   17  C   UNL     1      41.827 -14.710   4.674  1.00  0.00     0.063 A 
HETATM   18  N   UNL     1      43.071 -14.817   5.228  1.00  0.00    -0.256 NA
HETATM   19  C   UNL     1      43.476 -13.870   6.108  1.00  0.00     0.031 A 
HETATM   20  C   UNL     1      44.830 -14.041   6.727  1.00  0.00     0.070 C 
HETATM   21  C   UNL     1      42.685 -12.781   6.450  1.00  0.00     0.027 A 
HETATM   22  C   UNL     1      41.423 -12.670   5.881  1.00  0.00     0.004 A 
HETATM   23  C   UNL     1      40.985 -13.645   4.990  1.00  0.00     0.030 A 
ENDBRANCH   1  17
BRANCH   3  24
HETATM   24  C   UNL     1      41.708 -14.268   0.147  1.00  0.00     0.141 C 
BRANCH  24  25
HETATM   25  C   UNL     1      40.402 -13.578  -0.174  1.00  0.00    -0.047 A 
HETATM   26  C   UNL     1      39.586 -13.984  -1.241  1.00  0.00     0.047 A 
HETATM   27  C   UNL     1      38.377 -13.329  -1.513  1.00  0.00     0.102 A 
HETATM   28  C   UNL     1      37.956 -12.273  -0.682  1.00  0.00     0.101 A 
HETATM   29  C   UNL     1      38.751 -11.890   0.402  1.00  0.00     0.040 A 
HETATM   30  C   UNL     1      39.960 -12.540   0.655  1.00  0.00     0.010 A 
BRANCH  27  31
HETATM   31  O   UNL     1      37.541 -13.655  -2.552  1.00  0.00    -0.353 OA
HETATM   32  C   UNL     1      37.862 -14.816  -3.309  1.00  0.00     0.210 C 
ENDBRANCH  27  31
BRANCH  28  33
HETATM   33  O   UNL     1      36.758 -11.684  -1.008  1.00  0.00    -0.353 OA
HETATM   34  C   UNL     1      35.911 -11.285   0.059  1.00  0.00     0.210 C 
ENDBRANCH  28  33
ENDBRANCH  24  25
ENDBRANCH   3  24
TORSDOF 5
ENDMDL
MODEL 2
REMARK VINA RESULT:      -8.8      2.427      3.292
REMARK  5 active torsions:
REMARK  status: ('A' for Active; 'I' for Inactive)
REMARK    1  A    between atoms: C_4  and  C_5 
REMARK       I    between atoms: N_6  and  C_7 
REMARK    2  A    between atoms: C_7  and  C_8 
REMARK    3  A    between atoms: C_8  and  C_9 
REMARK    4  A    between atoms: C_11  and  O_12 
REMARK    5  A    between atoms: C_14  and  O_15 
ROOT
HETATM    1  C   UNL     1      41.387 -15.578   3.679  1.00  0.00     0.189 C 
HETATM    2  N   UNL     1      41.105 -15.109   2.295  1.00  0.00    -0.336 N 
HETATM    3  C   UNL     1      41.995 -14.233   1.667  1.00  0.00     0.225 C 
HETATM    4  O   UNL     1      42.984 -13.752   2.222  1.00  0.00    -0.273 OA
HETATM    5  C   UNL     1      40.360 -16.112   1.504  1.00  0.00     0.132 C 
HETATM    6  C   UNL     1      41.242 -17.350   1.210  1.00  0.00     0.061 C 
HETATM    7  C   UNL     1      42.081 -17.696   2.402  1.00  0.00    -0.019 A 
HETATM    8  C   UNL     1      42.159 -16.868   3.514  1.00  0.00     0.046 A 
HETATM    9  N   UNL     1      42.978 -17.474   4.427  1.00  0.00    -0.356 N 
HETATM   10  H   UNL     1      43.198 -17.123   5.350  1.00  0.00     0.166 HD
HETATM   11  C   UNL     1      43.510 -18.627   3.886  1.00  0.00     0.043 A 
HETATM   12  C   UNL     1      42.948 -18.796   2.618  1.00  0.00    -0.001 A 
HETATM   13  C   UNL     1      44.441 -19.527   4.418  1.00  0.00     0.030 A 
HETATM   14  C   UNL     1      44.805 -20.627   3.633  1.00  0.00     0.002 A 
HETATM   15  C   UNL     1      44.253 -20.823   2.369  1.00  0.00     0.001 A 
HETATM   16  C   UNL     1      43.322 -19.916   1.850  1.00  0.00     0.014 A 
ENDROOT
BRANCH   1  17
HETATM   17  C   UNL     1      41.840 -14.545   4.708  1.00  0.00     0.063 A 
HETATM   18  N   UNL     1      43.082 -14.739   5.241  1.00  0.00    -0.256 NA
HETATM   19  C   UNL     1      43.537 -13.862   6.168  1.00  0.00     0.031 A 
HETATM   20  C   UNL     1      44.887 -14.129   6.761  1.00  0.00     0.070 C 
HETATM   21  C   UNL     1      42.800 -12.759   6.578  1.00  0.00     0.027 A 
HETATM   22  C   UNL     1      41.540 -12.559   6.030  1.00  0.00     0.004 A 
HETATM   23  C   UNL     1      41.050 -13.462   5.091  1.00  0.00     0.030 A 
ENDBRANCH   1  17
BRANCH   3  24
HETATM   24  C   UNL     1      41.739 -13.862   0.211  1.00  0.00     0.141 C 
BRANCH  24  25
HETATM   25  C   UNL     1      42.010 -12.424  -0.170  1.00  0.00    -0.047 A 
HETATM   26  C   UNL     1      41.535 -11.348   0.595  1.00  0.00     0.047 A 
HETATM   27  C   UNL     1      41.806 -10.025   0.223  1.00  0.00     0.102 A 
HETATM   28  C   UNL     1      42.597  -9.770  -0.915  1.00  0.00     0.101 A 
HETATM   29  C   UNL     1      43.099 -10.842  -1.658  1.00  0.00     0.040 A 
HETATM   30  C   UNL     1      42.811 -12.156  -1.286  1.00  0.00     0.010 A 
BRANCH  27  31
HETATM   31  O   UNL     1      41.355  -8.924   0.908  1.00  0.00    -0.353 OA
HETATM   32  C   UNL     1      40.783  -9.142   2.191  1.00  0.00     0.210 C 
ENDBRANCH  27  31
BRANCH  28  33
HETATM   33  O   UNL     1      42.824  -8.449  -1.213  1.00  0.00    -0.353 OA
HETATM   34  C   UNL     1      44.162  -7.979  -1.142  1.00  0.00     0.210 C 
ENDBRANCH  28  33
ENDBRANCH  24  25
ENDBRANCH   3  24
TORSDOF 5
ENDMDL
MODEL 3
REMARK VINA RESULT:      -8.6      3.056      8.442
REMARK  5 active torsions:
REMARK  status: ('A' for Active; 'I' for Inactive)
REMARK    1  A    between atoms: C_4  and  C_5 
REMARK       I    between atoms: N_6  and  C_7 
REMARK    2  A    between atoms: C_7  and  C_8 
REMARK    3  A    between atoms: C_8  and  C_9 
REMARK    4  A    between atoms: C_11  and  O_12 
REMARK    5  A    between atoms: C_14  and  O_15 
ROOT
HETATM    1  C   UNL     1      40.497 -14.533   2.978  1.00  0.00     0.189 C 
HETATM    2  N   UNL     1      41.314 -15.463   3.805  1.00  0.00    -0.336 N 
HETATM    3  C   UNL     1      42.708 -15.380   3.765  1.00  0.00     0.225 C 
HETATM    4  O   UNL     1      43.325 -14.620   3.018  1.00  0.00    -0.273 OA
HETATM    5  C   UNL     1      40.623 -15.858   5.050  1.00  0.00     0.132 C 
HETATM    6  C   UNL     1      40.495 -14.655   6.018  1.00  0.00     0.061 C 
HETATM    7  C   UNL     1      40.181 -13.401   5.261  1.00  0.00    -0.019 A 
HETATM    8  C   UNL     1      40.209 -13.350   3.874  1.00  0.00     0.046 A 
HETATM    9  N   UNL     1      39.854 -12.083   3.497  1.00  0.00    -0.356 N 
HETATM   10  H   UNL     1      39.753 -11.755   2.545  1.00  0.00     0.166 HD
HETATM   11  C   UNL     1      39.697 -11.289   4.615  1.00  0.00     0.043 A 
HETATM   12  C   UNL     1      39.882 -12.100   5.738  1.00  0.00    -0.001 A 
HETATM   13  C   UNL     1      39.407  -9.923   4.717  1.00  0.00     0.030 A 
HETATM   14  C   UNL     1      39.305  -9.374   6.000  1.00  0.00     0.002 A 
HETATM   15  C   UNL     1      39.478 -10.162   7.136  1.00  0.00     0.001 A 
HETATM   16  C   UNL     1      39.765 -11.527   7.019  1.00  0.00     0.014 A 
ENDROOT
BRANCH   1  17
HETATM   17  C   UNL     1      40.918 -14.307   1.528  1.00  0.00     0.063 A 
HETATM   18  N   UNL     1      41.384 -13.058   1.230  1.00  0.00    -0.256 NA
HETATM   19  C   UNL     1      41.763 -12.790  -0.043  1.00  0.00     0.031 A 
HETATM   20  C   UNL     1      42.231 -11.398  -0.342  1.00  0.00     0.070 C 
HETATM   21  C   UNL     1      41.721 -13.744  -1.051  1.00  0.00     0.027 A 
HETATM   22  C   UNL     1      41.253 -15.016  -0.746  1.00  0.00     0.004 A 
HETATM   23  C   UNL     1      40.841 -15.300   0.553  1.00  0.00     0.030 A 
ENDBRANCH   1  17
BRANCH   3  24
HETATM   24  C   UNL     1      43.513 -16.267   4.709  1.00  0.00     0.141 C 
BRANCH  24  25
HETATM   25  C   UNL     1      43.825 -17.660   4.213  1.00  0.00    -0.047 A 
HETATM   26  C   UNL     1      44.121 -18.715   5.090  1.00  0.00     0.047 A 
HETATM   27  C   UNL     1      44.401 -19.999   4.603  1.00  0.00     0.102 A 
HETATM   28  C   UNL     1      44.350 -20.244   3.217  1.00  0.00     0.101 A 
HETATM   29  C   UNL     1      44.022 -19.202   2.345  1.00  0.00     0.040 A 
HETATM   30  C   UNL     1      43.758 -17.924   2.840  1.00  0.00     0.010 A 
BRANCH  27  31
HETATM   31  O   UNL     1      44.722 -21.072   5.398  1.00  0.00    -0.353 OA
HETATM   32  C   UNL     1      43.932 -21.280   6.562  1.00  0.00     0.210 C 
ENDBRANCH  27  31
BRANCH  28  33
HETATM   33  O   UNL     1      44.631 -21.527   2.816  1.00  0.00    -0.353 OA
HETATM   34  C   UNL     1      44.105 -21.956   1.570  1.00  0.00     0.210 C 
ENDBRANCH  28  33
ENDBRANCH  24  25
ENDBRANCH   3  24
TORSDOF 5
ENDMDL
MODEL 4
REMARK VINA RESULT:      -8.6      2.091      2.629
REMARK  5 active torsions:
REMARK  status: ('A' for Active; 'I' for Inactive)
REMARK    1  A    between atoms: C_4  and  C_5 
REMARK       I    between atoms: N_6  and  C_7 
REMARK    2  A    between atoms: C_7  and  C_8 
REMARK    3  A    between atoms: C_8  and  C_9 
REMARK    4  A    between atoms: C_11  and  O_12 
REMARK    5  A    between atoms: C_14  and  O_15 
ROOT
HETATM    1  C   UNL     1      41.404 -15.719   3.686  1.00  0.00     0.189 C 
HETATM    2  N   UNL     1      41.115 -15.308   2.285  1.00  0.00    -0.336 N 
HETATM    3  C   UNL     1      41.982 -14.431   1.628  1.00  0.00     0.225 C 
HETATM    4  O   UNL     1      42.955 -13.904   2.168  1.00  0.00    -0.273 OA
HETATM    5  C   UNL     1      40.401 -16.359   1.529  1.00  0.00     0.132 C 
HETATM    6  C   UNL     1      41.318 -17.583   1.283  1.00  0.00     0.061 C 
HETATM    7  C   UNL     1      42.161 -17.861   2.490  1.00  0.00    -0.019 A 
HETATM    8  C   UNL     1      42.212 -16.992   3.571  1.00  0.00     0.046 A 
HETATM    9  N   UNL     1      43.044 -17.541   4.507  1.00  0.00    -0.356 N 
HETATM   10  H   UNL     1      43.250 -17.150   5.418  1.00  0.00     0.166 HD
HETATM   11  C   UNL     1      43.610 -18.698   4.011  1.00  0.00     0.043 A 
HETATM   12  C   UNL     1      43.058 -18.929   2.748  1.00  0.00    -0.001 A 
HETATM   13  C   UNL     1      44.563 -19.552   4.578  1.00  0.00     0.030 A 
HETATM   14  C   UNL     1      44.960 -20.669   3.835  1.00  0.00     0.002 A 
HETATM   15  C   UNL     1      44.419 -20.926   2.577  1.00  0.00     0.001 A 
HETATM   16  C   UNL     1      43.466 -20.065   2.023  1.00  0.00     0.014 A 
ENDROOT
BRANCH   1  17
HETATM   17  C   UNL     1      41.824 -14.637   4.678  1.00  0.00     0.063 A 
HETATM   18  N   UNL     1      43.063 -14.784   5.232  1.00  0.00    -0.256 NA
HETATM   19  C   UNL     1      43.490 -13.862   6.128  1.00  0.00     0.031 A 
HETATM   20  C   UNL     1      44.838 -14.077   6.746  1.00  0.00     0.070 C 
HETATM   21  C   UNL     1      42.726 -12.758   6.486  1.00  0.00     0.027 A 
HETATM   22  C   UNL     1      41.469 -12.606   5.916  1.00  0.00     0.004 A 
HETATM   23  C   UNL     1      41.008 -13.556   5.009  1.00  0.00     0.030 A 
ENDBRANCH   1  17
BRANCH   3  24
HETATM   24  C   UNL     1      41.722 -14.121   0.158  1.00  0.00     0.141 C 
BRANCH  24  25
HETATM   25  C   UNL     1      41.437 -12.675  -0.179  1.00  0.00    -0.047 A 
HETATM   26  C   UNL     1      42.338 -11.891  -0.915  1.00  0.00     0.047 A 
HETATM   27  C   UNL     1      42.046 -10.554  -1.219  1.00  0.00     0.102 A 
HETATM   28  C   UNL     1      40.817  -9.999  -0.811  1.00  0.00     0.101 A 
HETATM   29  C   UNL     1      39.906 -10.790  -0.106  1.00  0.00     0.040 A 
HETATM   30  C   UNL     1      40.212 -12.117   0.203  1.00  0.00     0.010 A 
BRANCH  27  31
HETATM   31  O   UNL     1      42.888  -9.720  -1.914  1.00  0.00    -0.353 OA
HETATM   32  C   UNL     1      44.083  -9.308  -1.263  1.00  0.00     0.210 C 
ENDBRANCH  27  31
BRANCH  28  33
HETATM   33  O   UNL     1      40.601  -8.686  -1.150  1.00  0.00    -0.353 OA
HETATM   34  C   UNL     1      40.576  -7.732  -0.099  1.00  0.00     0.210 C 
ENDBRANCH  28  33
ENDBRANCH  24  25
ENDBRANCH   3  24
TORSDOF 5
ENDMDL
MODEL 5
REMARK VINA RESULT:      -8.5      3.027      6.131
REMARK  5 active torsions:
REMARK  status: ('A' for Active; 'I' for Inactive)
REMARK    1  A    between atoms: C_4  and  C_5 
REMARK       I    between atoms: N_6  and  C_7 
REMARK    2  A    between atoms: C_7  and  C_8 
REMARK    3  A    between atoms: C_8  and  C_9 
REMARK    4  A    between atoms: C_11  and  O_12 
REMARK    5  A    between atoms: C_14  and  O_15 
ROOT
HETATM    1  C   UNL     1      42.688 -14.349   2.987  1.00  0.00     0.189 C 
HETATM    2  N   UNL     1      41.901 -14.045   4.213  1.00  0.00    -0.336 N 
HETATM    3  C   UNL     1      40.517 -14.234   4.211  1.00  0.00     0.225 C 
HETATM    4  O   UNL     1      39.877 -14.574   3.215  1.00  0.00    -0.273 OA
HETATM    5  C   UNL     1      42.684 -14.263   5.448  1.00  0.00     0.132 C 
HETATM    6  C   UNL     1      42.973 -15.769   5.662  1.00  0.00     0.061 C 
HETATM    7  C   UNL     1      43.286 -16.436   4.358  1.00  0.00    -0.019 A 
HETATM    8  C   UNL     1      43.130 -15.787   3.141  1.00  0.00     0.046 A 
HETATM    9  N   UNL     1      43.520 -16.652   2.155  1.00  0.00    -0.356 N 
HETATM   10  H   UNL     1      43.548 -16.446   1.165  1.00  0.00     0.166 HD
HETATM   11  C   UNL     1      43.829 -17.880   2.705  1.00  0.00     0.043 A 
HETATM   12  C   UNL     1      43.704 -17.764   4.091  1.00  0.00    -0.001 A 
HETATM   13  C   UNL     1      44.206 -19.077   2.084  1.00  0.00     0.030 A 
HETATM   14  C   UNL     1      44.462 -20.181   2.903  1.00  0.00     0.002 A 
HETATM   15  C   UNL     1      44.352 -20.091   4.289  1.00  0.00     0.001 A 
HETATM   16  C   UNL     1      43.977 -18.888   4.896  1.00  0.00     0.014 A 
ENDROOT
BRANCH   1  17
HETATM   17  C   UNL     1      42.145 -13.858   1.647  1.00  0.00     0.063 A 
HETATM   18  N   UNL     1      41.826 -14.828   0.741  1.00  0.00    -0.256 NA
HETATM   19  C   UNL     1      41.349 -14.456  -0.471  1.00  0.00     0.031 A 
HETATM   20  C   UNL     1      41.048 -15.546  -1.455  1.00  0.00     0.070 C 
HETATM   21  C   UNL     1      41.147 -13.127  -0.819  1.00  0.00     0.027 A 
HETATM   22  C   UNL     1      41.466 -12.141   0.106  1.00  0.00     0.004 A 
HETATM   23  C   UNL     1      41.976 -12.507   1.349  1.00  0.00     0.030 A 
ENDBRANCH   1  17
BRANCH   3  24
HETATM   24  C   UNL     1      39.756 -14.025   5.515  1.00  0.00     0.141 C 
BRANCH  24  25
HETATM   25  C   UNL     1      39.624 -12.596   5.990  1.00  0.00    -0.047 A 
HETATM   26  C   UNL     1      39.524 -12.268   7.351  1.00  0.00     0.047 A 
HETATM   27  C   UNL     1      39.408 -10.934   7.763  1.00  0.00     0.102 A 
HETATM   28  C   UNL     1      39.429  -9.904   6.803  1.00  0.00     0.101 A 
HETATM   29  C   UNL     1      39.562 -10.227   5.450  1.00  0.00     0.040 A 
HETATM   30  C   UNL     1      39.663 -11.561   5.049  1.00  0.00     0.010 A 
BRANCH  27  31
HETATM   31  O   UNL     1      39.283 -10.541   9.073  1.00  0.00    -0.353 OA
HETATM   32  C   UNL     1      40.383 -10.793   9.938  1.00  0.00     0.210 C 
ENDBRANCH  27  31
BRANCH  28  33
HETATM   33  O   UNL     1      39.316  -8.622   7.284  1.00  0.00    -0.353 OA
HETATM   34  C   UNL     1      38.234  -7.836   6.809  1.00  0.00     0.210 C 
ENDBRANCH  28  33
ENDBRANCH  24  25
ENDBRANCH   3  24
TORSDOF 5
ENDMDL
MODEL 6
REMARK VINA RESULT:      -8.5      2.699      5.683
REMARK  5 active torsions:
REMARK  status: ('A' for Active; 'I' for Inactive)
REMARK    1  A    between atoms: C_4  and  C_5 
REMARK       I    between atoms: N_6  and  C_7 
REMARK    2  A    between atoms: C_7  and  C_8 
REMARK    3  A    between atoms: C_8  and  C_9 
REMARK    4  A    between atoms: C_11  and  O_12 
REMARK    5  A    between atoms: C_14  and  O_15 
ROOT
HETATM    1  C   UNL     1      43.011 -15.782   2.684  1.00  0.00     0.189 C 
HETATM    2  N   UNL     1      42.380 -15.246   3.921  1.00  0.00    -0.336 N 
HETATM    3  C   UNL     1      41.002 -15.380   4.108  1.00  0.00     0.225 C 
HETATM    4  O   UNL     1      40.243 -15.859   3.264  1.00  0.00    -0.273 OA
HETATM    5  C   UNL     1      43.299 -15.281   5.078  1.00  0.00     0.132 C 
HETATM    6  C   UNL     1      43.585 -16.739   5.514  1.00  0.00     0.061 C 
HETATM    7  C   UNL     1      43.730 -17.628   4.318  1.00  0.00    -0.019 A 
HETATM    8  C   UNL     1      43.442 -17.189   3.033  1.00  0.00     0.046 A 
HETATM    9  N   UNL     1      43.698 -18.222   2.173  1.00  0.00    -0.356 N 
HETATM   10  H   UNL     1      43.613 -18.187   1.165  1.00  0.00     0.166 HD
HETATM   11  C   UNL     1      44.048 -19.350   2.887  1.00  0.00     0.043 A 
HETATM   12  C   UNL     1      44.090 -18.997   4.238  1.00  0.00    -0.001 A 
HETATM   13  C   UNL     1      44.328 -20.648   2.443  1.00  0.00     0.030 A 
HETATM   14  C   UNL     1      44.660 -21.607   3.405  1.00  0.00     0.002 A 
HETATM   15  C   UNL     1      44.716 -21.280   4.758  1.00  0.00     0.001 A 
HETATM   16  C   UNL     1      44.436 -19.978   5.188  1.00  0.00     0.014 A 
ENDROOT
BRANCH   1  17
HETATM   17  C   UNL     1      42.322 -15.504   1.350  1.00  0.00     0.063 A 
HETATM   18  N   UNL     1      42.149 -14.187   1.031  1.00  0.00    -0.256 NA
HETATM   19  C   UNL     1      41.535 -13.875  -0.135  1.00  0.00     0.031 A 
HETATM   20  C   UNL     1      41.325 -12.421  -0.433  1.00  0.00     0.070 C 
HETATM   21  C   UNL     1      41.097 -14.841  -1.031  1.00  0.00     0.027 A 
HETATM   22  C   UNL     1      41.279 -16.179  -0.709  1.00  0.00     0.004 A 
HETATM   23  C   UNL     1      41.891 -16.517   0.495  1.00  0.00     0.030 A 
ENDBRANCH   1  17
BRANCH   3  24
HETATM   24  C   UNL     1      40.404 -14.925   5.435  1.00  0.00     0.141 C 
BRANCH  24  25
HETATM   25  C   UNL     1      40.046 -13.460   5.538  1.00  0.00    -0.047 A 
HETATM   26  C   UNL     1      39.713 -12.859   6.762  1.00  0.00     0.047 A 
HETATM   27  C   UNL     1      39.391 -11.497   6.830  1.00  0.00     0.102 A 
HETATM   28  C   UNL     1      39.437 -10.711   5.663  1.00  0.00     0.101 A 
HETATM   29  C   UNL     1      39.803 -11.302   4.450  1.00  0.00     0.040 A 
HETATM   30  C   UNL     1      40.108 -12.663   4.390  1.00  0.00     0.010 A 
BRANCH  27  31
HETATM   31  O   UNL     1      39.032 -10.847   7.986  1.00  0.00    -0.353 OA
HETATM   32  C   UNL     1      40.033 -10.692   8.984  1.00  0.00     0.210 C 
ENDBRANCH  27  31
BRANCH  28  33
HETATM   33  O   UNL     1      39.115  -9.384   5.810  1.00  0.00    -0.353 OA
HETATM   34  C   UNL     1      38.390  -8.764   4.758  1.00  0.00     0.210 C 
ENDBRANCH  28  33
ENDBRANCH  24  25
ENDBRANCH   3  24
TORSDOF 5
ENDMDL
MODEL 7
REMARK VINA RESULT:      -8.4      1.548      2.753
REMARK  5 active torsions:
REMARK  status: ('A' for Active; 'I' for Inactive)
REMARK    1  A    between atoms: C_4  and  C_5 
REMARK       I    between atoms: N_6  and  C_7 
REMARK    2  A    between atoms: C_7  and  C_8 
REMARK    3  A    between atoms: C_8  and  C_9 
REMARK    4  A    between atoms: C_11  and  O_12 
REMARK    5  A    between atoms: C_14  and  O_15 
ROOT
HETATM    1  C   UNL     1      40.603 -15.382   3.445  1.00  0.00     0.189 C 
HETATM    2  N   UNL     1      40.741 -15.652   1.988  1.00  0.00    -0.336 N 
HETATM    3  C   UNL     1      41.506 -14.794   1.195  1.00  0.00     0.225 C 
HETATM    4  O   UNL     1      42.027 -13.760   1.616  1.00  0.00    -0.273 OA
HETATM    5  C   UNL     1      40.674 -17.096   1.677  1.00  0.00     0.132 C 
HETATM    6  C   UNL     1      41.919 -17.838   2.223  1.00  0.00     0.061 C 
HETATM    7  C   UNL     1      42.308 -17.299   3.566  1.00  0.00    -0.019 A 
HETATM    8  C   UNL     1      41.718 -16.164   4.104  1.00  0.00     0.046 A 
HETATM    9  N   UNL     1      42.270 -15.952   5.338  1.00  0.00    -0.356 N 
HETATM   10  H   UNL     1      42.013 -15.216   5.983  1.00  0.00     0.166 HD
HETATM   11  C   UNL     1      43.276 -16.870   5.564  1.00  0.00     0.043 A 
HETATM   12  C   UNL     1      43.308 -17.738   4.469  1.00  0.00    -0.001 A 
HETATM   13  C   UNL     1      44.155 -16.996   6.646  1.00  0.00     0.030 A 
HETATM   14  C   UNL     1      45.089 -18.037   6.607  1.00  0.00     0.002 A 
HETATM   15  C   UNL     1      45.137 -18.921   5.531  1.00  0.00     0.001 A 
HETATM   16  C   UNL     1      44.251 -18.784   4.457  1.00  0.00     0.014 A 
ENDROOT
BRANCH   1  17
HETATM   17  C   UNL     1      40.313 -13.949   3.884  1.00  0.00     0.063 A 
HETATM   18  N   UNL     1      41.094 -13.465   4.895  1.00  0.00    -0.256 NA
HETATM   19  C   UNL     1      40.880 -12.203   5.336  1.00  0.00     0.031 A 
HETATM   20  C   UNL     1      41.728 -11.720   6.473  1.00  0.00     0.070 C 
HETATM   21  C   UNL     1      39.914 -11.372   4.784  1.00  0.00     0.027 A 
HETATM   22  C   UNL     1      39.125 -11.863   3.752  1.00  0.00     0.004 A 
HETATM   23  C   UNL     1      39.320 -13.165   3.300  1.00  0.00     0.030 A 
ENDBRANCH   1  17
BRANCH   3  24
HETATM   24  C   UNL     1      41.723 -15.161  -0.269  1.00  0.00     0.141 C 
BRANCH  24  25
HETATM   25  C   UNL     1      40.618 -14.774  -1.225  1.00  0.00    -0.047 A 
HETATM   26  C   UNL     1      39.612 -13.861  -0.872  1.00  0.00     0.047 A 
HETATM   27  C   UNL     1      38.602 -13.516  -1.781  1.00  0.00     0.102 A 
HETATM   28  C   UNL     1      38.616 -14.065  -3.078  1.00  0.00     0.101 A 
HETATM   29  C   UNL     1      39.636 -14.948  -3.441  1.00  0.00     0.040 A 
HETATM   30  C   UNL     1      40.630 -15.295  -2.524  1.00  0.00     0.010 A 
BRANCH  27  31
HETATM   31  O   UNL     1      37.575 -12.650  -1.498  1.00  0.00    -0.353 OA
HETATM   32  C   UNL     1      37.918 -11.394  -0.928  1.00  0.00     0.210 C 
ENDBRANCH  27  31
BRANCH  28  33
HETATM   33  O   UNL     1      37.597 -13.675  -3.913  1.00  0.00    -0.353 OA
HETATM   34  C   UNL     1      36.649 -14.660  -4.297  1.00  0.00     0.210 C 
ENDBRANCH  28  33
ENDBRANCH  24  25
ENDBRANCH   3  24
TORSDOF 5
ENDMDL
MODEL 8
REMARK VINA RESULT:      -8.2      2.402      8.015
REMARK  5 active torsions:
REMARK  status: ('A' for Active; 'I' for Inactive)
REMARK    1  A    between atoms: C_4  and  C_5 
REMARK       I    between atoms: N_6  and  C_7 
REMARK    2  A    between atoms: C_7  and  C_8 
REMARK    3  A    between atoms: C_8  and  C_9 
REMARK    4  A    between atoms: C_11  and  O_12 
REMARK    5  A    between atoms: C_14  and  O_15 
ROOT
HETATM    1  C   UNL     1      41.474 -13.875   0.989  1.00  0.00     0.189 C 
HETATM    2  N   UNL     1      41.699 -15.343   0.883  1.00  0.00    -0.336 N 
HETATM    3  C   UNL     1      40.978 -16.214   1.703  1.00  0.00     0.225 C 
HETATM    4  O   UNL     1      40.201 -15.837   2.581  1.00  0.00    -0.273 OA
HETATM    5  C   UNL     1      42.090 -15.752  -0.483  1.00  0.00     0.132 C 
HETATM    6  C   UNL     1      40.913 -15.574  -1.472  1.00  0.00     0.061 C 
HETATM    7  C   UNL     1      40.157 -14.316  -1.171  1.00  0.00    -0.019 A 
HETATM    8  C   UNL     1      40.404 -13.561  -0.033  1.00  0.00     0.046 A 
HETATM    9  N   UNL     1      39.574 -12.474  -0.066  1.00  0.00    -0.356 N 
HETATM   10  H   UNL     1      39.550 -11.726   0.616  1.00  0.00     0.166 HD
HETATM   11  C   UNL     1      38.725 -12.566  -1.151  1.00  0.00     0.043 A 
HETATM   12  C   UNL     1      39.084 -13.709  -1.871  1.00  0.00    -0.001 A 
HETATM   13  C   UNL     1      37.674 -11.730  -1.547  1.00  0.00     0.030 A 
HETATM   14  C   UNL     1      36.974 -12.073  -2.709  1.00  0.00     0.002 A 
HETATM   15  C   UNL     1      37.315 -13.203  -3.449  1.00  0.00     0.001 A 
HETATM   16  C   UNL     1      38.370 -14.028  -3.042  1.00  0.00     0.014 A 
ENDROOT
BRANCH   1  17
HETATM   17  C   UNL     1      41.399 -13.261   2.384  1.00  0.00     0.063 A 
HETATM   18  N   UNL     1      40.195 -12.720   2.734  1.00  0.00    -0.256 NA
HETATM   19  C   UNL     1      40.067 -12.150   3.956  1.00  0.00     0.031 A 
HETATM   20  C   UNL     1      38.744 -11.531   4.291  1.00  0.00     0.070 C 
HETATM   21  C   UNL     1      41.106 -12.115   4.877  1.00  0.00     0.027 A 
HETATM   22  C   UNL     1      42.328 -12.671   4.522  1.00  0.00     0.004 A 
HETATM   23  C   UNL     1      42.481 -13.244   3.263  1.00  0.00     0.030 A 
ENDBRANCH   1  17
BRANCH   3  24
HETATM   24  C   UNL     1      41.147 -17.715   1.491  1.00  0.00     0.141 C 
BRANCH  24  25
HETATM   25  C   UNL     1      42.253 -18.380   2.278  1.00  0.00    -0.047 A 
HETATM   26  C   UNL     1      42.635 -17.931   3.551  1.00  0.00     0.047 A 
HETATM   27  C   UNL     1      43.660 -18.570   4.262  1.00  0.00     0.102 A 
HETATM   28  C   UNL     1      44.291 -19.701   3.708  1.00  0.00     0.101 A 
HETATM   29  C   UNL     1      43.888 -20.169   2.454  1.00  0.00     0.040 A 
HETATM   30  C   UNL     1      42.875 -19.516   1.749  1.00  0.00     0.010 A 
BRANCH  27  31
HETATM   31  O   UNL     1      44.103 -18.173   5.500  1.00  0.00    -0.353 OA
HETATM   32  C   UNL     1      43.186 -18.268   6.582  1.00  0.00     0.210 C 
ENDBRANCH  27  31
BRANCH  28  33
HETATM   33  O   UNL     1      45.282 -20.276   4.465  1.00  0.00    -0.353 OA
HETATM   34  C   UNL     1      45.042 -21.577   4.982  1.00  0.00     0.210 C 
ENDBRANCH  28  33
ENDBRANCH  24  25
ENDBRANCH   3  24
TORSDOF 5
ENDMDL
MODEL 9
REMARK VINA RESULT:      -8.1      2.471      7.988
REMARK  5 active torsions:
REMARK  status: ('A' for Active; 'I' for Inactive)
REMARK    1  A    between atoms: C_4  and  C_5 
REMARK       I    between atoms: N_6  and  C_7 
REMARK    2  A    between atoms: C_7  and  C_8 
REMARK    3  A    between atoms: C_8  and  C_9 
REMARK    4  A    between atoms: C_11  and  O_12 
REMARK    5  A    between atoms: C_14  and  O_15 
ROOT
HETATM    1  C   UNL     1      42.015 -13.767   2.513  1.00  0.00     0.189 C 
HETATM    2  N   UNL     1      42.143 -15.162   2.008  1.00  0.00    -0.336 N 
HETATM    3  C   UNL     1      41.687 -16.225   2.791  1.00  0.00     0.225 C 
HETATM    4  O   UNL     1      41.243 -16.090   3.932  1.00  0.00    -0.273 OA
HETATM    5  C   UNL     1      42.066 -15.232   0.533  1.00  0.00     0.132 C 
HETATM    6  C   UNL     1      40.642 -14.879   0.036  1.00  0.00     0.061 C 
HETATM    7  C   UNL     1      40.067 -13.754   0.840  1.00  0.00    -0.019 A 
HETATM    8  C   UNL     1      40.689 -13.270   1.983  1.00  0.00     0.046 A 
HETATM    9  N   UNL     1      39.931 -12.238   2.464  1.00  0.00    -0.356 N 
HETATM   10  H   UNL     1      40.152 -11.667   3.270  1.00  0.00     0.166 HD
HETATM   11  C   UNL     1      38.779 -12.113   1.713  1.00  0.00     0.043 A 
HETATM   12  C   UNL     1      38.850 -13.046   0.676  1.00  0.00    -0.001 A 
HETATM   13  C   UNL     1      37.688 -11.251   1.873  1.00  0.00     0.030 A 
HETATM   14  C   UNL     1      36.643 -11.347   0.947  1.00  0.00     0.002 A 
HETATM   15  C   UNL     1      36.692 -12.263  -0.101  1.00  0.00     0.001 A 
HETATM   16  C   UNL     1      37.790 -13.117  -0.250  1.00  0.00     0.014 A 
ENDROOT
BRANCH   1  17
HETATM   17  C   UNL     1      42.409 -13.491   3.962  1.00  0.00     0.063 A 
HETATM   18  N   UNL     1      41.509 -12.775   4.699  1.00  0.00    -0.256 NA
HETATM   19  C   UNL     1      41.805 -12.488   5.989  1.00  0.00     0.031 A 
HETATM   20  C   UNL     1      40.813 -11.666   6.755  1.00  0.00     0.070 C 
HETATM   21  C   UNL     1      42.977 -12.915   6.600  1.00  0.00     0.027 A 
HETATM   22  C   UNL     1      43.888 -13.648   5.851  1.00  0.00     0.004 A 
HETATM   23  C   UNL     1      43.607 -13.935   4.518  1.00  0.00     0.030 A 
ENDBRANCH   1  17
BRANCH   3  24
HETATM   24  C   UNL     1      41.726 -17.629   2.199  1.00  0.00     0.141 C 
BRANCH  24  25
HETATM   25  C   UNL     1      42.723 -18.586   2.813  1.00  0.00    -0.047 A 
HETATM   26  C   UNL     1      43.130 -18.480   4.152  1.00  0.00     0.047 A 
HETATM   27  C   UNL     1      44.051 -19.384   4.697  1.00  0.00     0.102 A 
HETATM   28  C   UNL     1      44.550 -20.435   3.902  1.00  0.00     0.101 A 
HETATM   29  C   UNL     1      44.119 -20.561   2.578  1.00  0.00     0.040 A 
HETATM   30  C   UNL     1      43.211 -19.646   2.041  1.00  0.00     0.010 A 
BRANCH  27  31
HETATM   31  O   UNL     1      44.512 -19.329   5.989  1.00  0.00    -0.353 OA
HETATM   32  C   UNL     1      45.171 -18.137   6.397  1.00  0.00     0.210 C 
ENDBRANCH  27  31
BRANCH  28  33
HETATM   33  O   UNL     1      45.444 -21.283   4.508  1.00  0.00    -0.353 OA
HETATM   34  C   UNL     1      44.978 -22.570   4.884  1.00  0.00     0.210 C 
ENDBRANCH  28  33
ENDBRANCH  24  25
ENDBRANCH   3  24
TORSDOF 5
ENDMDL
MODEL 10
REMARK VINA RESULT:      -8.1      2.438      7.883
REMARK  5 active torsions:
REMARK  status: ('A' for Active; 'I' for Inactive)
REMARK    1  A    between atoms: C_4  and  C_5 
REMARK       I    between atoms: N_6  and  C_7 
REMARK    2  A    between atoms: C_7  and  C_8 
REMARK    3  A    between atoms: C_8  and  C_9 
REMARK    4  A    between atoms: C_11  and  O_12 
REMARK    5  A    between atoms: C_14  and  O_15 
ROOT
HETATM    1  C   UNL     1      41.445 -13.655   1.278  1.00  0.00     0.189 C 
HETATM    2  N   UNL     1      41.606 -15.133   1.205  1.00  0.00    -0.336 N 
HETATM    3  C   UNL     1      40.790 -15.956   1.985  1.00  0.00     0.225 C 
HETATM    4  O   UNL     1      39.975 -15.530   2.804  1.00  0.00    -0.273 OA
HETATM    5  C   UNL     1      42.067 -15.581  -0.126  1.00  0.00     0.132 C 
HETATM    6  C   UNL     1      40.968 -15.363  -1.195  1.00  0.00     0.061 C 
HETATM    7  C   UNL     1      40.256 -14.065  -0.961  1.00  0.00    -0.019 A 
HETATM    8  C   UNL     1      40.463 -13.306   0.182  1.00  0.00     0.046 A 
HETATM    9  N   UNL     1      39.690 -12.181   0.080  1.00  0.00    -0.356 N 
HETATM   10  H   UNL     1      39.658 -11.423   0.749  1.00  0.00     0.166 HD
HETATM   11  C   UNL     1      38.913 -12.249  -1.059  1.00  0.00     0.043 A 
HETATM   12  C   UNL     1      39.263 -13.419  -1.739  1.00  0.00    -0.001 A 
HETATM   13  C   UNL     1      37.933 -11.371  -1.535  1.00  0.00     0.030 A 
HETATM   14  C   UNL     1      37.296 -11.697  -2.737  1.00  0.00     0.002 A 
HETATM   15  C   UNL     1      37.631 -12.853  -3.439  1.00  0.00     0.001 A 
HETATM   16  C   UNL     1      38.614 -13.721  -2.952  1.00  0.00     0.014 A 
ENDROOT
BRANCH   1  17
HETATM   17  C   UNL     1      41.307 -13.016   2.658  1.00  0.00     0.063 A 
HETATM   18  N   UNL     1      40.114 -12.403   2.914  1.00  0.00    -0.256 NA
HETATM   19  C   UNL     1      39.933 -11.808   4.118  1.00  0.00     0.031 A 
HETATM   20  C   UNL     1      38.627 -11.110   4.350  1.00  0.00     0.070 C 
HETATM   21  C   UNL     1      40.905 -11.819   5.110  1.00  0.00     0.027 A 
HETATM   22  C   UNL     1      42.115 -12.449   4.850  1.00  0.00     0.004 A 
HETATM   23  C   UNL     1      42.323 -13.048   3.611  1.00  0.00     0.030 A 
ENDBRANCH   1  17
BRANCH   3  24
HETATM   24  C   UNL     1      40.900 -17.466   1.802  1.00  0.00     0.141 C 
BRANCH  24  25
HETATM   25  C   UNL     1      41.972 -18.160   2.611  1.00  0.00    -0.047 A 
HETATM   26  C   UNL     1      42.877 -19.061   2.030  1.00  0.00     0.047 A 
HETATM   27  C   UNL     1      43.866 -19.687   2.802  1.00  0.00     0.102 A 
HETATM   28  C   UNL     1      43.976 -19.380   4.173  1.00  0.00     0.101 A 
HETATM   29  C   UNL     1      43.096 -18.457   4.745  1.00  0.00     0.040 A 
HETATM   30  C   UNL     1      42.107 -17.851   3.969  1.00  0.00     0.010 A 
BRANCH  27  31
HETATM   31  O   UNL     1      44.770 -20.595   2.309  1.00  0.00    -0.353 OA
HETATM   32  C   UNL     1      44.260 -21.843   1.856  1.00  0.00     0.210 C 
ENDBRANCH  27  31
BRANCH  28  33
HETATM   33  O   UNL     1      44.972 -20.028   4.862  1.00  0.00    -0.353 OA
HETATM   34  C   UNL     1      44.619 -21.203   5.577  1.00  0.00     0.210 C 
ENDBRANCH  28  33
ENDBRANCH  24  25
ENDBRANCH   3  24
TORSDOF 5
ENDMDL
