MODEL 1
REMARK VINA RESULT:      -9.4      0.000      0.000
REMARK  2 active torsions:
REMARK  status: ('A' for Active; 'I' for Inactive)
REMARK    1  A    between atoms: C_4  and  C_5 
REMARK       I    between atoms: N_12  and  C_13 
REMARK    2  A    between atoms: C_13  and  C_14 
ROOT
HETATM    1  C   UNL     1      40.259 -13.596  -0.465  1.00  0.00     0.097 A 
HETATM    2  N   UNL     1      39.027 -13.188  -0.098  1.00  0.00    -0.173 NA
HETATM    3  N   UNL     1      38.667 -14.004   0.903  1.00  0.00    -0.281 N 
HETATM    4  H   UNL     1      37.760 -13.860   1.335  1.00  0.00     0.189 HD
HETATM    5  C   UNL     1      39.617 -14.921   1.201  1.00  0.00     0.039 A 
HETATM    6  C   UNL     1      40.668 -14.703   0.340  1.00  0.00     0.015 A 
HETATM    7  C   UNL     1      41.915 -15.510   0.358  1.00  0.00     0.168 C 
HETATM    8  N   UNL     1      41.935 -16.475   1.483  1.00  0.00    -0.347 N 
HETATM    9  C   UNL     1      43.140 -17.167   1.615  1.00  0.00     0.226 C 
HETATM   10  O   UNL     1      44.126 -16.865   0.936  1.00  0.00    -0.273 OA
HETATM   11  C   UNL     1      40.633 -17.022   1.942  1.00  0.00     0.132 C 
HETATM   12  C   UNL     1      39.579 -15.942   2.263  1.00  0.00     0.079 C 
ENDROOT
BRANCH   9  13
HETATM   13  C   UNL     1      43.227 -18.287   2.638  1.00  0.00     0.106 C 
HETATM   14  C   UNL     1      43.995 -17.830   3.871  1.00  0.00     0.190 C 
HETATM   15  O   UNL     1      43.940 -18.806   4.919  1.00  0.00    -0.350 OA
HETATM   16  C   UNL     1      44.214 -20.089   4.519  1.00  0.00     0.075 A 
HETATM   17  C   UNL     1      44.222 -20.495   3.178  1.00  0.00    -0.024 A 
HETATM   18  C   UNL     1      44.451 -21.014   5.535  1.00  0.00     0.037 A 
HETATM   19  C   UNL     1      43.959 -19.507   2.077  1.00  0.00     0.057 C 
HETATM   20  C   UNL     1      44.508 -21.832   2.869  1.00  0.00     0.010 A 
HETATM   21  C   UNL     1      44.753 -22.754   3.888  1.00  0.00     0.001 A 
HETATM   22  C   UNL     1      44.723 -22.345   5.220  1.00  0.00     0.003 A 
ENDBRANCH   9  13
BRANCH   1  23
HETATM   23  C   UNL     1      40.983 -12.898  -1.536  1.00  0.00    -0.005 A 
HETATM   24  C   UNL     1      42.113 -12.125  -1.223  1.00  0.00     0.014 A 
HETATM   25  C   UNL     1      42.832 -11.462  -2.222  1.00  0.00     0.001 A 
HETATM   26  C   UNL     1      42.430 -11.560  -3.550  1.00  0.00     0.000 A 
HETATM   27  C   UNL     1      41.304 -12.312  -3.878  1.00  0.00     0.001 A 
HETATM   28  C   UNL     1      40.582 -12.971  -2.877  1.00  0.00     0.014 A 
ENDBRANCH   1  23
TORSDOF 2
ENDMDL
MODEL 2
REMARK VINA RESULT:      -9.1      4.958      6.558
REMARK  2 active torsions:
REMARK  status: ('A' for Active; 'I' for Inactive)
REMARK    1  A    between atoms: C_4  and  C_5 
REMARK       I    between atoms: N_12  and  C_13 
REMARK    2  A    between atoms: C_13  and  C_14 
ROOT
HETATM    1  C   UNL     1      41.397 -11.307   5.878  1.00  0.00     0.097 A 
HETATM    2  N   UNL     1      41.205 -10.349   4.950  1.00  0.00    -0.173 NA
HETATM    3  N   UNL     1      41.531 -10.918   3.780  1.00  0.00    -0.281 N 
HETATM    4  H   UNL     1      41.448 -10.360   2.936  1.00  0.00     0.189 HD
HETATM    5  C   UNL     1      41.923 -12.207   3.915  1.00  0.00     0.039 A 
HETATM    6  C   UNL     1      41.859 -12.507   5.256  1.00  0.00     0.015 A 
HETATM    7  C   UNL     1      42.209 -13.841   5.808  1.00  0.00     0.168 C 
HETATM    8  N   UNL     1      42.504 -14.824   4.739  1.00  0.00    -0.347 N 
HETATM    9  C   UNL     1      42.715 -16.123   5.206  1.00  0.00     0.226 C 
HETATM   10  O   UNL     1      42.514 -16.416   6.388  1.00  0.00    -0.273 OA
HETATM   11  C   UNL     1      43.099 -14.310   3.479  1.00  0.00     0.132 C 
HETATM   12  C   UNL     1      42.311 -13.144   2.846  1.00  0.00     0.079 C 
ENDROOT
BRANCH   9  13
HETATM   13  C   UNL     1      43.172 -17.184   4.219  1.00  0.00     0.106 C 
HETATM   14  C   UNL     1      42.022 -17.607   3.314  1.00  0.00     0.190 C 
HETATM   15  O   UNL     1      42.469 -18.476   2.264  1.00  0.00    -0.350 OA
HETATM   16  C   UNL     1      43.276 -19.503   2.679  1.00  0.00     0.075 A 
HETATM   17  C   UNL     1      43.896 -19.541   3.935  1.00  0.00    -0.024 A 
HETATM   18  C   UNL     1      43.498 -20.523   1.755  1.00  0.00     0.037 A 
HETATM   19  C   UNL     1      43.669 -18.441   4.934  1.00  0.00     0.057 C 
HETATM   20  C   UNL     1      44.710 -20.633   4.265  1.00  0.00     0.010 A 
HETATM   21  C   UNL     1      44.924 -21.657   3.341  1.00  0.00     0.001 A 
HETATM   22  C   UNL     1      44.320 -21.601   2.086  1.00  0.00     0.003 A 
ENDBRANCH   9  13
BRANCH   1  23
HETATM   23  C   UNL     1      41.108 -11.038   7.294  1.00  0.00    -0.005 A 
HETATM   24  C   UNL     1      39.800 -11.198   7.780  1.00  0.00     0.014 A 
HETATM   25  C   UNL     1      39.497 -10.963   9.124  1.00  0.00     0.001 A 
HETATM   26  C   UNL     1      40.498 -10.562  10.004  1.00  0.00     0.000 A 
HETATM   27  C   UNL     1      41.799 -10.387   9.536  1.00  0.00     0.001 A 
HETATM   28  C   UNL     1      42.100 -10.616   8.189  1.00  0.00     0.014 A 
ENDBRANCH   1  23
TORSDOF 2
ENDMDL
MODEL 3
REMARK VINA RESULT:      -8.9      2.572      9.065
REMARK  2 active torsions:
REMARK  status: ('A' for Active; 'I' for Inactive)
REMARK    1  A    between atoms: C_4  and  C_5 
REMARK       I    between atoms: N_12  and  C_13 
REMARK    2  A    between atoms: C_13  and  C_14 
ROOT
HETATM    1  C   UNL     1      44.101 -18.628   4.885  1.00  0.00     0.097 A 
HETATM    2  N   UNL     1      44.638 -18.151   6.026  1.00  0.00    -0.173 NA
HETATM    3  N   UNL     1      44.218 -16.880   6.111  1.00  0.00    -0.281 N 
HETATM    4  H   UNL     1      44.508 -16.333   6.915  1.00  0.00     0.189 HD
HETATM    5  C   UNL     1      43.428 -16.518   5.073  1.00  0.00     0.039 A 
HETATM    6  C   UNL     1      43.324 -17.613   4.248  1.00  0.00     0.015 A 
HETATM    7  C   UNL     1      42.527 -17.613   2.993  1.00  0.00     0.168 C 
HETATM    8  N   UNL     1      41.770 -16.351   2.817  1.00  0.00    -0.347 N 
HETATM    9  C   UNL     1      40.909 -16.355   1.718  1.00  0.00     0.226 C 
HETATM   10  O   UNL     1      40.711 -17.386   1.068  1.00  0.00    -0.273 OA
HETATM   11  C   UNL     1      42.364 -15.110   3.376  1.00  0.00     0.132 C 
HETATM   12  C   UNL     1      42.761 -15.221   4.862  1.00  0.00     0.079 C 
ENDROOT
BRANCH   9  13
HETATM   13  C   UNL     1      40.193 -15.066   1.351  1.00  0.00     0.106 C 
HETATM   14  C   UNL     1      38.722 -15.139   1.739  1.00  0.00     0.190 C 
HETATM   15  O   UNL     1      38.067 -13.876   1.564  1.00  0.00    -0.350 OA
HETATM   16  C   UNL     1      38.310 -13.270   0.358  1.00  0.00     0.075 A 
HETATM   17  C   UNL     1      39.348 -13.649  -0.503  1.00  0.00    -0.024 A 
HETATM   18  C   UNL     1      37.482 -12.197   0.031  1.00  0.00     0.037 A 
HETATM   19  C   UNL     1      40.250 -14.799  -0.154  1.00  0.00     0.057 C 
HETATM   20  C   UNL     1      39.520 -12.964  -1.712  1.00  0.00     0.010 A 
HETATM   21  C   UNL     1      38.684 -11.895  -2.042  1.00  0.00     0.001 A 
HETATM   22  C   UNL     1      37.668 -11.511  -1.169  1.00  0.00     0.003 A 
ENDBRANCH   9  13
BRANCH   1  23
HETATM   23  C   UNL     1      44.334 -20.022   4.481  1.00  0.00    -0.005 A 
HETATM   24  C   UNL     1      44.558 -21.002   5.462  1.00  0.00     0.014 A 
HETATM   25  C   UNL     1      44.768 -22.339   5.109  1.00  0.00     0.001 A 
HETATM   26  C   UNL     1      44.759 -22.715   3.770  1.00  0.00     0.000 A 
HETATM   27  C   UNL     1      44.550 -21.754   2.783  1.00  0.00     0.001 A 
HETATM   28  C   UNL     1      44.346 -20.415   3.136  1.00  0.00     0.014 A 
ENDBRANCH   1  23
TORSDOF 2
ENDMDL
MODEL 4
REMARK VINA RESULT:      -8.7      2.348      9.042
REMARK  2 active torsions:
REMARK  status: ('A' for Active; 'I' for Inactive)
REMARK    1  A    between atoms: C_4  and  C_5 
REMARK       I    between atoms: N_12  and  C_13 
REMARK    2  A    between atoms: C_13  and  C_14 
ROOT
HETATM    1  C   UNL     1      43.712 -18.126   3.926  1.00  0.00     0.097 A 
HETATM    2  N   UNL     1      43.962 -17.799   5.210  1.00  0.00    -0.173 NA
HETATM    3  N   UNL     1      43.633 -16.503   5.317  1.00  0.00    -0.281 N 
HETATM    4  H   UNL     1      43.740 -16.055   6.221  1.00  0.00     0.189 HD
HETATM    5  C   UNL     1      43.177 -15.981   4.154  1.00  0.00     0.039 A 
HETATM    6  C   UNL     1      43.212 -16.989   3.220  1.00  0.00     0.015 A 
HETATM    7  C   UNL     1      42.780 -16.807   1.810  1.00  0.00     0.168 C 
HETATM    8  N   UNL     1      42.195 -15.466   1.577  1.00  0.00    -0.347 N 
HETATM    9  C   UNL     1      41.660 -15.294   0.300  1.00  0.00     0.226 C 
HETATM   10  O   UNL     1      41.562 -16.243  -0.483  1.00  0.00    -0.273 OA
HETATM   11  C   UNL     1      42.713 -14.340   2.396  1.00  0.00     0.132 C 
HETATM   12  C   UNL     1      42.691 -14.610   3.915  1.00  0.00     0.079 C 
ENDROOT
BRANCH   9  13
HETATM   13  C   UNL     1      41.168 -13.914  -0.103  1.00  0.00     0.106 C 
HETATM   14  C   UNL     1      39.752 -13.989  -0.659  1.00  0.00     0.190 C 
HETATM   15  O   UNL     1      39.203 -12.683  -0.882  1.00  0.00    -0.350 OA
HETATM   16  C   UNL     1      40.034 -11.821  -1.550  1.00  0.00     0.075 A 
HETATM   17  C   UNL     1      41.407 -12.045  -1.718  1.00  0.00    -0.024 A 
HETATM   18  C   UNL     1      39.447 -10.653  -2.035  1.00  0.00     0.037 A 
HETATM   19  C   UNL     1      42.048 -13.297  -1.191  1.00  0.00     0.057 C 
HETATM   20  C   UNL     1      42.175 -11.100  -2.411  1.00  0.00     0.010 A 
HETATM   21  C   UNL     1      41.584  -9.935  -2.904  1.00  0.00     0.001 A 
HETATM   22  C   UNL     1      40.221  -9.711  -2.713  1.00  0.00     0.003 A 
ENDBRANCH   9  13
BRANCH   1  23
HETATM   23  C   UNL     1      43.936 -19.499   3.452  1.00  0.00    -0.005 A 
HETATM   24  C   UNL     1      44.615 -20.416   4.273  1.00  0.00     0.014 A 
HETATM   25  C   UNL     1      44.830 -21.733   3.856  1.00  0.00     0.001 A 
HETATM   26  C   UNL     1      44.372 -22.153   2.611  1.00  0.00     0.000 A 
HETATM   27  C   UNL     1      43.709 -21.253   1.780  1.00  0.00     0.001 A 
HETATM   28  C   UNL     1      43.498 -19.934   2.194  1.00  0.00     0.014 A 
ENDBRANCH   1  23
TORSDOF 2
ENDMDL
MODEL 5
REMARK VINA RESULT:      -8.7      3.560      9.188
REMARK  2 active torsions:
REMARK  status: ('A' for Active; 'I' for Inactive)
REMARK    1  A    between atoms: C_4  and  C_5 
REMARK       I    between atoms: N_12  and  C_13 
REMARK    2  A    between atoms: C_13  and  C_14 
ROOT
HETATM    1  C   UNL     1      44.407 -18.812   5.011  1.00  0.00     0.097 A 
HETATM    2  N   UNL     1      45.144 -18.798   6.141  1.00  0.00    -0.173 NA
HETATM    3  N   UNL     1      44.923 -17.596   6.693  1.00  0.00    -0.281 N 
HETATM    4  H   UNL     1      45.386 -17.380   7.570  1.00  0.00     0.189 HD
HETATM    5  C   UNL     1      44.070 -16.834   5.968  1.00  0.00     0.039 A 
HETATM    6  C   UNL     1      43.710 -17.574   4.866  1.00  0.00     0.015 A 
HETATM    7  C   UNL     1      42.773 -17.078   3.825  1.00  0.00     0.168 C 
HETATM    8  N   UNL     1      42.187 -15.766   4.186  1.00  0.00    -0.347 N 
HETATM    9  C   UNL     1      41.205 -15.320   3.299  1.00  0.00     0.226 C 
HETATM   10  O   UNL     1      40.783 -16.049   2.397  1.00  0.00    -0.273 OA
HETATM   11  C   UNL     1      43.016 -14.845   5.004  1.00  0.00     0.132 C 
HETATM   12  C   UNL     1      43.574 -15.485   6.292  1.00  0.00     0.079 C 
ENDROOT
BRANCH   9  13
HETATM   13  C   UNL     1      40.641 -13.921   3.483  1.00  0.00     0.106 C 
HETATM   14  C   UNL     1      39.814 -13.839   4.759  1.00  0.00     0.190 C 
HETATM   15  O   UNL     1      39.418 -12.491   5.045  1.00  0.00    -0.350 OA
HETATM   16  C   UNL     1      38.888 -11.814   3.977  1.00  0.00     0.075 A 
HETATM   17  C   UNL     1      39.012 -12.244   2.650  1.00  0.00    -0.024 A 
HETATM   18  C   UNL     1      38.234 -10.618   4.270  1.00  0.00     0.037 A 
HETATM   19  C   UNL     1      39.722 -13.528   2.324  1.00  0.00     0.057 C 
HETATM   20  C   UNL     1      38.439 -11.479   1.625  1.00  0.00     0.010 A 
HETATM   21  C   UNL     1      37.777 -10.286   1.922  1.00  0.00     0.001 A 
HETATM   22  C   UNL     1      37.678  -9.855   3.243  1.00  0.00     0.003 A 
ENDBRANCH   9  13
BRANCH   1  23
HETATM   23  C   UNL     1      44.387 -20.005   4.153  1.00  0.00    -0.005 A 
HETATM   24  C   UNL     1      44.744 -21.253   4.689  1.00  0.00     0.014 A 
HETATM   25  C   UNL     1      44.721 -22.409   3.901  1.00  0.00     0.001 A 
HETATM   26  C   UNL     1      44.341 -22.332   2.565  1.00  0.00     0.000 A 
HETATM   27  C   UNL     1      43.995 -21.100   2.014  1.00  0.00     0.001 A 
HETATM   28  C   UNL     1      44.024 -19.943   2.801  1.00  0.00     0.014 A 
ENDBRANCH   1  23
TORSDOF 2
ENDMDL
MODEL 6
REMARK VINA RESULT:      -8.6      2.558      9.152
REMARK  2 active torsions:
REMARK  status: ('A' for Active; 'I' for Inactive)
REMARK    1  A    between atoms: C_4  and  C_5 
REMARK       I    between atoms: N_12  and  C_13 
REMARK    2  A    between atoms: C_13  and  C_14 
ROOT
HETATM    1  C   UNL     1      41.842 -17.251   3.431  1.00  0.00     0.097 A 
HETATM    2  N   UNL     1      41.380 -16.994   4.672  1.00  0.00    -0.173 NA
HETATM    3  N   UNL     1      40.589 -15.919   4.540  1.00  0.00    -0.281 N 
HETATM    4  H   UNL     1      40.127 -15.560   5.369  1.00  0.00     0.189 HD
HETATM    5  C   UNL     1      40.518 -15.474   3.263  1.00  0.00     0.039 A 
HETATM    6  C   UNL     1      41.315 -16.300   2.505  1.00  0.00     0.015 A 
HETATM    7  C   UNL     1      41.494 -16.136   1.040  1.00  0.00     0.168 C 
HETATM    8  N   UNL     1      40.619 -15.075   0.489  1.00  0.00    -0.347 N 
HETATM    9  C   UNL     1      40.660 -14.971  -0.903  1.00  0.00     0.226 C 
HETATM   10  O   UNL     1      41.261 -15.805  -1.586  1.00  0.00    -0.273 OA
HETATM   11  C   UNL     1      40.285 -13.931   1.376  1.00  0.00     0.132 C 
HETATM   12  C   UNL     1      39.717 -14.349   2.747  1.00  0.00     0.079 C 
ENDROOT
BRANCH   9  13
HETATM   13  C   UNL     1      39.920 -13.823  -1.568  1.00  0.00     0.106 C 
HETATM   14  C   UNL     1      38.590 -14.298  -2.138  1.00  0.00     0.190 C 
HETATM   15  O   UNL     1      37.798 -13.202  -2.614  1.00  0.00    -0.350 OA
HETATM   16  C   UNL     1      38.475 -12.313  -3.409  1.00  0.00     0.075 A 
HETATM   17  C   UNL     1      39.872 -12.261  -3.497  1.00  0.00    -0.024 A 
HETATM   18  C   UNL     1      37.692 -11.403  -4.119  1.00  0.00     0.037 A 
HETATM   19  C   UNL     1      40.723 -13.233  -2.729  1.00  0.00     0.057 C 
HETATM   20  C   UNL     1      40.471 -11.311  -4.333  1.00  0.00     0.010 A 
HETATM   21  C   UNL     1      39.686 -10.407  -5.050  1.00  0.00     0.001 A 
HETATM   22  C   UNL     1      38.297 -10.451  -4.940  1.00  0.00     0.003 A 
ENDBRANCH   9  13
BRANCH   1  23
HETATM   23  C   UNL     1      42.732 -18.396   3.193  1.00  0.00    -0.005 A 
HETATM   24  C   UNL     1      43.707 -18.730   4.148  1.00  0.00     0.014 A 
HETATM   25  C   UNL     1      44.558 -19.822   3.957  1.00  0.00     0.001 A 
HETATM   26  C   UNL     1      44.449 -20.597   2.806  1.00  0.00     0.000 A 
HETATM   27  C   UNL     1      43.496 -20.273   1.843  1.00  0.00     0.001 A 
HETATM   28  C   UNL     1      42.648 -19.176   2.032  1.00  0.00     0.014 A 
ENDBRANCH   1  23
TORSDOF 2
ENDMDL
MODEL 7
REMARK VINA RESULT:      -8.5      2.636      9.056
REMARK  2 active torsions:
REMARK  status: ('A' for Active; 'I' for Inactive)
REMARK    1  A    between atoms: C_4  and  C_5 
REMARK       I    between atoms: N_12  and  C_13 
REMARK    2  A    between atoms: C_13  and  C_14 
ROOT
HETATM    1  C   UNL     1      43.934 -17.359   5.727  1.00  0.00     0.097 A 
HETATM    2  N   UNL     1      44.353 -16.590   6.751  1.00  0.00    -0.173 NA
HETATM    3  N   UNL     1      44.026 -15.335   6.409  1.00  0.00    -0.281 N 
HETATM    4  H   UNL     1      44.251 -14.588   7.058  1.00  0.00     0.189 HD
HETATM    5  C   UNL     1      43.409 -15.264   5.207  1.00  0.00     0.039 A 
HETATM    6  C   UNL     1      43.328 -16.547   4.720  1.00  0.00     0.015 A 
HETATM    7  C   UNL     1      42.704 -16.885   3.414  1.00  0.00     0.168 C 
HETATM    8  N   UNL     1      42.077 -15.703   2.777  1.00  0.00    -0.347 N 
HETATM    9  C   UNL     1      41.370 -15.996   1.610  1.00  0.00     0.226 C 
HETATM   10  O   UNL     1      41.178 -17.164   1.258  1.00  0.00    -0.273 OA
HETATM   11  C   UNL     1      42.688 -14.375   3.041  1.00  0.00     0.132 C 
HETATM   12  C   UNL     1      42.878 -14.061   4.539  1.00  0.00     0.079 C 
ENDROOT
BRANCH   9  13
HETATM   13  C   UNL     1      40.811 -14.845   0.791  1.00  0.00     0.106 C 
HETATM   14  C   UNL     1      39.322 -14.669   1.058  1.00  0.00     0.190 C 
HETATM   15  O   UNL     1      38.810 -13.485   0.432  1.00  0.00    -0.350 OA
HETATM   16  C   UNL     1      39.177 -13.328  -0.879  1.00  0.00     0.075 A 
HETATM   17  C   UNL     1      40.214 -14.051  -1.484  1.00  0.00    -0.024 A 
HETATM   18  C   UNL     1      38.483 -12.359  -1.602  1.00  0.00     0.037 A 
HETATM   19  C   UNL     1      40.974 -15.092  -0.710  1.00  0.00     0.057 C 
HETATM   20  C   UNL     1      40.519 -13.815  -2.831  1.00  0.00     0.010 A 
HETATM   21  C   UNL     1      39.817 -12.850  -3.554  1.00  0.00     0.001 A 
HETATM   22  C   UNL     1      38.801 -12.121  -2.939  1.00  0.00     0.003 A 
ENDBRANCH   9  13
BRANCH   1  23
HETATM   23  C   UNL     1      44.108 -18.818   5.775  1.00  0.00    -0.005 A 
HETATM   24  C   UNL     1      43.580 -19.547   6.854  1.00  0.00     0.014 A 
HETATM   25  C   UNL     1      43.717 -20.937   6.920  1.00  0.00     0.001 A 
HETATM   26  C   UNL     1      44.386 -21.619   5.908  1.00  0.00     0.000 A 
HETATM   27  C   UNL     1      44.926 -20.911   4.837  1.00  0.00     0.001 A 
HETATM   28  C   UNL     1      44.794 -19.519   4.774  1.00  0.00     0.014 A 
ENDBRANCH   1  23
TORSDOF 2
ENDMDL
MODEL 8
REMARK VINA RESULT:      -8.3      4.387      5.713
REMARK  2 active torsions:
REMARK  status: ('A' for Active; 'I' for Inactive)
REMARK    1  A    between atoms: C_4  and  C_5 
REMARK       I    between atoms: N_12  and  C_13 
REMARK    2  A    between atoms: C_13  and  C_14 
ROOT
HETATM    1  C   UNL     1      41.186 -11.093   4.368  1.00  0.00     0.097 A 
HETATM    2  N   UNL     1      40.943 -10.322   3.289  1.00  0.00    -0.173 NA
HETATM    3  N   UNL     1      41.277 -11.076   2.232  1.00  0.00    -0.281 N 
HETATM    4  H   UNL     1      41.160 -10.680   1.305  1.00  0.00     0.189 HD
HETATM    5  C   UNL     1      41.724 -12.305   2.585  1.00  0.00     0.039 A 
HETATM    6  C   UNL     1      41.689 -12.365   3.958  1.00  0.00     0.015 A 
HETATM    7  C   UNL     1      42.101 -13.566   4.730  1.00  0.00     0.168 C 
HETATM    8  N   UNL     1      42.423 -14.710   3.846  1.00  0.00    -0.347 N 
HETATM    9  C   UNL     1      42.692 -15.897   4.530  1.00  0.00     0.226 C 
HETATM   10  O   UNL     1      42.518 -15.984   5.749  1.00  0.00    -0.273 OA
HETATM   11  C   UNL     1      42.979 -14.406   2.503  1.00  0.00     0.132 C 
HETATM   12  C   UNL     1      42.136 -13.401   1.690  1.00  0.00     0.079 C 
ENDROOT
BRANCH   9  13
HETATM   13  C   UNL     1      43.180 -17.098   3.737  1.00  0.00     0.106 C 
HETATM   14  C   UNL     1      42.066 -17.647   2.855  1.00  0.00     0.190 C 
HETATM   15  O   UNL     1      42.549 -18.667   1.970  1.00  0.00    -0.350 OA
HETATM   16  C   UNL     1      43.325 -19.624   2.572  1.00  0.00     0.075 A 
HETATM   17  C   UNL     1      43.887 -19.475   3.846  1.00  0.00    -0.024 A 
HETATM   18  C   UNL     1      43.575 -20.774   1.824  1.00  0.00     0.037 A 
HETATM   19  C   UNL     1      43.629 -18.235   4.656  1.00  0.00     0.057 C 
HETATM   20  C   UNL     1      44.672 -20.508   4.375  1.00  0.00     0.010 A 
HETATM   21  C   UNL     1      44.914 -21.662   3.627  1.00  0.00     0.001 A 
HETATM   22  C   UNL     1      44.368 -21.793   2.352  1.00  0.00     0.003 A 
ENDBRANCH   9  13
BRANCH   1  23
HETATM   23  C   UNL     1      40.905 -10.588   5.719  1.00  0.00    -0.005 A 
HETATM   24  C   UNL     1      39.940 -11.228   6.514  1.00  0.00     0.014 A 
HETATM   25  C   UNL     1      39.660 -10.780   7.809  1.00  0.00     0.001 A 
HETATM   26  C   UNL     1      40.341  -9.683   8.328  1.00  0.00     0.000 A 
HETATM   27  C   UNL     1      41.292  -9.028   7.549  1.00  0.00     0.001 A 
HETATM   28  C   UNL     1      41.567  -9.473   6.251  1.00  0.00     0.014 A 
ENDBRANCH   1  23
TORSDOF 2
ENDMDL
MODEL 9
REMARK VINA RESULT:      -8.2      2.226      2.814
REMARK  2 active torsions:
REMARK  status: ('A' for Active; 'I' for Inactive)
REMARK    1  A    between atoms: C_4  and  C_5 
REMARK       I    between atoms: N_12  and  C_13 
REMARK    2  A    between atoms: C_13  and  C_14 
ROOT
HETATM    1  C   UNL     1      40.069 -13.032  -0.988  1.00  0.00     0.097 A 
HETATM    2  N   UNL     1      38.780 -13.262  -1.313  1.00  0.00    -0.173 NA
HETATM    3  N   UNL     1      38.316 -14.086  -0.362  1.00  0.00    -0.281 N 
HETATM    4  H   UNL     1      37.347 -14.382  -0.416  1.00  0.00     0.189 HD
HETATM    5  C   UNL     1      39.252 -14.395   0.566  1.00  0.00     0.039 A 
HETATM    6  C   UNL     1      40.407 -13.741   0.205  1.00  0.00     0.015 A 
HETATM    7  C   UNL     1      41.668 -13.826   0.985  1.00  0.00     0.168 C 
HETATM    8  N   UNL     1      41.491 -14.583   2.246  1.00  0.00    -0.347 N 
HETATM    9  C   UNL     1      42.616 -14.581   3.072  1.00  0.00     0.226 C 
HETATM   10  O   UNL     1      43.595 -13.876   2.814  1.00  0.00    -0.273 OA
HETATM   11  C   UNL     1      40.480 -15.672   2.257  1.00  0.00     0.132 C 
HETATM   12  C   UNL     1      39.085 -15.235   1.766  1.00  0.00     0.079 C 
ENDROOT
BRANCH   9  13
HETATM   13  C   UNL     1      42.602 -15.447   4.321  1.00  0.00     0.106 C 
HETATM   14  C   UNL     1      43.304 -14.741   5.473  1.00  0.00     0.190 C 
HETATM   15  O   UNL     1      43.151 -15.459   6.704  1.00  0.00    -0.350 OA
HETATM   16  C   UNL     1      43.410 -16.803   6.616  1.00  0.00     0.075 A 
HETATM   17  C   UNL     1      43.491 -17.497   5.402  1.00  0.00    -0.024 A 
HETATM   18  C   UNL     1      43.553 -17.482   7.825  1.00  0.00     0.037 A 
HETATM   19  C   UNL     1      43.330 -16.774   4.095  1.00  0.00     0.057 C 
HETATM   20  C   UNL     1      43.754 -18.873   5.416  1.00  0.00     0.010 A 
HETATM   21  C   UNL     1      43.905 -19.550   6.627  1.00  0.00     0.001 A 
HETATM   22  C   UNL     1      43.802 -18.855   7.831  1.00  0.00     0.003 A 
ENDBRANCH   9  13
BRANCH   1  23
HETATM   23  C   UNL     1      40.893 -12.135  -1.811  1.00  0.00    -0.005 A 
HETATM   24  C   UNL     1      41.695 -12.670  -2.833  1.00  0.00     0.014 A 
HETATM   25  C   UNL     1      42.478 -11.841  -3.642  1.00  0.00     0.001 A 
HETATM   26  C   UNL     1      42.472 -10.464  -3.440  1.00  0.00     0.000 A 
HETATM   27  C   UNL     1      41.692  -9.919  -2.423  1.00  0.00     0.001 A 
HETATM   28  C   UNL     1      40.913 -10.749  -1.610  1.00  0.00     0.014 A 
ENDBRANCH   1  23
TORSDOF 2
ENDMDL
MODEL 10
REMARK VINA RESULT:      -8.1      3.037      3.813
REMARK  2 active torsions:
REMARK  status: ('A' for Active; 'I' for Inactive)
REMARK    1  A    between atoms: C_4  and  C_5 
REMARK       I    between atoms: N_12  and  C_13 
REMARK    2  A    between atoms: C_13  and  C_14 
ROOT
HETATM    1  C   UNL     1      39.885 -12.565   2.728  1.00  0.00     0.097 A 
HETATM    2  N   UNL     1      38.754 -12.626   1.997  1.00  0.00    -0.173 NA
HETATM    3  N   UNL     1      38.589 -13.925   1.707  1.00  0.00    -0.281 N 
HETATM    4  H   UNL     1      37.778 -14.194   1.160  1.00  0.00     0.189 HD
HETATM    5  C   UNL     1      39.566 -14.706   2.225  1.00  0.00     0.039 A 
HETATM    6  C   UNL     1      40.434 -13.873   2.892  1.00  0.00     0.015 A 
HETATM    7  C   UNL     1      41.642 -14.361   3.606  1.00  0.00     0.168 C 
HETATM    8  N   UNL     1      41.721 -15.840   3.617  1.00  0.00    -0.347 N 
HETATM    9  C   UNL     1      42.772 -16.347   4.384  1.00  0.00     0.226 C 
HETATM   10  O   UNL     1      43.456 -15.606   5.095  1.00  0.00    -0.273 OA
HETATM   11  C   UNL     1      41.139 -16.568   2.460  1.00  0.00     0.132 C 
HETATM   12  C   UNL     1      39.683 -16.173   2.142  1.00  0.00     0.079 C 
ENDROOT
BRANCH   9  13
HETATM   13  C   UNL     1      43.041 -17.842   4.350  1.00  0.00     0.106 C 
HETATM   14  C   UNL     1      44.270 -18.186   5.182  1.00  0.00     0.190 C 
HETATM   15  O   UNL     1      44.441 -19.604   5.308  1.00  0.00    -0.350 OA
HETATM   16  C   UNL     1      44.337 -20.298   4.130  1.00  0.00     0.075 A 
HETATM   17  C   UNL     1      43.789 -19.757   2.959  1.00  0.00    -0.024 A 
HETATM   18  C   UNL     1      44.774 -21.622   4.155  1.00  0.00     0.037 A 
HETATM   19  C   UNL     1      43.309 -18.334   2.926  1.00  0.00     0.057 C 
HETATM   20  C   UNL     1      43.721 -20.549   1.806  1.00  0.00     0.010 A 
HETATM   21  C   UNL     1      44.167 -21.872   1.831  1.00  0.00     0.001 A 
HETATM   22  C   UNL     1      44.691 -22.408   3.006  1.00  0.00     0.003 A 
ENDBRANCH   9  13
BRANCH   1  23
HETATM   23  C   UNL     1      40.364 -11.276   3.248  1.00  0.00    -0.005 A 
HETATM   24  C   UNL     1      40.372 -10.148   2.412  1.00  0.00     0.014 A 
HETATM   25  C   UNL     1      40.807  -8.905   2.882  1.00  0.00     0.001 A 
HETATM   26  C   UNL     1      41.243  -8.772   4.197  1.00  0.00     0.000 A 
HETATM   27  C   UNL     1      41.254  -9.884   5.037  1.00  0.00     0.001 A 
HETATM   28  C   UNL     1      40.823 -11.129   4.564  1.00  0.00     0.014 A 
ENDBRANCH   1  23
TORSDOF 2
ENDMDL
