MODEL 1
REMARK VINA RESULT:      -8.0      0.000      0.000
REMARK  2 active torsions:
REMARK  status: ('A' for Active; 'I' for Inactive)
REMARK    1  A    between atoms: C_7  and  C_8 
REMARK    2  A    between atoms: C_8  and  O_9 
ROOT
HETATM    1  C   UNL     1      41.733 -14.504   4.231  1.00  0.00     0.199 A 
HETATM    2  C   UNL     1      43.024 -13.654   3.989  1.00  0.00     0.266 A 
HETATM    3  O   UNL     1      44.005 -13.570   4.714  1.00  0.00    -0.269 OA
HETATM    4  N   UNL     1      42.838 -12.938   2.807  1.00  0.00    -0.323 N 
HETATM    5  C   UNL     1      41.596 -13.204   2.249  1.00  0.00     0.045 A 
HETATM    6  C   UNL     1      40.897 -14.130   3.031  1.00  0.00     0.019 A 
HETATM    7  C   UNL     1      41.068 -12.649   1.102  1.00  0.00     0.032 A 
HETATM    8  C   UNL     1      39.781 -13.045   0.728  1.00  0.00     0.026 A 
HETATM    9  C   UNL     1      39.065 -13.973   1.506  1.00  0.00     0.034 A 
HETATM   10 CL   UNL     1      37.478 -14.434   1.022  1.00  0.00    -0.084 Cl
HETATM   11  C   UNL     1      39.614 -14.520   2.668  1.00  0.00     0.037 A 
HETATM   12  H   UNL     1      43.519 -12.285   2.450  1.00  0.00     0.169 HD
ENDROOT
BRANCH   1  13
HETATM   13  C   UNL     1      41.938 -16.002   4.194  1.00  0.00     0.025 A 
HETATM   14  C   UNL     1      41.432 -16.924   5.115  1.00  0.00     0.016 A 
HETATM   15  C   UNL     1      40.591 -16.743   6.329  1.00  0.00     0.069 C 
HETATM   16  N   UNL     1      41.846 -18.175   4.739  1.00  0.00    -0.359 N 
HETATM   17  H   UNL     1      41.626 -19.031   5.229  1.00  0.00     0.166 HD
HETATM   18  C   UNL     1      42.602 -18.115   3.598  1.00  0.00     0.043 A 
HETATM   19  C   UNL     1      42.680 -16.774   3.221  1.00  0.00     0.003 A 
HETATM   20  C   UNL     1      43.216 -19.153   2.884  1.00  0.00     0.030 A 
HETATM   21  C   UNL     1      43.415 -16.469   2.052  1.00  0.00     0.014 A 
HETATM   22  C   UNL     1      44.039 -17.494   1.328  1.00  0.00     0.001 A 
HETATM   23  C   UNL     1      43.940 -18.817   1.740  1.00  0.00     0.002 A 
ENDBRANCH   1  13
BRANCH   1  24
HETATM   24  O   UNL     1      41.095 -14.052   5.422  1.00  0.00    -0.371 OA
HETATM   25  H   UNL     1      40.960 -13.099   5.273  1.00  0.00     0.212 HD
ENDBRANCH   1  24
TORSDOF 2
ENDMDL
MODEL 2
REMARK VINA RESULT:      -7.7      2.928      5.516
REMARK  2 active torsions:
REMARK  status: ('A' for Active; 'I' for Inactive)
REMARK    1  A    between atoms: C_7  and  C_8 
REMARK    2  A    between atoms: C_8  and  O_9 
ROOT
HETATM    1  C   UNL     1      43.305 -15.930   6.007  1.00  0.00     0.199 A 
HETATM    2  C   UNL     1      43.505 -16.865   7.246  1.00  0.00     0.266 A 
HETATM    3  O   UNL     1      43.487 -16.548   8.426  1.00  0.00    -0.269 OA
HETATM    4  N   UNL     1      43.777 -18.145   6.764  1.00  0.00    -0.323 N 
HETATM    5  C   UNL     1      43.786 -18.167   5.377  1.00  0.00     0.045 A 
HETATM    6  C   UNL     1      43.502 -16.897   4.865  1.00  0.00     0.019 A 
HETATM    7  C   UNL     1      44.050 -19.254   4.569  1.00  0.00     0.032 A 
HETATM    8  C   UNL     1      44.028 -19.049   3.187  1.00  0.00     0.026 A 
HETATM    9  C   UNL     1      43.747 -17.777   2.658  1.00  0.00     0.034 A 
HETATM   10 CL   UNL     1      43.735 -17.556   0.950  1.00  0.00    -0.084 Cl
HETATM   11  C   UNL     1      43.487 -16.687   3.492  1.00  0.00     0.037 A 
HETATM   12  H   UNL     1      43.979 -18.926   7.370  1.00  0.00     0.169 HD
ENDROOT
BRANCH   1  13
HETATM   13  C   UNL     1      41.920 -15.339   5.870  1.00  0.00     0.025 A 
HETATM   14  C   UNL     1      40.714 -16.005   6.105  1.00  0.00     0.016 A 
HETATM   15  C   UNL     1      40.428 -17.401   6.536  1.00  0.00     0.069 C 
HETATM   16  N   UNL     1      39.688 -15.131   5.862  1.00  0.00    -0.359 N 
HETATM   17  H   UNL     1      38.705 -15.349   5.952  1.00  0.00     0.166 HD
HETATM   18  C   UNL     1      40.171 -13.906   5.483  1.00  0.00     0.043 A 
HETATM   19  C   UNL     1      41.563 -13.992   5.480  1.00  0.00     0.003 A 
HETATM   20  C   UNL     1      39.470 -12.741   5.145  1.00  0.00     0.030 A 
HETATM   21  C   UNL     1      42.285 -12.830   5.120  1.00  0.00     0.014 A 
HETATM   22  C   UNL     1      41.601 -11.657   4.775  1.00  0.00     0.001 A 
HETATM   23  C   UNL     1      40.212 -11.614   4.787  1.00  0.00     0.002 A 
ENDBRANCH   1  13
BRANCH   1  24
HETATM   24  O   UNL     1      44.339 -14.950   5.992  1.00  0.00    -0.371 OA
HETATM   25  H   UNL     1      44.704 -15.003   5.091  1.00  0.00     0.212 HD
ENDBRANCH   1  24
TORSDOF 2
ENDMDL
MODEL 3
REMARK VINA RESULT:      -7.5      3.248      5.755
REMARK  2 active torsions:
REMARK  status: ('A' for Active; 'I' for Inactive)
REMARK    1  A    between atoms: C_7  and  C_8 
REMARK    2  A    between atoms: C_8  and  O_9 
ROOT
HETATM    1  C   UNL     1      41.604 -17.003   3.646  1.00  0.00     0.199 A 
HETATM    2  C   UNL     1      40.833 -16.882   2.291  1.00  0.00     0.266 A 
HETATM    3  O   UNL     1      39.908 -16.127   2.026  1.00  0.00    -0.269 OA
HETATM    4  N   UNL     1      41.349 -17.849   1.429  1.00  0.00    -0.323 N 
HETATM    5  C   UNL     1      42.350 -18.587   2.044  1.00  0.00     0.045 A 
HETATM    6  C   UNL     1      42.561 -18.132   3.350  1.00  0.00     0.019 A 
HETATM    7  C   UNL     1      43.054 -19.641   1.499  1.00  0.00     0.032 A 
HETATM    8  C   UNL     1      44.010 -20.262   2.308  1.00  0.00     0.026 A 
HETATM    9  C   UNL     1      44.231 -19.818   3.623  1.00  0.00     0.034 A 
HETATM   10 CL   UNL     1      45.411 -20.609   4.595  1.00  0.00    -0.084 Cl
HETATM   11  C   UNL     1      43.504 -18.752   4.159  1.00  0.00     0.037 A 
HETATM   12  H   UNL     1      40.992 -17.998   0.497  1.00  0.00     0.169 HD
ENDROOT
BRANCH   1  13
HETATM   13  C   UNL     1      42.430 -15.794   4.022  1.00  0.00     0.025 A 
HETATM   14  C   UNL     1      42.734 -14.714   3.188  1.00  0.00     0.016 A 
HETATM   15  C   UNL     1      42.369 -14.429   1.773  1.00  0.00     0.069 C 
HETATM   16  N   UNL     1      43.508 -13.832   3.895  1.00  0.00    -0.359 N 
HETATM   17  H   UNL     1      43.874 -12.961   3.534  1.00  0.00     0.166 HD
HETATM   18  C   UNL     1      43.720 -14.284   5.171  1.00  0.00     0.043 A 
HETATM   19  C   UNL     1      43.058 -15.506   5.294  1.00  0.00     0.003 A 
HETATM   20  C   UNL     1      44.449 -13.694   6.212  1.00  0.00     0.030 A 
HETATM   21  C   UNL     1      43.134 -16.164   6.543  1.00  0.00     0.014 A 
HETATM   22  C   UNL     1      43.862 -15.591   7.595  1.00  0.00     0.001 A 
HETATM   23  C   UNL     1      44.511 -14.373   7.430  1.00  0.00     0.002 A 
ENDBRANCH   1  13
BRANCH   1  24
HETATM   24  O   UNL     1      40.692 -17.401   4.666  1.00  0.00    -0.371 OA
HETATM   25  H   UNL     1      40.540 -18.347   4.495  1.00  0.00     0.212 HD
ENDBRANCH   1  24
TORSDOF 2
ENDMDL
MODEL 4
REMARK VINA RESULT:      -7.3      2.520      4.959
REMARK  2 active torsions:
REMARK  status: ('A' for Active; 'I' for Inactive)
REMARK    1  A    between atoms: C_7  and  C_8 
REMARK    2  A    between atoms: C_8  and  O_9 
ROOT
HETATM    1  C   UNL     1      43.131 -15.274   3.955  1.00  0.00     0.199 A 
HETATM    2  C   UNL     1      43.475 -14.902   5.435  1.00  0.00     0.266 A 
HETATM    3  O   UNL     1      43.468 -13.790   5.943  1.00  0.00    -0.269 OA
HETATM    4  N   UNL     1      43.863 -16.075   6.081  1.00  0.00    -0.323 N 
HETATM    5  C   UNL     1      43.823 -17.160   5.218  1.00  0.00     0.045 A 
HETATM    6  C   UNL     1      43.386 -16.761   3.950  1.00  0.00     0.019 A 
HETATM    7  C   UNL     1      44.171 -18.463   5.509  1.00  0.00     0.032 A 
HETATM    8  C   UNL     1      44.074 -19.401   4.478  1.00  0.00     0.026 A 
HETATM    9  C   UNL     1      43.640 -19.014   3.198  1.00  0.00     0.034 A 
HETATM   10 CL   UNL     1      43.540 -20.193   1.948  1.00  0.00    -0.084 Cl
HETATM   11  C   UNL     1      43.297 -17.689   2.921  1.00  0.00     0.037 A 
HETATM   12  H   UNL     1      44.171 -16.095   7.042  1.00  0.00     0.169 HD
ENDROOT
BRANCH   1  13
HETATM   13  C   UNL     1      41.686 -15.058   3.562  1.00  0.00     0.025 A 
HETATM   14  C   UNL     1      40.581 -15.140   4.414  1.00  0.00     0.016 A 
HETATM   15  C   UNL     1      40.479 -15.439   5.868  1.00  0.00     0.069 C 
HETATM   16  N   UNL     1      39.453 -14.889   3.677  1.00  0.00    -0.359 N 
HETATM   17  H   UNL     1      38.510 -14.886   4.041  1.00  0.00     0.166 HD
HETATM   18  C   UNL     1      39.772 -14.636   2.369  1.00  0.00     0.043 A 
HETATM   19  C   UNL     1      41.160 -14.727   2.255  1.00  0.00     0.003 A 
HETATM   20  C   UNL     1      38.929 -14.337   1.291  1.00  0.00     0.030 A 
HETATM   21  C   UNL     1      41.724 -14.494   0.979  1.00  0.00     0.014 A 
HETATM   22  C   UNL     1      40.896 -14.198  -0.111  1.00  0.00     0.001 A 
HETATM   23  C   UNL     1      39.517 -14.121   0.044  1.00  0.00     0.002 A 
ENDBRANCH   1  13
BRANCH   1  24
HETATM   24  O   UNL     1      44.053 -14.624   3.085  1.00  0.00    -0.371 OA
HETATM   25  H   UNL     1      43.640 -14.692   2.206  1.00  0.00     0.212 HD
ENDBRANCH   1  24
TORSDOF 2
ENDMDL
MODEL 5
REMARK VINA RESULT:      -7.1      2.696      5.097
REMARK  2 active torsions:
REMARK  status: ('A' for Active; 'I' for Inactive)
REMARK    1  A    between atoms: C_7  and  C_8 
REMARK    2  A    between atoms: C_8  and  O_9 
ROOT
HETATM    1  C   UNL     1      41.727 -16.831   3.759  1.00  0.00     0.199 A 
HETATM    2  C   UNL     1      42.775 -17.971   3.978  1.00  0.00     0.266 A 
HETATM    3  O   UNL     1      42.760 -19.097   3.502  1.00  0.00    -0.269 OA
HETATM    4  N   UNL     1      43.725 -17.497   4.883  1.00  0.00    -0.323 N 
HETATM    5  C   UNL     1      43.432 -16.202   5.285  1.00  0.00     0.045 A 
HETATM    6  C   UNL     1      42.273 -15.743   4.651  1.00  0.00     0.019 A 
HETATM    7  C   UNL     1      44.137 -15.439   6.193  1.00  0.00     0.032 A 
HETATM    8  C   UNL     1      43.651 -14.158   6.472  1.00  0.00     0.026 A 
HETATM    9  C   UNL     1      42.485 -13.685   5.844  1.00  0.00     0.034 A 
HETATM   10 CL   UNL     1      41.909 -12.105   6.215  1.00  0.00    -0.084 Cl
HETATM   11  C   UNL     1      41.782 -14.474   4.931  1.00  0.00     0.037 A 
HETATM   12  H   UNL     1      44.493 -18.061   5.216  1.00  0.00     0.169 HD
ENDROOT
BRANCH   1  13
HETATM   13  C   UNL     1      41.667 -16.280   2.352  1.00  0.00     0.025 A 
HETATM   14  C   UNL     1      42.669 -16.389   1.383  1.00  0.00     0.016 A 
HETATM   15  C   UNL     1      44.009 -17.035   1.420  1.00  0.00     0.069 C 
HETATM   16  N   UNL     1      42.237 -15.754   0.248  1.00  0.00    -0.359 N 
HETATM   17  H   UNL     1      42.764 -15.676  -0.611  1.00  0.00     0.166 HD
HETATM   18  C   UNL     1      40.982 -15.235   0.428  1.00  0.00     0.043 A 
HETATM   19  C   UNL     1      40.586 -15.546   1.729  1.00  0.00     0.003 A 
HETATM   20  C   UNL     1      40.181 -14.516  -0.469  1.00  0.00     0.030 A 
HETATM   21  C   UNL     1      39.306 -15.111   2.141  1.00  0.00     0.014 A 
HETATM   22  C   UNL     1      38.492 -14.387   1.259  1.00  0.00     0.001 A 
HETATM   23  C   UNL     1      38.926 -14.094  -0.029  1.00  0.00     0.002 A 
ENDBRANCH   1  13
BRANCH   1  24
HETATM   24  O   UNL     1      40.460 -17.263   4.248  1.00  0.00    -0.371 OA
HETATM   25  H   UNL     1      40.545 -18.232   4.304  1.00  0.00     0.212 HD
ENDBRANCH   1  24
TORSDOF 2
ENDMDL
MODEL 6
REMARK VINA RESULT:      -7.0      2.623      3.299
REMARK  2 active torsions:
REMARK  status: ('A' for Active; 'I' for Inactive)
REMARK    1  A    between atoms: C_7  and  C_8 
REMARK    2  A    between atoms: C_8  and  O_9 
ROOT
HETATM    1  C   UNL     1      41.779 -16.958   4.942  1.00  0.00     0.199 A 
HETATM    2  C   UNL     1      41.625 -16.397   6.394  1.00  0.00     0.266 A 
HETATM    3  O   UNL     1      41.390 -17.030   7.414  1.00  0.00    -0.269 OA
HETATM    4  N   UNL     1      41.741 -15.010   6.321  1.00  0.00    -0.323 N 
HETATM    5  C   UNL     1      41.945 -14.591   5.015  1.00  0.00     0.045 A 
HETATM    6  C   UNL     1      41.992 -15.690   4.150  1.00  0.00     0.019 A 
HETATM    7  C   UNL     1      42.071 -13.290   4.572  1.00  0.00     0.032 A 
HETATM    8  C   UNL     1      42.250 -13.091   3.201  1.00  0.00     0.026 A 
HETATM    9  C   UNL     1      42.296 -14.186   2.320  1.00  0.00     0.034 A 
HETATM   10 CL   UNL     1      42.511 -13.906   0.635  1.00  0.00    -0.084 Cl
HETATM   11  C   UNL     1      42.162 -15.496   2.786  1.00  0.00     0.037 A 
HETATM   12  H   UNL     1      41.642 -14.409   7.126  1.00  0.00     0.169 HD
ENDROOT
BRANCH   1  13
HETATM   13  C   UNL     1      42.988 -17.840   4.722  1.00  0.00     0.025 A 
HETATM   14  C   UNL     1      44.138 -17.871   5.516  1.00  0.00     0.016 A 
HETATM   15  C   UNL     1      44.513 -17.108   6.738  1.00  0.00     0.069 C 
HETATM   16  N   UNL     1      45.001 -18.791   4.983  1.00  0.00    -0.359 N 
HETATM   17  H   UNL     1      45.913 -19.017   5.355  1.00  0.00     0.166 HD
HETATM   18  C   UNL     1      44.460 -19.378   3.869  1.00  0.00     0.043 A 
HETATM   19  C   UNL     1      43.199 -18.814   3.674  1.00  0.00     0.003 A 
HETATM   20  C   UNL     1      45.004 -20.359   3.030  1.00  0.00     0.030 A 
HETATM   21  C   UNL     1      42.444 -19.277   2.571  1.00  0.00     0.014 A 
HETATM   22  C   UNL     1      42.972 -20.256   1.719  1.00  0.00     0.001 A 
HETATM   23  C   UNL     1      44.235 -20.788   1.946  1.00  0.00     0.002 A 
ENDBRANCH   1  13
BRANCH   1  24
HETATM   24  O   UNL     1      40.555 -17.572   4.548  1.00  0.00    -0.371 OA
HETATM   25  H   UNL     1      40.498 -17.396   3.592  1.00  0.00     0.212 HD
ENDBRANCH   1  24
TORSDOF 2
ENDMDL
MODEL 7
REMARK VINA RESULT:      -6.9      3.039      5.785
REMARK  2 active torsions:
REMARK  status: ('A' for Active; 'I' for Inactive)
REMARK    1  A    between atoms: C_7  and  C_8 
REMARK    2  A    between atoms: C_8  and  O_9 
ROOT
HETATM    1  C   UNL     1      40.684 -15.214   1.869  1.00  0.00     0.199 A 
HETATM    2  C   UNL     1      40.683 -15.174   0.305  1.00  0.00     0.266 A 
HETATM    3  O   UNL     1      39.888 -14.599  -0.423  1.00  0.00    -0.269 OA
HETATM    4  N   UNL     1      41.734 -15.979  -0.133  1.00  0.00    -0.323 N 
HETATM    5  C   UNL     1      42.415 -16.542   0.936  1.00  0.00     0.045 A 
HETATM    6  C   UNL     1      41.857 -16.122   2.148  1.00  0.00     0.019 A 
HETATM    7  C   UNL     1      43.484 -17.412   0.870  1.00  0.00     0.032 A 
HETATM    8  C   UNL     1      44.010 -17.878   2.078  1.00  0.00     0.026 A 
HETATM    9  C   UNL     1      43.457 -17.467   3.304  1.00  0.00     0.034 A 
HETATM   10 CL   UNL     1      44.123 -18.066   4.774  1.00  0.00    -0.084 Cl
HETATM   11  C   UNL     1      42.371 -16.589   3.350  1.00  0.00     0.037 A 
HETATM   12  H   UNL     1      41.924 -16.146  -1.110  1.00  0.00     0.169 HD
ENDROOT
BRANCH   1  13
HETATM   13  C   UNL     1      40.964 -13.889   2.542  1.00  0.00     0.025 A 
HETATM   14  C   UNL     1      41.626 -12.800   1.969  1.00  0.00     0.016 A 
HETATM   15  C   UNL     1      42.219 -12.607   0.617  1.00  0.00     0.069 C 
HETATM   16  N   UNL     1      41.686 -11.797   2.901  1.00  0.00    -0.359 N 
HETATM   17  H   UNL     1      42.114 -10.893   2.755  1.00  0.00     0.166 HD
HETATM   18  C   UNL     1      41.079 -12.180   4.068  1.00  0.00     0.043 A 
HETATM   19  C   UNL     1      40.610 -13.481   3.884  1.00  0.00     0.003 A 
HETATM   20  C   UNL     1      40.921 -11.465   5.262  1.00  0.00     0.030 A 
HETATM   21  C   UNL     1      39.935 -14.087   4.969  1.00  0.00     0.014 A 
HETATM   22  C   UNL     1      39.770 -13.389   6.173  1.00  0.00     0.001 A 
HETATM   23  C   UNL     1      40.258 -12.096   6.316  1.00  0.00     0.002 A 
ENDBRANCH   1  13
BRANCH   1  24
HETATM   24  O   UNL     1      39.481 -15.830   2.319  1.00  0.00    -0.371 OA
HETATM   25  H   UNL     1      39.616 -16.777   2.139  1.00  0.00     0.212 HD
ENDBRANCH   1  24
TORSDOF 2
ENDMDL
MODEL 8
REMARK VINA RESULT:      -6.9      3.342      6.222
REMARK  2 active torsions:
REMARK  status: ('A' for Active; 'I' for Inactive)
REMARK    1  A    between atoms: C_7  and  C_8 
REMARK    2  A    between atoms: C_8  and  O_9 
ROOT
HETATM    1  C   UNL     1      41.705 -17.245   3.695  1.00  0.00     0.199 A 
HETATM    2  C   UNL     1      41.886 -17.939   2.306  1.00  0.00     0.266 A 
HETATM    3  O   UNL     1      41.258 -17.724   1.279  1.00  0.00    -0.269 OA
HETATM    4  N   UNL     1      42.870 -18.917   2.452  1.00  0.00    -0.323 N 
HETATM    5  C   UNL     1      43.349 -18.955   3.753  1.00  0.00     0.045 A 
HETATM    6  C   UNL     1      42.715 -17.986   4.537  1.00  0.00     0.019 A 
HETATM    7  C   UNL     1      44.300 -19.818   4.259  1.00  0.00     0.032 A 
HETATM    8  C   UNL     1      44.622 -19.697   5.614  1.00  0.00     0.026 A 
HETATM    9  C   UNL     1      43.990 -18.730   6.415  1.00  0.00     0.034 A 
HETATM   10 CL   UNL     1      44.405 -18.612   8.082  1.00  0.00    -0.084 Cl
HETATM   11  C   UNL     1      43.026 -17.868   5.886  1.00  0.00     0.037 A 
HETATM   12  H   UNL     1      43.146 -19.532   1.701  1.00  0.00     0.169 HD
ENDROOT
BRANCH   1  13
HETATM   13  C   UNL     1      42.072 -15.778   3.730  1.00  0.00     0.025 A 
HETATM   14  C   UNL     1      43.100 -15.171   3.004  1.00  0.00     0.016 A 
HETATM   15  C   UNL     1      44.084 -15.728   2.035  1.00  0.00     0.069 C 
HETATM   16  N   UNL     1      43.115 -13.837   3.317  1.00  0.00    -0.359 N 
HETATM   17  H   UNL     1      43.760 -13.158   2.937  1.00  0.00     0.166 HD
HETATM   18  C   UNL     1      42.128 -13.538   4.219  1.00  0.00     0.043 A 
HETATM   19  C   UNL     1      41.449 -14.724   4.500  1.00  0.00     0.003 A 
HETATM   20  C   UNL     1      41.799 -12.305   4.798  1.00  0.00     0.030 A 
HETATM   21  C   UNL     1      40.372 -14.654   5.414  1.00  0.00     0.014 A 
HETATM   22  C   UNL     1      40.031 -13.431   6.006  1.00  0.00     0.001 A 
HETATM   23  C   UNL     1      40.736 -12.273   5.702  1.00  0.00     0.002 A 
ENDBRANCH   1  13
BRANCH   1  24
HETATM   24  O   UNL     1      40.390 -17.507   4.179  1.00  0.00    -0.371 OA
HETATM   25  H   UNL     1      40.066 -16.637   4.470  1.00  0.00     0.212 HD
ENDBRANCH   1  24
TORSDOF 2
ENDMDL
MODEL 9
REMARK VINA RESULT:      -6.8      3.243      4.703
REMARK  2 active torsions:
REMARK  status: ('A' for Active; 'I' for Inactive)
REMARK    1  A    between atoms: C_7  and  C_8 
REMARK    2  A    between atoms: C_8  and  O_9 
ROOT
HETATM    1  C   UNL     1      42.334 -16.337   2.928  1.00  0.00     0.199 A 
HETATM    2  C   UNL     1      40.777 -16.490   2.916  1.00  0.00     0.266 A 
HETATM    3  O   UNL     1      40.092 -17.053   2.075  1.00  0.00    -0.269 OA
HETATM    4  N   UNL     1      40.282 -15.803   4.024  1.00  0.00    -0.323 N 
HETATM    5  C   UNL     1      41.307 -15.220   4.753  1.00  0.00     0.045 A 
HETATM    6  C   UNL     1      42.546 -15.506   4.170  1.00  0.00     0.019 A 
HETATM    7  C   UNL     1      41.179 -14.443   5.886  1.00  0.00     0.032 A 
HETATM    8  C   UNL     1      42.350 -13.933   6.453  1.00  0.00     0.026 A 
HETATM    9  C   UNL     1      43.602 -14.209   5.876  1.00  0.00     0.034 A 
HETATM   10 CL   UNL     1      45.025 -13.559   6.595  1.00  0.00    -0.084 Cl
HETATM   11  C   UNL     1      43.712 -14.994   4.726  1.00  0.00     0.037 A 
HETATM   12  H   UNL     1      39.295 -15.723   4.221  1.00  0.00     0.169 HD
ENDROOT
BRANCH   1  13
HETATM   13  C   UNL     1      43.102 -17.628   3.108  1.00  0.00     0.025 A 
HETATM   14  C   UNL     1      43.759 -18.340   2.101  1.00  0.00     0.016 A 
HETATM   15  C   UNL     1      43.908 -18.076   0.643  1.00  0.00     0.069 C 
HETATM   16  N   UNL     1      44.325 -19.454   2.664  1.00  0.00    -0.359 N 
HETATM   17  H   UNL     1      44.860 -20.150   2.164  1.00  0.00     0.166 HD
HETATM   18  C   UNL     1      44.072 -19.501   4.010  1.00  0.00     0.043 A 
HETATM   19  C   UNL     1      43.313 -18.374   4.329  1.00  0.00     0.003 A 
HETATM   20  C   UNL     1      44.461 -20.460   4.954  1.00  0.00     0.030 A 
HETATM   21  C   UNL     1      42.935 -18.207   5.682  1.00  0.00     0.014 A 
HETATM   22  C   UNL     1      43.312 -19.158   6.639  1.00  0.00     0.001 A 
HETATM   23  C   UNL     1      44.064 -20.270   6.278  1.00  0.00     0.002 A 
ENDBRANCH   1  13
BRANCH   1  24
HETATM   24  O   UNL     1      42.738 -15.598   1.779  1.00  0.00    -0.371 OA
HETATM   25  H   UNL     1      42.671 -16.238   1.048  1.00  0.00     0.212 HD
ENDBRANCH   1  24
TORSDOF 2
ENDMDL
MODEL 10
REMARK VINA RESULT:      -6.8      2.613      3.565
REMARK  2 active torsions:
REMARK  status: ('A' for Active; 'I' for Inactive)
REMARK    1  A    between atoms: C_7  and  C_8 
REMARK    2  A    between atoms: C_8  and  O_9 
ROOT
HETATM    1  C   UNL     1      41.551 -16.715   5.340  1.00  0.00     0.199 A 
HETATM    2  C   UNL     1      42.384 -16.874   6.655  1.00  0.00     0.266 A 
HETATM    3  O   UNL     1      42.470 -17.867   7.364  1.00  0.00    -0.269 OA
HETATM    4  N   UNL     1      42.980 -15.643   6.924  1.00  0.00    -0.323 N 
HETATM    5  C   UNL     1      42.642 -14.701   5.963  1.00  0.00     0.045 A 
HETATM    6  C   UNL     1      41.812 -15.270   4.991  1.00  0.00     0.019 A 
HETATM    7  C   UNL     1      43.025 -13.376   5.933  1.00  0.00     0.032 A 
HETATM    8  C   UNL     1      42.550 -12.593   4.878  1.00  0.00     0.026 A 
HETATM    9  C   UNL     1      41.712 -13.149   3.896  1.00  0.00     0.034 A 
HETATM   10 CL   UNL     1      41.138 -12.155   2.613  1.00  0.00    -0.084 Cl
HETATM   11  C   UNL     1      41.331 -14.492   3.946  1.00  0.00     0.037 A 
HETATM   12  H   UNL     1      43.545 -15.476   7.744  1.00  0.00     0.169 HD
ENDROOT
BRANCH   1  13
HETATM   13  C   UNL     1      42.026 -17.557   4.177  1.00  0.00     0.025 A 
HETATM   14  C   UNL     1      41.477 -17.567   2.892  1.00  0.00     0.016 A 
HETATM   15  C   UNL     1      40.340 -16.810   2.300  1.00  0.00     0.069 C 
HETATM   16  N   UNL     1      42.180 -18.466   2.133  1.00  0.00    -0.359 N 
HETATM   17  H   UNL     1      41.995 -18.677   1.162  1.00  0.00     0.166 HD
HETATM   18  C   UNL     1      43.181 -19.045   2.868  1.00  0.00     0.043 A 
HETATM   19  C   UNL     1      43.123 -18.500   4.151  1.00  0.00     0.003 A 
HETATM   20  C   UNL     1      44.123 -20.007   2.481  1.00  0.00     0.030 A 
HETATM   21  C   UNL     1      44.077 -18.951   5.092  1.00  0.00     0.014 A 
HETATM   22  C   UNL     1      45.024 -19.916   4.725  1.00  0.00     0.001 A 
HETATM   23  C   UNL     1      45.045 -20.437   3.437  1.00  0.00     0.002 A 
ENDBRANCH   1  13
BRANCH   1  24
HETATM   24  O   UNL     1      40.170 -16.896   5.639  1.00  0.00    -0.371 OA
HETATM   25  H   UNL     1      40.132 -17.770   6.067  1.00  0.00     0.212 HD
ENDBRANCH   1  24
TORSDOF 2
ENDMDL
