MODEL 1
REMARK VINA RESULT:      -8.6      0.000      0.000
REMARK  11 active torsions:
REMARK  status: ('A' for Active; 'I' for Inactive)
REMARK    1  A    between atoms: C_2  and  O_3 
REMARK    2  A    between atoms: O_3  and  C_4 
REMARK    3  A    between atoms: C_7  and  N_8 
REMARK       I    between atoms: N_8  and  C_9 
REMARK    4  A    between atoms: C_9  and  C_10 
REMARK    5  A    between atoms: C_10  and  C_11 
REMARK    6  A    between atoms: N_12  and  C_13 
REMARK    7  A    between atoms: C_13  and  C_14 
REMARK    8  A    between atoms: C_14  and  C_15 
REMARK    9  A    between atoms: C_15  and  N_16 
REMARK   10  A    between atoms: C_20  and  C_21 
REMARK       I    between atoms: C_21  and  N_22 
REMARK   11  A    between atoms: N_28  and  C_29 
ROOT
HETATM    1  C   UNL     1      40.749 -13.235   3.720  1.00  0.00     0.188 C 
HETATM    2  N   UNL     1      39.684 -12.268   3.484  1.00  0.00    -0.344 N 
HETATM    3  C   UNL     1      39.641 -11.309   4.516  1.00  0.00     0.184 C 
HETATM    4  S   UNL     1      38.893  -9.820   4.348  1.00  0.00    -0.040 SA
HETATM    5  N   UNL     1      40.380 -11.806   5.585  1.00  0.00    -0.257 N 
HETATM    6  C   UNL     1      41.067 -12.935   5.180  1.00  0.00     0.254 C 
HETATM    7  O   UNL     1      41.883 -13.607   5.804  1.00  0.00    -0.270 OA
ENDROOT
BRANCH   2   8
HETATM    8  C   UNL     1      38.981 -12.240   2.195  1.00  0.00     0.128 C 
BRANCH   8   9
HETATM    9  C   UNL     1      38.807 -13.641   1.581  1.00  0.00     0.048 C 
BRANCH   9  10
HETATM   10  C   UNL     1      38.138 -13.612   0.203  1.00  0.00     0.236 C 
BRANCH  10  11
HETATM   11  N   UNL     1      38.872 -14.498  -0.795  1.00  0.00    -0.071 N 
HETATM   12  H   UNL     1      38.516 -15.457  -0.703  1.00  0.00     0.279 HD
HETATM   13  C   UNL     1      38.641 -14.033  -2.220  1.00  0.00     0.235 C 
HETATM   14  C   UNL     1      39.339 -14.978  -3.191  1.00  0.00     0.042 C 
HETATM   15  C   UNL     1      40.841 -15.061  -2.916  1.00  0.00     0.081 C 
HETATM   16  C   UNL     1      41.094 -15.431  -1.451  1.00  0.00     0.042 C 
HETATM   17  C   UNL     1      40.352 -14.542  -0.458  1.00  0.00     0.235 C 
BRANCH  15  18
HETATM   18  C   UNL     1      41.507 -13.743  -3.280  1.00  0.00     0.219 C 
HETATM   19  N   UNL     1      42.825 -13.642  -2.963  1.00  0.00    -0.370 N 
HETATM   20  H   UNL     1      43.255 -14.209  -2.243  1.00  0.00     0.159 HD
HETATM   21  H   UNL     1      43.268 -12.746  -3.143  1.00  0.00     0.159 HD
HETATM   22  O   UNL     1      40.939 -12.864  -3.916  1.00  0.00    -0.273 OA
ENDBRANCH  15  18
ENDBRANCH  10  11
ENDBRANCH   9  10
ENDBRANCH   8   9
ENDBRANCH   2   8
BRANCH   1  23
HETATM   23  C   UNL     1      41.992 -12.951   2.886  1.00  0.00     0.138 C 
BRANCH  23  24
HETATM   24  C   UNL     1      42.950 -14.127   2.873  1.00  0.00     0.224 C 
HETATM   25  N   UNL     1      42.367 -15.305   2.459  1.00  0.00    -0.327 N 
HETATM   26  H   UNL     1      41.485 -15.246   1.950  1.00  0.00     0.169 HD
HETATM   27  O   UNL     1      44.115 -13.964   3.226  1.00  0.00    -0.273 OA
BRANCH  25  28
HETATM   28  C   UNL     1      42.870 -16.612   2.607  1.00  0.00     0.034 A 
HETATM   29  C   UNL     1      43.551 -17.307   1.609  1.00  0.00     0.032 A 
HETATM   30  C   UNL     1      44.094 -18.569   1.880  1.00  0.00     0.039 A 
HETATM   31  C   UNL     1      43.965 -19.152   3.142  1.00  0.00     0.068 A 
HETATM   32  C   UNL     1      43.262 -18.471   4.132  1.00  0.00     0.039 A 
HETATM   33  C   UNL     1      42.723 -17.208   3.866  1.00  0.00     0.032 A 
BRANCH  31  34
HETATM   34  O   UNL     1      44.567 -20.372   3.280  1.00  0.00    -0.352 OA
BRANCH  34  35
HETATM   35  C   UNL     1      45.059 -20.706   4.578  1.00  0.00     0.171 C 
HETATM   36  C   UNL     1      44.844 -22.192   4.799  1.00  0.00     0.034 C 
ENDBRANCH  34  35
ENDBRANCH  31  34
ENDBRANCH  25  28
ENDBRANCH  23  24
ENDBRANCH   1  23
BRANCH   5  37
HETATM   37  C   UNL     1      40.442 -11.301   6.923  1.00  0.00     0.045 A 
HETATM   38  C   UNL     1      41.540 -10.542   7.366  1.00  0.00     0.032 A 
HETATM   39  C   UNL     1      41.627 -10.081   8.687  1.00  0.00     0.026 A 
HETATM   40  C   UNL     1      40.616 -10.375   9.592  1.00  0.00     0.034 A 
HETATM   41 CL   UNL     1      40.721  -9.818  11.213  1.00  0.00    -0.084 Cl
HETATM   42  C   UNL     1      39.524 -11.132   9.188  1.00  0.00     0.026 A 
HETATM   43  C   UNL     1      39.445 -11.596   7.868  1.00  0.00     0.032 A 
ENDBRANCH   5  37
TORSDOF 11
ENDMDL
MODEL 2
REMARK VINA RESULT:      -8.1      3.189      7.536
REMARK  11 active torsions:
REMARK  status: ('A' for Active; 'I' for Inactive)
REMARK    1  A    between atoms: C_2  and  O_3 
REMARK    2  A    between atoms: O_3  and  C_4 
REMARK    3  A    between atoms: C_7  and  N_8 
REMARK       I    between atoms: N_8  and  C_9 
REMARK    4  A    between atoms: C_9  and  C_10 
REMARK    5  A    between atoms: C_10  and  C_11 
REMARK    6  A    between atoms: N_12  and  C_13 
REMARK    7  A    between atoms: C_13  and  C_14 
REMARK    8  A    between atoms: C_14  and  C_15 
REMARK    9  A    between atoms: C_15  and  N_16 
REMARK   10  A    between atoms: C_20  and  C_21 
REMARK       I    between atoms: C_21  and  N_22 
REMARK   11  A    between atoms: N_28  and  C_29 
ROOT
HETATM    1  C   UNL     1      40.396 -12.550   4.617  1.00  0.00     0.188 C 
HETATM    2  N   UNL     1      39.801 -12.979   3.357  1.00  0.00    -0.344 N 
HETATM    3  C   UNL     1      40.077 -14.339   3.112  1.00  0.00     0.184 C 
HETATM    4  S   UNL     1      39.187 -15.273   2.044  1.00  0.00    -0.040 SA
HETATM    5  N   UNL     1      41.114 -14.719   3.959  1.00  0.00    -0.257 N 
HETATM    6  C   UNL     1      41.345 -13.713   4.879  1.00  0.00     0.254 C 
HETATM    7  O   UNL     1      42.115 -13.703   5.834  1.00  0.00    -0.270 OA
ENDROOT
BRANCH   2   8
HETATM    8  C   UNL     1      38.856 -12.107   2.649  1.00  0.00     0.128 C 
BRANCH   8   9
HETATM    9  C   UNL     1      39.503 -10.797   2.164  1.00  0.00     0.048 C 
BRANCH   9  10
HETATM   10  C   UNL     1      39.873 -10.827   0.677  1.00  0.00     0.236 C 
BRANCH  10  11
HETATM   11  N   UNL     1      40.059 -12.253   0.175  1.00  0.00    -0.071 N 
HETATM   12  H   UNL     1      39.686 -12.899   0.882  1.00  0.00     0.279 HD
HETATM   13  C   UNL     1      39.315 -12.482  -1.126  1.00  0.00     0.235 C 
HETATM   14  C   UNL     1      39.474 -13.934  -1.563  1.00  0.00     0.042 C 
HETATM   15  C   UNL     1      40.945 -14.312  -1.740  1.00  0.00     0.081 C 
HETATM   16  C   UNL     1      41.734 -13.992  -0.467  1.00  0.00     0.042 C 
HETATM   17  C   UNL     1      41.539 -12.563   0.031  1.00  0.00     0.235 C 
BRANCH  15  18
HETATM   18  C   UNL     1      41.523 -13.591  -2.949  1.00  0.00     0.219 C 
HETATM   19  N   UNL     1      42.879 -13.594  -3.043  1.00  0.00    -0.370 N 
HETATM   20  H   UNL     1      43.479 -13.731  -2.239  1.00  0.00     0.159 HD
HETATM   21  H   UNL     1      43.281 -13.064  -3.810  1.00  0.00     0.159 HD
HETATM   22  O   UNL     1      40.826 -13.129  -3.843  1.00  0.00    -0.273 OA
ENDBRANCH  15  18
ENDBRANCH  10  11
ENDBRANCH   9  10
ENDBRANCH   8   9
ENDBRANCH   2   8
BRANCH   1  23
HETATM   23  C   UNL     1      39.382 -12.488   5.752  1.00  0.00     0.138 C 
BRANCH  23  24
HETATM   24  C   UNL     1      39.670 -11.350   6.712  1.00  0.00     0.224 C 
HETATM   25  N   UNL     1      40.601 -11.666   7.676  1.00  0.00    -0.327 N 
HETATM   26  H   UNL     1      41.199 -12.476   7.512  1.00  0.00     0.169 HD
HETATM   27  O   UNL     1      39.077 -10.282   6.581  1.00  0.00    -0.273 OA
BRANCH  25  28
HETATM   28  C   UNL     1      40.876 -10.970   8.869  1.00  0.00     0.034 A 
HETATM   29  C   UNL     1      42.019 -10.204   9.083  1.00  0.00     0.032 A 
HETATM   30  C   UNL     1      42.162  -9.473  10.269  1.00  0.00     0.039 A 
HETATM   31  C   UNL     1      41.171  -9.497  11.252  1.00  0.00     0.068 A 
HETATM   32  C   UNL     1      40.039 -10.283  11.052  1.00  0.00     0.039 A 
HETATM   33  C   UNL     1      39.892 -11.010   9.866  1.00  0.00     0.032 A 
BRANCH  31  34
HETATM   34  O   UNL     1      41.422  -8.716  12.346  1.00  0.00    -0.352 OA
BRANCH  34  35
HETATM   35  C   UNL     1      42.704  -8.854  12.959  1.00  0.00     0.171 C 
HETATM   36  C   UNL     1      42.637 -10.003  13.947  1.00  0.00     0.034 C 
ENDBRANCH  34  35
ENDBRANCH  31  34
ENDBRANCH  25  28
ENDBRANCH  23  24
ENDBRANCH   1  23
BRANCH   5  37
HETATM   37  C   UNL     1      41.883 -15.926   3.923  1.00  0.00     0.045 A 
HETATM   38  C   UNL     1      42.950 -16.084   3.021  1.00  0.00     0.032 A 
HETATM   39  C   UNL     1      43.679 -17.279   2.950  1.00  0.00     0.026 A 
HETATM   40  C   UNL     1      43.351 -18.342   3.781  1.00  0.00     0.034 A 
HETATM   41 CL   UNL     1      44.237 -19.811   3.694  1.00  0.00    -0.084 Cl
HETATM   42  C   UNL     1      42.294 -18.221   4.675  1.00  0.00     0.026 A 
HETATM   43  C   UNL     1      41.564 -17.026   4.736  1.00  0.00     0.032 A 
ENDBRANCH   5  37
TORSDOF 11
ENDMDL
MODEL 3
REMARK VINA RESULT:      -8.1      4.221      8.787
REMARK  11 active torsions:
REMARK  status: ('A' for Active; 'I' for Inactive)
REMARK    1  A    between atoms: C_2  and  O_3 
REMARK    2  A    between atoms: O_3  and  C_4 
REMARK    3  A    between atoms: C_7  and  N_8 
REMARK       I    between atoms: N_8  and  C_9 
REMARK    4  A    between atoms: C_9  and  C_10 
REMARK    5  A    between atoms: C_10  and  C_11 
REMARK    6  A    between atoms: N_12  and  C_13 
REMARK    7  A    between atoms: C_13  and  C_14 
REMARK    8  A    between atoms: C_14  and  C_15 
REMARK    9  A    between atoms: C_15  and  N_16 
REMARK   10  A    between atoms: C_20  and  C_21 
REMARK       I    between atoms: C_21  and  N_22 
REMARK   11  A    between atoms: N_28  and  C_29 
ROOT
HETATM    1  C   UNL     1      39.441 -14.169   0.186  1.00  0.00     0.188 C 
HETATM    2  N   UNL     1      40.346 -14.669  -0.843  1.00  0.00    -0.344 N 
HETATM    3  C   UNL     1      39.909 -14.277  -2.124  1.00  0.00     0.184 C 
HETATM    4  S   UNL     1      40.913 -14.256  -3.464  1.00  0.00    -0.040 SA
HETATM    5  N   UNL     1      38.585 -13.862  -2.011  1.00  0.00    -0.257 N 
HETATM    6  C   UNL     1      38.249 -13.767  -0.673  1.00  0.00     0.254 C 
HETATM    7  O   UNL     1      37.209 -13.358  -0.166  1.00  0.00    -0.270 OA
ENDROOT
BRANCH   2   8
HETATM    8  C   UNL     1      41.635 -15.265  -0.471  1.00  0.00     0.128 C 
BRANCH   8   9
HETATM    9  C   UNL     1      41.499 -16.341   0.622  1.00  0.00     0.048 C 
BRANCH   9  10
HETATM   10  C   UNL     1      42.475 -16.138   1.786  1.00  0.00     0.236 C 
BRANCH  10  11
HETATM   11  N   UNL     1      42.319 -17.223   2.844  1.00  0.00    -0.071 N 
HETATM   12  H   UNL     1      41.849 -18.030   2.416  1.00  0.00     0.279 HD
HETATM   13  C   UNL     1      43.666 -17.675   3.374  1.00  0.00     0.235 C 
HETATM   14  C   UNL     1      43.471 -18.801   4.382  1.00  0.00     0.042 C 
HETATM   15  C   UNL     1      42.580 -18.369   5.547  1.00  0.00     0.081 C 
HETATM   16  C   UNL     1      41.253 -17.813   5.024  1.00  0.00     0.042 C 
HETATM   17  C   UNL     1      41.417 -16.730   3.963  1.00  0.00     0.235 C 
BRANCH  15  18
HETATM   18  C   UNL     1      43.311 -17.348   6.406  1.00  0.00     0.219 C 
HETATM   19  N   UNL     1      42.547 -16.691   7.318  1.00  0.00    -0.370 N 
HETATM   20  H   UNL     1      41.544 -16.598   7.220  1.00  0.00     0.159 HD
HETATM   21  H   UNL     1      43.008 -15.963   7.856  1.00  0.00     0.159 HD
HETATM   22  O   UNL     1      44.526 -17.195   6.368  1.00  0.00    -0.273 OA
ENDBRANCH  15  18
ENDBRANCH  10  11
ENDBRANCH   9  10
ENDBRANCH   8   9
ENDBRANCH   2   8
BRANCH   1  23
HETATM   23  C   UNL     1      39.978 -12.926   0.884  1.00  0.00     0.138 C 
BRANCH  23  24
HETATM   24  C   UNL     1      40.283 -13.181   2.347  1.00  0.00     0.224 C 
HETATM   25  N   UNL     1      41.452 -12.591   2.775  1.00  0.00    -0.327 N 
HETATM   26  H   UNL     1      41.843 -11.841   2.204  1.00  0.00     0.169 HD
HETATM   27  O   UNL     1      39.517 -13.870   3.015  1.00  0.00    -0.273 OA
BRANCH  25  28
HETATM   28  C   UNL     1      42.170 -12.860   3.956  1.00  0.00     0.034 A 
HETATM   29  C   UNL     1      41.749 -12.488   5.231  1.00  0.00     0.032 A 
HETATM   30  C   UNL     1      42.486 -12.881   6.356  1.00  0.00     0.039 A 
HETATM   31  C   UNL     1      43.647 -13.645   6.223  1.00  0.00     0.068 A 
HETATM   32  C   UNL     1      44.084 -13.995   4.948  1.00  0.00     0.039 A 
HETATM   33  C   UNL     1      43.347 -13.609   3.824  1.00  0.00     0.032 A 
BRANCH  31  34
HETATM   34  O   UNL     1      44.253 -13.985   7.400  1.00  0.00    -0.352 OA
BRANCH  34  35
HETATM   35  C   UNL     1      45.415 -13.241   7.768  1.00  0.00     0.171 C 
HETATM   36  C   UNL     1      45.046 -12.322   8.918  1.00  0.00     0.034 C 
ENDBRANCH  34  35
ENDBRANCH  31  34
ENDBRANCH  25  28
ENDBRANCH  23  24
ENDBRANCH   1  23
BRANCH   5  37
HETATM   37  C   UNL     1      37.654 -13.591  -3.064  1.00  0.00     0.045 A 
HETATM   38  C   UNL     1      37.305 -12.272  -3.407  1.00  0.00     0.032 A 
HETATM   39  C   UNL     1      36.362 -12.001  -4.407  1.00  0.00     0.026 A 
HETATM   40  C   UNL     1      35.746 -13.046  -5.083  1.00  0.00     0.034 A 
HETATM   41 CL   UNL     1      34.585 -12.719  -6.305  1.00  0.00    -0.084 Cl
HETATM   42  C   UNL     1      36.061 -14.360  -4.758  1.00  0.00     0.026 A 
HETATM   43  C   UNL     1      37.000 -14.626  -3.752  1.00  0.00     0.032 A 
ENDBRANCH   5  37
TORSDOF 11
ENDMDL
MODEL 4
REMARK VINA RESULT:      -8.0      3.775      9.150
REMARK  11 active torsions:
REMARK  status: ('A' for Active; 'I' for Inactive)
REMARK    1  A    between atoms: C_2  and  O_3 
REMARK    2  A    between atoms: O_3  and  C_4 
REMARK    3  A    between atoms: C_7  and  N_8 
REMARK       I    between atoms: N_8  and  C_9 
REMARK    4  A    between atoms: C_9  and  C_10 
REMARK    5  A    between atoms: C_10  and  C_11 
REMARK    6  A    between atoms: N_12  and  C_13 
REMARK    7  A    between atoms: C_13  and  C_14 
REMARK    8  A    between atoms: C_14  and  C_15 
REMARK    9  A    between atoms: C_15  and  N_16 
REMARK   10  A    between atoms: C_20  and  C_21 
REMARK       I    between atoms: C_21  and  N_22 
REMARK   11  A    between atoms: N_28  and  C_29 
ROOT
HETATM    1  C   UNL     1      40.521 -14.242   3.213  1.00  0.00     0.188 C 
HETATM    2  N   UNL     1      41.614 -13.468   2.635  1.00  0.00    -0.344 N 
HETATM    3  C   UNL     1      41.415 -13.277   1.253  1.00  0.00     0.184 C 
HETATM    4  S   UNL     1      42.185 -12.074   0.378  1.00  0.00    -0.040 SA
HETATM    5  N   UNL     1      40.446 -14.185   0.837  1.00  0.00    -0.257 N 
HETATM    6  C   UNL     1      39.871 -14.780   1.944  1.00  0.00     0.254 C 
HETATM    7  O   UNL     1      38.931 -15.567   1.996  1.00  0.00    -0.270 OA
ENDROOT
BRANCH   2   8
HETATM    8  C   UNL     1      42.599 -12.813   3.506  1.00  0.00     0.128 C 
BRANCH   8   9
HETATM    9  C   UNL     1      43.637 -13.797   4.075  1.00  0.00     0.048 C 
BRANCH   9  10
HETATM   10  C   UNL     1      43.589 -13.899   5.604  1.00  0.00     0.236 C 
BRANCH  10  11
HETATM   11  N   UNL     1      43.060 -15.254   6.058  1.00  0.00    -0.071 N 
HETATM   12  H   UNL     1      42.086 -15.137   6.364  1.00  0.00     0.279 HD
HETATM   13  C   UNL     1      43.093 -16.266   4.929  1.00  0.00     0.235 C 
HETATM   14  C   UNL     1      42.500 -17.587   5.404  1.00  0.00     0.042 C 
HETATM   15  C   UNL     1      43.255 -18.142   6.613  1.00  0.00     0.081 C 
HETATM   16  C   UNL     1      43.319 -17.094   7.727  1.00  0.00     0.042 C 
HETATM   17  C   UNL     1      43.846 -15.739   7.264  1.00  0.00     0.235 C 
BRANCH  15  18
HETATM   18  C   UNL     1      44.645 -18.594   6.193  1.00  0.00     0.219 C 
HETATM   19  N   UNL     1      44.687 -19.538   5.216  1.00  0.00    -0.370 N 
HETATM   20  H   UNL     1      43.908 -20.155   5.023  1.00  0.00     0.159 HD
HETATM   21  H   UNL     1      45.605 -19.895   4.969  1.00  0.00     0.159 HD
HETATM   22  O   UNL     1      45.669 -18.075   6.618  1.00  0.00    -0.273 OA
ENDBRANCH  15  18
ENDBRANCH  10  11
ENDBRANCH   9  10
ENDBRANCH   8   9
ENDBRANCH   2   8
BRANCH   1  23
HETATM   23  C   UNL     1      39.508 -13.369   3.943  1.00  0.00     0.138 C 
BRANCH  23  24
HETATM   24  C   UNL     1      39.829 -13.238   5.419  1.00  0.00     0.224 C 
HETATM   25  N   UNL     1      39.689 -11.955   5.900  1.00  0.00    -0.327 N 
HETATM   26  H   UNL     1      39.140 -11.297   5.347  1.00  0.00     0.169 HD
HETATM   27  O   UNL     1      40.186 -14.229   6.052  1.00  0.00    -0.273 OA
BRANCH  25  28
HETATM   28  C   UNL     1      40.176 -11.433   7.114  1.00  0.00     0.034 A 
HETATM   29  C   UNL     1      39.424 -11.335   8.282  1.00  0.00     0.032 A 
HETATM   30  C   UNL     1      40.023 -10.886   9.467  1.00  0.00     0.039 A 
HETATM   31  C   UNL     1      41.372 -10.530   9.500  1.00  0.00     0.068 A 
HETATM   32  C   UNL     1      42.119 -10.602   8.327  1.00  0.00     0.039 A 
HETATM   33  C   UNL     1      41.525 -11.055   7.144  1.00  0.00     0.032 A 
BRANCH  31  34
HETATM   34  O   UNL     1      41.838 -10.138  10.724  1.00  0.00    -0.352 OA
BRANCH  34  35
HETATM   35  C   UNL     1      42.113 -11.170  11.671  1.00  0.00     0.171 C 
HETATM   36  C   UNL     1      43.597 -11.483  11.613  1.00  0.00     0.034 C 
ENDBRANCH  34  35
ENDBRANCH  31  34
ENDBRANCH  25  28
ENDBRANCH  23  24
ENDBRANCH   1  23
BRANCH   5  37
HETATM   37  C   UNL     1      40.074 -14.522  -0.504  1.00  0.00     0.045 A 
HETATM   38  C   UNL     1      38.874 -14.052  -1.068  1.00  0.00     0.032 A 
HETATM   39  C   UNL     1      38.483 -14.414  -2.364  1.00  0.00     0.026 A 
HETATM   40  C   UNL     1      39.285 -15.257  -3.121  1.00  0.00     0.034 A 
HETATM   41 CL   UNL     1      38.807 -15.709  -4.708  1.00  0.00    -0.084 Cl
HETATM   42  C   UNL     1      40.471 -15.748  -2.587  1.00  0.00     0.026 A 
HETATM   43  C   UNL     1      40.853 -15.389  -1.288  1.00  0.00     0.032 A 
ENDBRANCH   5  37
TORSDOF 11
ENDMDL
MODEL 5
REMARK VINA RESULT:      -8.0      3.494      7.599
REMARK  11 active torsions:
REMARK  status: ('A' for Active; 'I' for Inactive)
REMARK    1  A    between atoms: C_2  and  O_3 
REMARK    2  A    between atoms: O_3  and  C_4 
REMARK    3  A    between atoms: C_7  and  N_8 
REMARK       I    between atoms: N_8  and  C_9 
REMARK    4  A    between atoms: C_9  and  C_10 
REMARK    5  A    between atoms: C_10  and  C_11 
REMARK    6  A    between atoms: N_12  and  C_13 
REMARK    7  A    between atoms: C_13  and  C_14 
REMARK    8  A    between atoms: C_14  and  C_15 
REMARK    9  A    between atoms: C_15  and  N_16 
REMARK   10  A    between atoms: C_20  and  C_21 
REMARK       I    between atoms: C_21  and  N_22 
REMARK   11  A    between atoms: N_28  and  C_29 
ROOT
HETATM    1  C   UNL     1      42.046 -12.539   4.168  1.00  0.00     0.188 C 
HETATM    2  N   UNL     1      41.310 -12.756   2.928  1.00  0.00    -0.344 N 
HETATM    3  C   UNL     1      41.264 -14.128   2.608  1.00  0.00     0.184 C 
HETATM    4  S   UNL     1      40.139 -14.782   1.554  1.00  0.00    -0.040 SA
HETATM    5  N   UNL     1      42.231 -14.773   3.375  1.00  0.00    -0.257 N 
HETATM    6  C   UNL     1      42.723 -13.895   4.322  1.00  0.00     0.254 C 
HETATM    7  O   UNL     1      43.521 -14.107   5.229  1.00  0.00    -0.270 OA
ENDROOT
BRANCH   2   8
HETATM    8  C   UNL     1      40.550 -11.659   2.316  1.00  0.00     0.128 C 
BRANCH   8   9
HETATM    9  C   UNL     1      41.110 -11.238   0.945  1.00  0.00     0.048 C 
BRANCH   9  10
HETATM   10  C   UNL     1      40.038 -11.186  -0.149  1.00  0.00     0.236 C 
BRANCH  10  11
HETATM   11  N   UNL     1      40.537 -11.797  -1.452  1.00  0.00    -0.071 N 
HETATM   12  H   UNL     1      40.904 -11.044  -2.046  1.00  0.00     0.279 HD
HETATM   13  C   UNL     1      41.647 -12.799  -1.202  1.00  0.00     0.235 C 
HETATM   14  C   UNL     1      42.161 -13.341  -2.531  1.00  0.00     0.042 C 
HETATM   15  C   UNL     1      41.045 -14.004  -3.339  1.00  0.00     0.081 C 
HETATM   16  C   UNL     1      39.869 -13.038  -3.515  1.00  0.00     0.042 C 
HETATM   17  C   UNL     1      39.378 -12.428  -2.206  1.00  0.00     0.235 C 
BRANCH  15  18
HETATM   18  C   UNL     1      40.609 -15.294  -2.660  1.00  0.00     0.219 C 
HETATM   19  N   UNL     1      39.508 -15.892  -3.185  1.00  0.00    -0.370 N 
HETATM   20  H   UNL     1      38.819 -15.384  -3.726  1.00  0.00     0.159 HD
HETATM   21  H   UNL     1      39.168 -16.720  -2.704  1.00  0.00     0.159 HD
HETATM   22  O   UNL     1      41.259 -15.829  -1.771  1.00  0.00    -0.273 OA
ENDBRANCH  15  18
ENDBRANCH  10  11
ENDBRANCH   9  10
ENDBRANCH   8   9
ENDBRANCH   2   8
BRANCH   1  23
HETATM   23  C   UNL     1      41.126 -12.319   5.363  1.00  0.00     0.138 C 
BRANCH  23  24
HETATM   24  C   UNL     1      41.705 -11.326   6.352  1.00  0.00     0.224 C 
HETATM   25  N   UNL     1      42.372 -11.920   7.400  1.00  0.00    -0.327 N 
HETATM   26  H   UNL     1      42.661 -12.892   7.290  1.00  0.00     0.169 HD
HETATM   27  O   UNL     1      41.539 -10.122   6.170  1.00  0.00    -0.273 OA
BRANCH  25  28
HETATM   28  C   UNL     1      42.762 -11.330   8.618  1.00  0.00     0.034 A 
HETATM   29  C   UNL     1      41.898 -10.641   9.466  1.00  0.00     0.032 A 
HETATM   30  C   UNL     1      42.359 -10.166  10.701  1.00  0.00     0.039 A 
HETATM   31  C   UNL     1      43.680 -10.372  11.104  1.00  0.00     0.068 A 
HETATM   32  C   UNL     1      44.551 -11.038  10.246  1.00  0.00     0.039 A 
HETATM   33  C   UNL     1      44.093 -11.517   9.014  1.00  0.00     0.032 A 
BRANCH  31  34
HETATM   34  O   UNL     1      43.990  -9.885  12.343  1.00  0.00    -0.352 OA
BRANCH  34  35
HETATM   35  C   UNL     1      43.055 -10.143  13.391  1.00  0.00     0.171 C 
HETATM   36  C   UNL     1      42.868  -8.864  14.185  1.00  0.00     0.034 C 
ENDBRANCH  34  35
ENDBRANCH  31  34
ENDBRANCH  25  28
ENDBRANCH  23  24
ENDBRANCH   1  23
BRANCH   5  37
HETATM   37  C   UNL     1      42.709 -16.115   3.240  1.00  0.00     0.045 A 
HETATM   38  C   UNL     1      42.415 -17.094   4.206  1.00  0.00     0.032 A 
HETATM   39  C   UNL     1      42.916 -18.399   4.102  1.00  0.00     0.026 A 
HETATM   40  C   UNL     1      43.727 -18.748   3.030  1.00  0.00     0.034 A 
HETATM   41 CL   UNL     1      44.349 -20.343   2.902  1.00  0.00    -0.084 Cl
HETATM   42  C   UNL     1      44.045 -17.799   2.066  1.00  0.00     0.026 A 
HETATM   43  C   UNL     1      43.547 -16.495   2.178  1.00  0.00     0.032 A 
ENDBRANCH   5  37
TORSDOF 11
ENDMDL
MODEL 6
REMARK VINA RESULT:      -8.0      3.514      5.532
REMARK  11 active torsions:
REMARK  status: ('A' for Active; 'I' for Inactive)
REMARK    1  A    between atoms: C_2  and  O_3 
REMARK    2  A    between atoms: O_3  and  C_4 
REMARK    3  A    between atoms: C_7  and  N_8 
REMARK       I    between atoms: N_8  and  C_9 
REMARK    4  A    between atoms: C_9  and  C_10 
REMARK    5  A    between atoms: C_10  and  C_11 
REMARK    6  A    between atoms: N_12  and  C_13 
REMARK    7  A    between atoms: C_13  and  C_14 
REMARK    8  A    between atoms: C_14  and  C_15 
REMARK    9  A    between atoms: C_15  and  N_16 
REMARK   10  A    between atoms: C_20  and  C_21 
REMARK       I    between atoms: C_21  and  N_22 
REMARK   11  A    between atoms: N_28  and  C_29 
ROOT
HETATM    1  C   UNL     1      42.106 -12.781   3.010  1.00  0.00     0.188 C 
HETATM    2  N   UNL     1      40.822 -13.206   2.465  1.00  0.00    -0.344 N 
HETATM    3  C   UNL     1      40.751 -14.612   2.392  1.00  0.00     0.184 C 
HETATM    4  S   UNL     1      39.305 -15.447   2.274  1.00  0.00    -0.040 SA
HETATM    5  N   UNL     1      42.046 -15.107   2.520  1.00  0.00    -0.257 N 
HETATM    6  C   UNL     1      42.893 -14.081   2.895  1.00  0.00     0.254 C 
HETATM    7  O   UNL     1      44.084 -14.131   3.185  1.00  0.00    -0.270 OA
ENDROOT
BRANCH   2   8
HETATM    8  C   UNL     1      39.734 -12.236   2.290  1.00  0.00     0.128 C 
BRANCH   8   9
HETATM    9  C   UNL     1      39.760 -11.556   0.909  1.00  0.00     0.048 C 
BRANCH   9  10
HETATM   10  C   UNL     1      38.954 -12.319  -0.149  1.00  0.00     0.236 C 
BRANCH  10  11
HETATM   11  N   UNL     1      39.860 -12.930  -1.210  1.00  0.00    -0.071 N 
HETATM   12  H   UNL     1      40.785 -12.489  -1.141  1.00  0.00     0.279 HD
HETATM   13  C   UNL     1      40.022 -14.424  -1.004  1.00  0.00     0.235 C 
HETATM   14  C   UNL     1      40.982 -14.987  -2.045  1.00  0.00     0.042 C 
HETATM   15  C   UNL     1      40.494 -14.715  -3.468  1.00  0.00     0.081 C 
HETATM   16  C   UNL     1      40.227 -13.220  -3.663  1.00  0.00     0.042 C 
HETATM   17  C   UNL     1      39.322 -12.615  -2.595  1.00  0.00     0.235 C 
BRANCH  15  18
HETATM   18  C   UNL     1      39.251 -15.545  -3.756  1.00  0.00     0.219 C 
HETATM   19  N   UNL     1      39.365 -16.877  -3.518  1.00  0.00    -0.370 N 
HETATM   20  H   UNL     1      40.259 -17.352  -3.501  1.00  0.00     0.159 HD
HETATM   21  H   UNL     1      38.564 -17.452  -3.765  1.00  0.00     0.159 HD
HETATM   22  O   UNL     1      38.179 -15.046  -4.076  1.00  0.00    -0.273 OA
ENDBRANCH  15  18
ENDBRANCH  10  11
ENDBRANCH   9  10
ENDBRANCH   8   9
ENDBRANCH   2   8
BRANCH   1  23
HETATM   23  C   UNL     1      42.019 -12.397   4.482  1.00  0.00     0.138 C 
BRANCH  23  24
HETATM   24  C   UNL     1      41.899 -13.612   5.381  1.00  0.00     0.224 C 
HETATM   25  N   UNL     1      43.112 -14.182   5.699  1.00  0.00    -0.327 N 
HETATM   26  H   UNL     1      43.952 -13.620   5.562  1.00  0.00     0.169 HD
HETATM   27  O   UNL     1      40.788 -13.995   5.737  1.00  0.00    -0.273 OA
BRANCH  25  28
HETATM   28  C   UNL     1      43.346 -15.457   6.250  1.00  0.00     0.034 A 
HETATM   29  C   UNL     1      44.613 -15.994   6.471  1.00  0.00     0.032 A 
HETATM   30  C   UNL     1      44.747 -17.234   7.109  1.00  0.00     0.039 A 
HETATM   31  C   UNL     1      43.626 -17.950   7.532  1.00  0.00     0.068 A 
HETATM   32  C   UNL     1      42.359 -17.427   7.289  1.00  0.00     0.039 A 
HETATM   33  C   UNL     1      42.222 -16.187   6.656  1.00  0.00     0.032 A 
BRANCH  31  34
HETATM   34  O   UNL     1      43.899 -19.129   8.168  1.00  0.00    -0.352 OA
BRANCH  34  35
HETATM   35  C   UNL     1      43.516 -20.329   7.496  1.00  0.00     0.171 C 
HETATM   36  C   UNL     1      44.204 -20.356   6.143  1.00  0.00     0.034 C 
ENDBRANCH  34  35
ENDBRANCH  31  34
ENDBRANCH  25  28
ENDBRANCH  23  24
ENDBRANCH   1  23
BRANCH   5  37
HETATM   37  C   UNL     1      42.504 -16.443   2.287  1.00  0.00     0.045 A 
HETATM   38  C   UNL     1      42.399 -17.433   3.280  1.00  0.00     0.032 A 
HETATM   39  C   UNL     1      42.886 -18.732   3.073  1.00  0.00     0.026 A 
HETATM   40  C   UNL     1      43.490 -19.063   1.868  1.00  0.00     0.034 A 
HETATM   41 CL   UNL     1      44.093 -20.651   1.613  1.00  0.00    -0.084 Cl
HETATM   42  C   UNL     1      43.619 -18.103   0.872  1.00  0.00     0.026 A 
HETATM   43  C   UNL     1      43.137 -16.805   1.086  1.00  0.00     0.032 A 
ENDBRANCH   5  37
TORSDOF 11
ENDMDL
MODEL 7
REMARK VINA RESULT:      -7.9      4.189      5.731
REMARK  11 active torsions:
REMARK  status: ('A' for Active; 'I' for Inactive)
REMARK    1  A    between atoms: C_2  and  O_3 
REMARK    2  A    between atoms: O_3  and  C_4 
REMARK    3  A    between atoms: C_7  and  N_8 
REMARK       I    between atoms: N_8  and  C_9 
REMARK    4  A    between atoms: C_9  and  C_10 
REMARK    5  A    between atoms: C_10  and  C_11 
REMARK    6  A    between atoms: N_12  and  C_13 
REMARK    7  A    between atoms: C_13  and  C_14 
REMARK    8  A    between atoms: C_14  and  C_15 
REMARK    9  A    between atoms: C_15  and  N_16 
REMARK   10  A    between atoms: C_20  and  C_21 
REMARK       I    between atoms: C_21  and  N_22 
REMARK   11  A    between atoms: N_28  and  C_29 
ROOT
HETATM    1  C   UNL     1      39.608 -13.053   0.997  1.00  0.00     0.188 C 
HETATM    2  N   UNL     1      39.938 -11.634   1.048  1.00  0.00    -0.344 N 
HETATM    3  C   UNL     1      38.776 -10.845   0.929  1.00  0.00     0.184 C 
HETATM    4  S   UNL     1      38.707  -9.243   1.410  1.00  0.00    -0.040 SA
HETATM    5  N   UNL     1      37.759 -11.663   0.444  1.00  0.00    -0.257 N 
HETATM    6  C   UNL     1      38.180 -12.980   0.468  1.00  0.00     0.254 C 
HETATM    7  O   UNL     1      37.548 -13.996   0.201  1.00  0.00    -0.270 OA
ENDROOT
BRANCH   2   8
HETATM    8  C   UNL     1      41.289 -11.201   1.429  1.00  0.00     0.128 C 
BRANCH   8   9
HETATM    9  C   UNL     1      42.283 -11.250   0.255  1.00  0.00     0.048 C 
BRANCH   9  10
HETATM   10  C   UNL     1      41.786 -10.492  -0.981  1.00  0.00     0.236 C 
BRANCH  10  11
HETATM   11  N   UNL     1      41.587 -11.426  -2.168  1.00  0.00    -0.071 N 
HETATM   12  H   UNL     1      41.995 -10.985  -3.001  1.00  0.00     0.279 HD
HETATM   13  C   UNL     1      42.274 -12.759  -1.943  1.00  0.00     0.235 C 
HETATM   14  C   UNL     1      42.105 -13.641  -3.174  1.00  0.00     0.042 C 
HETATM   15  C   UNL     1      40.630 -13.874  -3.503  1.00  0.00     0.081 C 
HETATM   16  C   UNL     1      39.896 -12.536  -3.634  1.00  0.00     0.042 C 
HETATM   17  C   UNL     1      40.104 -11.605  -2.444  1.00  0.00     0.235 C 
BRANCH  15  18
HETATM   18  C   UNL     1      39.995 -14.755  -2.439  1.00  0.00     0.219 C 
HETATM   19  N   UNL     1      38.642 -14.872  -2.502  1.00  0.00    -0.370 N 
HETATM   20  H   UNL     1      38.058 -14.183  -2.958  1.00  0.00     0.159 HD
HETATM   21  H   UNL     1      38.198 -15.406  -1.760  1.00  0.00     0.159 HD
HETATM   22  O   UNL     1      40.652 -15.410  -1.639  1.00  0.00    -0.273 OA
ENDBRANCH  15  18
ENDBRANCH  10  11
ENDBRANCH   9  10
ENDBRANCH   8   9
ENDBRANCH   2   8
BRANCH   1  23
HETATM   23  C   UNL     1      39.580 -13.698   2.377  1.00  0.00     0.138 C 
BRANCH  23  24
HETATM   24  C   UNL     1      40.043 -15.142   2.340  1.00  0.00     0.224 C 
HETATM   25  N   UNL     1      41.327 -15.319   2.807  1.00  0.00    -0.327 N 
HETATM   26  H   UNL     1      41.734 -14.575   3.373  1.00  0.00     0.169 HD
HETATM   27  O   UNL     1      39.289 -16.009   1.908  1.00  0.00    -0.273 OA
BRANCH  25  28
HETATM   28  C   UNL     1      42.155 -16.446   2.641  1.00  0.00     0.034 A 
HETATM   29  C   UNL     1      43.046 -16.614   1.584  1.00  0.00     0.032 A 
HETATM   30  C   UNL     1      43.895 -17.728   1.553  1.00  0.00     0.039 A 
HETATM   31  C   UNL     1      43.865 -18.684   2.571  1.00  0.00     0.068 A 
HETATM   32  C   UNL     1      42.956 -18.531   3.615  1.00  0.00     0.039 A 
HETATM   33  C   UNL     1      42.111 -17.417   3.651  1.00  0.00     0.032 A 
BRANCH  31  34
HETATM   34  O   UNL     1      44.765 -19.703   2.435  1.00  0.00    -0.352 OA
BRANCH  34  35
HETATM   35  C   UNL     1      44.351 -20.996   2.879  1.00  0.00     0.171 C 
HETATM   36  C   UNL     1      43.910 -21.795   1.666  1.00  0.00     0.034 C 
ENDBRANCH  34  35
ENDBRANCH  31  34
ENDBRANCH  25  28
ENDBRANCH  23  24
ENDBRANCH   1  23
BRANCH   5  37
HETATM   37  C   UNL     1      36.473 -11.271  -0.048  1.00  0.00     0.045 A 
HETATM   38  C   UNL     1      35.393 -11.056   0.827  1.00  0.00     0.032 A 
HETATM   39  C   UNL     1      34.120 -10.714   0.348  1.00  0.00     0.026 A 
HETATM   40  C   UNL     1      33.904 -10.584  -1.017  1.00  0.00     0.034 A 
HETATM   41 CL   UNL     1      32.345 -10.172  -1.608  1.00  0.00    -0.084 Cl
HETATM   42  C   UNL     1      34.949 -10.801  -1.907  1.00  0.00     0.026 A 
HETATM   43  C   UNL     1      36.217 -11.150  -1.424  1.00  0.00     0.032 A 
ENDBRANCH   5  37
TORSDOF 11
ENDMDL
MODEL 8
REMARK VINA RESULT:      -7.9      3.901      8.249
REMARK  11 active torsions:
REMARK  status: ('A' for Active; 'I' for Inactive)
REMARK    1  A    between atoms: C_2  and  O_3 
REMARK    2  A    between atoms: O_3  and  C_4 
REMARK    3  A    between atoms: C_7  and  N_8 
REMARK       I    between atoms: N_8  and  C_9 
REMARK    4  A    between atoms: C_9  and  C_10 
REMARK    5  A    between atoms: C_10  and  C_11 
REMARK    6  A    between atoms: N_12  and  C_13 
REMARK    7  A    between atoms: C_13  and  C_14 
REMARK    8  A    between atoms: C_14  and  C_15 
REMARK    9  A    between atoms: C_15  and  N_16 
REMARK   10  A    between atoms: C_20  and  C_21 
REMARK       I    between atoms: C_21  and  N_22 
REMARK   11  A    between atoms: N_28  and  C_29 
ROOT
HETATM    1  C   UNL     1      40.043 -14.940   1.942  1.00  0.00     0.188 C 
HETATM    2  N   UNL     1      40.879 -14.138   2.827  1.00  0.00    -0.344 N 
HETATM    3  C   UNL     1      42.022 -14.860   3.225  1.00  0.00     0.184 C 
HETATM    4  S   UNL     1      43.401 -14.127   3.829  1.00  0.00    -0.040 SA
HETATM    5  N   UNL     1      41.793 -16.203   2.939  1.00  0.00    -0.257 N 
HETATM    6  C   UNL     1      40.647 -16.319   2.174  1.00  0.00     0.254 C 
HETATM    7  O   UNL     1      40.163 -17.320   1.657  1.00  0.00    -0.270 OA
ENDROOT
BRANCH   2   8
HETATM    8  C   UNL     1      40.607 -12.706   3.009  1.00  0.00     0.128 C 
BRANCH   8   9
HETATM    9  C   UNL     1      41.411 -11.820   2.040  1.00  0.00     0.048 C 
BRANCH   9  10
HETATM   10  C   UNL     1      40.520 -10.974   1.123  1.00  0.00     0.236 C 
BRANCH  10  11
HETATM   11  N   UNL     1      41.235 -10.611  -0.172  1.00  0.00    -0.071 N 
HETATM   12  H   UNL     1      41.498  -9.618  -0.130  1.00  0.00     0.279 HD
HETATM   13  C   UNL     1      42.493 -11.436  -0.359  1.00  0.00     0.235 C 
HETATM   14  C   UNL     1      43.211 -11.001  -1.630  1.00  0.00     0.042 C 
HETATM   15  C   UNL     1      42.316 -11.145  -2.862  1.00  0.00     0.081 C 
HETATM   16  C   UNL     1      40.995 -10.399  -2.649  1.00  0.00     0.042 C 
HETATM   17  C   UNL     1      40.287 -10.767  -1.349  1.00  0.00     0.235 C 
BRANCH  15  18
HETATM   18  C   UNL     1      42.082 -12.617  -3.163  1.00  0.00     0.219 C 
HETATM   19  N   UNL     1      43.138 -13.440  -2.931  1.00  0.00    -0.370 N 
HETATM   20  H   UNL     1      44.094 -13.105  -2.911  1.00  0.00     0.159 HD
HETATM   21  H   UNL     1      43.018 -14.416  -3.187  1.00  0.00     0.159 HD
HETATM   22  O   UNL     1      40.989 -13.064  -3.487  1.00  0.00    -0.273 OA
ENDBRANCH  15  18
ENDBRANCH  10  11
ENDBRANCH   9  10
ENDBRANCH   8   9
ENDBRANCH   2   8
BRANCH   1  23
HETATM   23  C   UNL     1      40.224 -14.572   0.474  1.00  0.00     0.138 C 
BRANCH  23  24
HETATM   24  C   UNL     1      38.920 -14.145  -0.171  1.00  0.00     0.224 C 
HETATM   25  N   UNL     1      38.857 -14.422  -1.519  1.00  0.00    -0.327 N 
HETATM   26  H   UNL     1      39.514 -15.105  -1.895  1.00  0.00     0.169 HD
HETATM   27  O   UNL     1      38.058 -13.596   0.511  1.00  0.00    -0.273 OA
BRANCH  25  28
HETATM   28  C   UNL     1      37.945 -13.909  -2.462  1.00  0.00     0.034 A 
HETATM   29  C   UNL     1      37.633 -12.558  -2.593  1.00  0.00     0.032 A 
HETATM   30  C   UNL     1      36.782 -12.132  -3.622  1.00  0.00     0.039 A 
HETATM   31  C   UNL     1      36.236 -13.044  -4.527  1.00  0.00     0.068 A 
HETATM   32  C   UNL     1      36.527 -14.398  -4.381  1.00  0.00     0.039 A 
HETATM   33  C   UNL     1      37.379 -14.825  -3.358  1.00  0.00     0.032 A 
BRANCH  31  34
HETATM   34  O   UNL     1      35.448 -12.493  -5.499  1.00  0.00    -0.352 OA
BRANCH  34  35
HETATM   35  C   UNL     1      34.043 -12.725  -5.401  1.00  0.00     0.171 C 
HETATM   36  C   UNL     1      33.333 -11.388  -5.508  1.00  0.00     0.034 C 
ENDBRANCH  34  35
ENDBRANCH  31  34
ENDBRANCH  25  28
ENDBRANCH  23  24
ENDBRANCH   1  23
BRANCH   5  37
HETATM   37  C   UNL     1      42.559 -17.336   3.360  1.00  0.00     0.045 A 
HETATM   38  C   UNL     1      42.556 -17.761   4.701  1.00  0.00     0.032 A 
HETATM   39  C   UNL     1      43.338 -18.842   5.129  1.00  0.00     0.026 A 
HETATM   40  C   UNL     1      44.142 -19.519   4.221  1.00  0.00     0.034 A 
HETATM   41 CL   UNL     1      45.108 -20.841   4.742  1.00  0.00    -0.084 Cl
HETATM   42  C   UNL     1      44.176 -19.116   2.892  1.00  0.00     0.026 A 
HETATM   43  C   UNL     1      43.398 -18.029   2.472  1.00  0.00     0.032 A 
ENDBRANCH   5  37
TORSDOF 11
ENDMDL
MODEL 9
REMARK VINA RESULT:      -7.8      3.787      7.496
REMARK  11 active torsions:
REMARK  status: ('A' for Active; 'I' for Inactive)
REMARK    1  A    between atoms: C_2  and  O_3 
REMARK    2  A    between atoms: O_3  and  C_4 
REMARK    3  A    between atoms: C_7  and  N_8 
REMARK       I    between atoms: N_8  and  C_9 
REMARK    4  A    between atoms: C_9  and  C_10 
REMARK    5  A    between atoms: C_10  and  C_11 
REMARK    6  A    between atoms: N_12  and  C_13 
REMARK    7  A    between atoms: C_13  and  C_14 
REMARK    8  A    between atoms: C_14  and  C_15 
REMARK    9  A    between atoms: C_15  and  N_16 
REMARK   10  A    between atoms: C_20  and  C_21 
REMARK       I    between atoms: C_21  and  N_22 
REMARK   11  A    between atoms: N_28  and  C_29 
ROOT
HETATM    1  C   UNL     1      40.797 -13.549  -0.251  1.00  0.00     0.188 C 
HETATM    2  N   UNL     1      39.486 -13.262  -0.821  1.00  0.00    -0.344 N 
HETATM    3  C   UNL     1      39.612 -12.520  -2.013  1.00  0.00     0.184 C 
HETATM    4  S   UNL     1      38.396 -12.423  -3.160  1.00  0.00    -0.040 SA
HETATM    5  N   UNL     1      40.904 -12.003  -2.054  1.00  0.00    -0.257 N 
HETATM    6  C   UNL     1      41.659 -12.578  -1.049  1.00  0.00     0.254 C 
HETATM    7  O   UNL     1      42.855 -12.446  -0.811  1.00  0.00    -0.270 OA
ENDROOT
BRANCH   2   8
HETATM    8  C   UNL     1      38.286 -13.918  -0.287  1.00  0.00     0.128 C 
BRANCH   8   9
HETATM    9  C   UNL     1      38.138 -13.741   1.235  1.00  0.00     0.048 C 
BRANCH   9  10
HETATM   10  C   UNL     1      38.137 -12.271   1.669  1.00  0.00     0.236 C 
BRANCH  10  11
HETATM   11  N   UNL     1      39.305 -11.959   2.596  1.00  0.00    -0.071 N 
HETATM   12  H   UNL     1      40.080 -11.592   2.031  1.00  0.00     0.279 HD
HETATM   13  C   UNL     1      38.926 -10.918   3.631  1.00  0.00     0.235 C 
HETATM   14  C   UNL     1      40.135 -10.589   4.498  1.00  0.00     0.042 C 
HETATM   15  C   UNL     1      40.683 -11.833   5.199  1.00  0.00     0.081 C 
HETATM   16  C   UNL     1      40.976 -12.934   4.176  1.00  0.00     0.042 C 
HETATM   17  C   UNL     1      39.803 -13.237   3.249  1.00  0.00     0.235 C 
BRANCH  15  18
HETATM   18  C   UNL     1      39.699 -12.305   6.259  1.00  0.00     0.219 C 
HETATM   19  N   UNL     1      39.757 -13.627   6.569  1.00  0.00    -0.370 N 
HETATM   20  H   UNL     1      40.141 -14.317   5.936  1.00  0.00     0.159 HD
HETATM   21  H   UNL     1      39.065 -13.969   7.229  1.00  0.00     0.159 HD
HETATM   22  O   UNL     1      38.972 -11.539   6.879  1.00  0.00    -0.273 OA
ENDBRANCH  15  18
ENDBRANCH  10  11
ENDBRANCH   9  10
ENDBRANCH   8   9
ENDBRANCH   2   8
BRANCH   1  23
HETATM   23  C   UNL     1      41.266 -14.968  -0.547  1.00  0.00     0.138 C 
BRANCH  23  24
HETATM   24  C   UNL     1      41.379 -15.805   0.713  1.00  0.00     0.224 C 
HETATM   25  N   UNL     1      42.679 -16.099   1.062  1.00  0.00    -0.327 N 
HETATM   26  H   UNL     1      43.421 -15.533   0.652  1.00  0.00     0.169 HD
HETATM   27  O   UNL     1      40.359 -16.158   1.299  1.00  0.00    -0.273 OA
BRANCH  25  28
HETATM   28  C   UNL     1      43.125 -17.074   1.976  1.00  0.00     0.034 A 
HETATM   29  C   UNL     1      43.470 -16.807   3.299  1.00  0.00     0.032 A 
HETATM   30  C   UNL     1      43.816 -17.858   4.159  1.00  0.00     0.039 A 
HETATM   31  C   UNL     1      43.823 -19.180   3.711  1.00  0.00     0.068 A 
HETATM   32  C   UNL     1      43.504 -19.446   2.382  1.00  0.00     0.039 A 
HETATM   33  C   UNL     1      43.153 -18.399   1.523  1.00  0.00     0.032 A 
BRANCH  31  34
HETATM   34  O   UNL     1      44.149 -20.110   4.659  1.00  0.00    -0.352 OA
BRANCH  34  35
HETATM   35  C   UNL     1      45.295 -20.921   4.401  1.00  0.00     0.171 C 
HETATM   36  C   UNL     1      45.066 -22.282   5.033  1.00  0.00     0.034 C 
ENDBRANCH  34  35
ENDBRANCH  31  34
ENDBRANCH  25  28
ENDBRANCH  23  24
ENDBRANCH   1  23
BRANCH   5  37
HETATM   37  C   UNL     1      41.428 -11.013  -2.945  1.00  0.00     0.045 A 
HETATM   38  C   UNL     1      41.329  -9.642  -2.650  1.00  0.00     0.032 A 
HETATM   39  C   UNL     1      41.801  -8.665  -3.539  1.00  0.00     0.026 A 
HETATM   40  C   UNL     1      42.379  -9.044  -4.743  1.00  0.00     0.034 A 
HETATM   41 CL   UNL     1      42.952  -7.852  -5.838  1.00  0.00    -0.084 Cl
HETATM   42  C   UNL     1      42.480 -10.391  -5.068  1.00  0.00     0.026 A 
HETATM   43  C   UNL     1      42.000 -11.363  -4.180  1.00  0.00     0.032 A 
ENDBRANCH   5  37
TORSDOF 11
ENDMDL
MODEL 10
REMARK VINA RESULT:      -7.7      3.361      7.945
REMARK  11 active torsions:
REMARK  status: ('A' for Active; 'I' for Inactive)
REMARK    1  A    between atoms: C_2  and  O_3 
REMARK    2  A    between atoms: O_3  and  C_4 
REMARK    3  A    between atoms: C_7  and  N_8 
REMARK       I    between atoms: N_8  and  C_9 
REMARK    4  A    between atoms: C_9  and  C_10 
REMARK    5  A    between atoms: C_10  and  C_11 
REMARK    6  A    between atoms: N_12  and  C_13 
REMARK    7  A    between atoms: C_13  and  C_14 
REMARK    8  A    between atoms: C_14  and  C_15 
REMARK    9  A    between atoms: C_15  and  N_16 
REMARK   10  A    between atoms: C_20  and  C_21 
REMARK       I    between atoms: C_21  and  N_22 
REMARK   11  A    between atoms: N_28  and  C_29 
ROOT
HETATM    1  C   UNL     1      40.922 -14.031   4.452  1.00  0.00     0.188 C 
HETATM    2  N   UNL     1      40.539 -14.597   3.164  1.00  0.00    -0.344 N 
HETATM    3  C   UNL     1      40.918 -15.952   3.082  1.00  0.00     0.184 C 
HETATM    4  S   UNL     1      40.243 -17.024   1.986  1.00  0.00    -0.040 SA
HETATM    5  N   UNL     1      41.840 -16.195   4.096  1.00  0.00    -0.257 N 
HETATM    6  C   UNL     1      41.882 -15.105   4.946  1.00  0.00     0.254 C 
HETATM    7  O   UNL     1      42.504 -14.969   5.995  1.00  0.00    -0.270 OA
ENDROOT
BRANCH   2   8
HETATM    8  C   UNL     1      39.661 -13.847   2.256  1.00  0.00     0.128 C 
BRANCH   8   9
HETATM    9  C   UNL     1      40.434 -13.148   1.123  1.00  0.00     0.048 C 
BRANCH   9  10
HETATM   10  C   UNL     1      41.806 -13.779   0.857  1.00  0.00     0.236 C 
BRANCH  10  11
HETATM   11  N   UNL     1      41.975 -14.152  -0.610  1.00  0.00    -0.071 N 
HETATM   12  H   UNL     1      42.861 -14.661  -0.716  1.00  0.00     0.279 HD
HETATM   13  C   UNL     1      40.846 -15.044  -1.087  1.00  0.00     0.235 C 
HETATM   14  C   UNL     1      41.083 -15.445  -2.538  1.00  0.00     0.042 C 
HETATM   15  C   UNL     1      41.192 -14.223  -3.451  1.00  0.00     0.081 C 
HETATM   16  C   UNL     1      42.261 -13.260  -2.926  1.00  0.00     0.042 C 
HETATM   17  C   UNL     1      42.086 -12.894  -1.455  1.00  0.00     0.235 C 
BRANCH  15  18
HETATM   18  C   UNL     1      39.837 -13.541  -3.567  1.00  0.00     0.219 C 
HETATM   19  N   UNL     1      39.859 -12.266  -4.035  1.00  0.00    -0.370 N 
HETATM   20  H   UNL     1      40.682 -11.679  -3.978  1.00  0.00     0.159 HD
HETATM   21  H   UNL     1      38.968 -11.776  -4.059  1.00  0.00     0.159 HD
HETATM   22  O   UNL     1      38.780 -14.124  -3.362  1.00  0.00    -0.273 OA
ENDBRANCH  15  18
ENDBRANCH  10  11
ENDBRANCH   9  10
ENDBRANCH   8   9
ENDBRANCH   2   8
BRANCH   1  23
HETATM   23  C   UNL     1      39.752 -13.944   5.424  1.00  0.00     0.138 C 
BRANCH  23  24
HETATM   24  C   UNL     1      39.527 -12.528   5.919  1.00  0.00     0.224 C 
HETATM   25  N   UNL     1      40.368 -12.165   6.947  1.00  0.00    -0.327 N 
HETATM   26  H   UNL     1      41.210 -12.722   7.091  1.00  0.00     0.169 HD
HETATM   27  O   UNL     1      38.647 -11.840   5.407  1.00  0.00    -0.273 OA
BRANCH  25  28
HETATM   28  C   UNL     1      40.240 -11.065   7.817  1.00  0.00     0.034 A 
HETATM   29  C   UNL     1      41.014  -9.910   7.738  1.00  0.00     0.032 A 
HETATM   30  C   UNL     1      40.752  -8.830   8.591  1.00  0.00     0.039 A 
HETATM   31  C   UNL     1      39.720  -8.889   9.529  1.00  0.00     0.068 A 
HETATM   32  C   UNL     1      38.962 -10.053   9.627  1.00  0.00     0.039 A 
HETATM   33  C   UNL     1      39.218 -11.131   8.773  1.00  0.00     0.032 A 
BRANCH  31  34
HETATM   34  O   UNL     1      39.552  -7.757  10.276  1.00  0.00    -0.352 OA
BRANCH  34  35
HETATM   35  C   UNL     1      40.127  -7.753  11.583  1.00  0.00     0.171 C 
HETATM   36  C   UNL     1      38.999  -7.742  12.598  1.00  0.00     0.034 C 
ENDBRANCH  34  35
ENDBRANCH  31  34
ENDBRANCH  25  28
ENDBRANCH  23  24
ENDBRANCH   1  23
BRANCH   5  37
HETATM   37  C   UNL     1      42.669 -17.348   4.275  1.00  0.00     0.045 A 
HETATM   38  C   UNL     1      43.541 -17.783   3.261  1.00  0.00     0.032 A 
HETATM   39  C   UNL     1      44.323 -18.937   3.414  1.00  0.00     0.026 A 
HETATM   40  C   UNL     1      44.243 -19.680   4.584  1.00  0.00     0.034 A 
HETATM   41 CL   UNL     1      45.194 -21.098   4.772  1.00  0.00    -0.084 Cl
HETATM   42  C   UNL     1      43.382 -19.282   5.599  1.00  0.00     0.026 A 
HETATM   43  C   UNL     1      42.597 -18.132   5.438  1.00  0.00     0.032 A 
ENDBRANCH   5  37
TORSDOF 11
ENDMDL
