MODEL 1
REMARK VINA RESULT:      -8.7      0.000      0.000
REMARK  11 active torsions:
REMARK  status: ('A' for Active; 'I' for Inactive)
REMARK    1  A    between atoms: C_4  and  C_5 
REMARK    2  A    between atoms: C_7  and  O_8 
REMARK    3  A    between atoms: C_10  and  O_11 
REMARK    4  A    between atoms: C_16  and  C_17 
REMARK    5  A    between atoms: C_20  and  C_21 
REMARK    6  A    between atoms: C_21  and  N_22 
REMARK    7  A    between atoms: N_22  and  C_23 
REMARK    8  A    between atoms: C_23  and  N_24 
REMARK    9  A    between atoms: N_24  and  C_25 
REMARK   10  A    between atoms: C_27  and  C_28 
REMARK   11  A    between atoms: C_28  and  O_29 
ROOT
HETATM    1  C   UNL     1      40.176 -14.849   0.766  1.00  0.00     0.067 C 
HETATM    2  C   UNL     1      40.266 -13.521  -0.010  1.00  0.00     0.001 C 
HETATM    3  C   UNL     1      40.037 -12.298   0.901  1.00  0.00     0.040 C 
HETATM    4  C   UNL     1      38.636 -12.302   1.534  1.00  0.00     0.206 C 
HETATM    5  N   UNL     1      38.020 -13.666   1.229  1.00  0.00    -0.065 N 
HETATM    6  H   UNL     1      37.121 -13.751   1.724  1.00  0.00     0.280 HD
HETATM    7  C   UNL     1      38.924 -14.820   1.672  1.00  0.00     0.246 C 
HETATM    8  C   UNL     1      39.079 -13.522  -1.011  1.00  0.00     0.033 C 
HETATM    9  C   UNL     1      37.755 -13.768  -0.270  1.00  0.00     0.236 C 
ENDROOT
BRANCH   4  10
HETATM   10  C   UNL     1      38.636 -11.978   3.046  1.00  0.00     0.155 C 
BRANCH  10  11
HETATM   11  N   UNL     1      39.877 -12.377   3.709  1.00  0.00    -0.365 N 
HETATM   12  H   UNL     1      40.717 -11.860   3.466  1.00  0.00     0.161 HD
BRANCH  11  13
HETATM   13  C   UNL     1      39.974 -12.962   4.943  1.00  0.00     0.172 C 
HETATM   14  S   UNL     1      39.503 -12.256   6.380  1.00  0.00    -0.041 SA
BRANCH  13  15
HETATM   15  N   UNL     1      40.526 -14.211   5.000  1.00  0.00    -0.333 N 
HETATM   16  H   UNL     1      40.160 -14.829   4.278  1.00  0.00     0.168 HD
BRANCH  15  17
HETATM   17  C   UNL     1      41.588 -14.744   5.761  1.00  0.00     0.035 A 
HETATM   18  C   UNL     1      42.772 -14.060   6.040  1.00  0.00     0.047 A 
HETATM   19  C   UNL     1      43.798 -14.662   6.787  1.00  0.00     0.041 A 
HETATM   20  C   UNL     1      43.648 -15.976   7.236  1.00  0.00     0.018 A 
HETATM   21  C   UNL     1      42.483 -16.679   6.932  1.00  0.00     0.003 A 
HETATM   22  C   UNL     1      41.463 -16.067   6.196  1.00  0.00     0.029 A 
BRANCH  19  23
HETATM   23  C   UNL     1      45.012 -13.846   7.067  1.00  0.00     0.293 C 
HETATM   24  O   UNL     1      45.842 -13.578   6.210  1.00  0.00    -0.259 OA
BRANCH  23  25
HETATM   25  O   UNL     1      45.047 -13.463   8.364  1.00  0.00    -0.323 OA
HETATM   26  C   UNL     1      45.803 -12.276   8.609  1.00  0.00     0.213 C 
ENDBRANCH  23  25
ENDBRANCH  19  23
ENDBRANCH  15  17
ENDBRANCH  13  15
ENDBRANCH  11  13
ENDBRANCH  10  11
ENDBRANCH   4  10
BRANCH   1  27
HETATM   27  C   UNL     1      41.371 -15.425   1.477  1.00  0.00     0.038 C 
HETATM   28  N   UNL     1      42.405 -14.828   2.166  1.00  0.00    -0.277 N 
HETATM   29  C   UNL     1      42.795 -13.445   2.299  1.00  0.00     0.179 C 
HETATM   30  N   UNL     1      43.171 -15.708   2.829  1.00  0.00    -0.172 NA
HETATM   31  C   UNL     1      42.769 -16.916   2.430  1.00  0.00     0.089 C 
HETATM   32  C   UNL     1      41.649 -16.784   1.581  1.00  0.00     0.061 C 
BRANCH  31  33
HETATM   33  C   UNL     1      43.422 -18.140   2.891  1.00  0.00    -0.003 A 
HETATM   34  C   UNL     1      43.788 -18.279   4.238  1.00  0.00     0.053 A 
HETATM   35  C   UNL     1      44.393 -19.453   4.702  1.00  0.00     0.102 A 
HETATM   36  C   UNL     1      44.655 -20.503   3.800  1.00  0.00     0.101 A 
HETATM   37  C   UNL     1      44.300 -20.362   2.455  1.00  0.00     0.040 A 
HETATM   38  C   UNL     1      43.686 -19.189   2.004  1.00  0.00     0.017 A 
BRANCH  35  39
HETATM   39  O   UNL     1      44.761 -19.673   6.006  1.00  0.00    -0.353 OA
HETATM   40  C   UNL     1      43.748 -20.064   6.923  1.00  0.00     0.210 C 
ENDBRANCH  35  39
BRANCH  36  41
HETATM   41  O   UNL     1      45.247 -21.621   4.331  1.00  0.00    -0.353 OA
HETATM   42  C   UNL     1      44.563 -22.858   4.198  1.00  0.00     0.210 C 
ENDBRANCH  36  41
ENDBRANCH  31  33
ENDBRANCH   1  27
TORSDOF 11
ENDMDL
MODEL 2
REMARK VINA RESULT:      -8.5      2.942      4.497
REMARK  11 active torsions:
REMARK  status: ('A' for Active; 'I' for Inactive)
REMARK    1  A    between atoms: C_4  and  C_5 
REMARK    2  A    between atoms: C_7  and  O_8 
REMARK    3  A    between atoms: C_10  and  O_11 
REMARK    4  A    between atoms: C_16  and  C_17 
REMARK    5  A    between atoms: C_20  and  C_21 
REMARK    6  A    between atoms: C_21  and  N_22 
REMARK    7  A    between atoms: N_22  and  C_23 
REMARK    8  A    between atoms: C_23  and  N_24 
REMARK    9  A    between atoms: N_24  and  C_25 
REMARK   10  A    between atoms: C_27  and  C_28 
REMARK   11  A    between atoms: C_28  and  O_29 
ROOT
HETATM    1  C   UNL     1      40.625 -12.503   4.091  1.00  0.00     0.067 C 
HETATM    2  C   UNL     1      41.640 -11.640   4.865  1.00  0.00     0.001 C 
HETATM    3  C   UNL     1      41.463 -11.765   6.393  1.00  0.00     0.040 C 
HETATM    4  C   UNL     1      40.081 -11.278   6.857  1.00  0.00     0.206 C 
HETATM    5  N   UNL     1      39.247 -11.056   5.597  1.00  0.00    -0.065 N 
HETATM    6  H   UNL     1      38.279 -10.828   5.865  1.00  0.00     0.280 HD
HETATM    7  C   UNL     1      39.219 -12.294   4.697  1.00  0.00     0.246 C 
HETATM    8  C   UNL     1      41.301 -10.163   4.527  1.00  0.00     0.033 C 
HETATM    9  C   UNL     1      39.821  -9.872   4.824  1.00  0.00     0.236 C 
ENDROOT
BRANCH   4  10
HETATM   10  C   UNL     1      39.391 -12.230   7.862  1.00  0.00     0.155 C 
BRANCH  10  11
HETATM   11  N   UNL     1      38.870 -11.530   9.036  1.00  0.00    -0.365 N 
HETATM   12  H   UNL     1      38.162 -12.012   9.584  1.00  0.00     0.161 HD
BRANCH  11  13
HETATM   13  C   UNL     1      39.543 -10.595   9.775  1.00  0.00     0.172 C 
HETATM   14  S   UNL     1      39.444  -8.943   9.554  1.00  0.00    -0.041 SA
BRANCH  13  15
HETATM   15  N   UNL     1      40.382 -11.056  10.749  1.00  0.00    -0.333 N 
HETATM   16  H   UNL     1      39.947 -11.773  11.327  1.00  0.00     0.168 HD
BRANCH  15  17
HETATM   17  C   UNL     1      41.752 -10.833  11.004  1.00  0.00     0.035 A 
HETATM   18  C   UNL     1      42.784 -11.251  10.162  1.00  0.00     0.047 A 
HETATM   19  C   UNL     1      44.129 -11.014  10.490  1.00  0.00     0.041 A 
HETATM   20  C   UNL     1      44.446 -10.375  11.691  1.00  0.00     0.018 A 
HETATM   21  C   UNL     1      43.423  -9.984  12.555  1.00  0.00     0.003 A 
HETATM   22  C   UNL     1      42.087 -10.216  12.214  1.00  0.00     0.029 A 
BRANCH  19  23
HETATM   23  C   UNL     1      45.162 -11.464   9.518  1.00  0.00     0.293 C 
HETATM   24  O   UNL     1      45.973 -10.700   9.011  1.00  0.00    -0.259 OA
BRANCH  23  25
HETATM   25  O   UNL     1      45.069 -12.795   9.295  1.00  0.00    -0.323 OA
HETATM   26  C   UNL     1      45.211 -13.176   7.926  1.00  0.00     0.213 C 
ENDBRANCH  23  25
ENDBRANCH  19  23
ENDBRANCH  15  17
ENDBRANCH  13  15
ENDBRANCH  11  13
ENDBRANCH  10  11
ENDBRANCH   4  10
BRANCH   1  27
HETATM   27  C   UNL     1      40.897 -13.952   3.788  1.00  0.00     0.038 C 
HETATM   28  N   UNL     1      40.320 -14.824   2.891  1.00  0.00    -0.277 N 
HETATM   29  C   UNL     1      39.147 -14.707   2.058  1.00  0.00     0.179 C 
HETATM   30  N   UNL     1      40.986 -15.984   2.784  1.00  0.00    -0.172 NA
HETATM   31  C   UNL     1      41.904 -15.970   3.753  1.00  0.00     0.089 C 
HETATM   32  C   UNL     1      41.879 -14.719   4.407  1.00  0.00     0.061 C 
BRANCH  31  33
HETATM   33  C   UNL     1      42.789 -17.106   3.997  1.00  0.00    -0.003 A 
HETATM   34  C   UNL     1      43.470 -17.219   5.219  1.00  0.00     0.053 A 
HETATM   35  C   UNL     1      44.303 -18.313   5.480  1.00  0.00     0.102 A 
HETATM   36  C   UNL     1      44.476 -19.306   4.494  1.00  0.00     0.101 A 
HETATM   37  C   UNL     1      43.806 -19.190   3.273  1.00  0.00     0.040 A 
HETATM   38  C   UNL     1      42.966 -18.099   3.027  1.00  0.00     0.017 A 
BRANCH  35  39
HETATM   39  O   UNL     1      44.987 -18.505   6.655  1.00  0.00    -0.353 OA
HETATM   40  C   UNL     1      44.226 -18.648   7.846  1.00  0.00     0.210 C 
ENDBRANCH  35  39
BRANCH  36  41
HETATM   41  O   UNL     1      45.306 -20.347   4.826  1.00  0.00    -0.353 OA
HETATM   42  C   UNL     1      44.727 -21.635   4.971  1.00  0.00     0.210 C 
ENDBRANCH  36  41
ENDBRANCH  31  33
ENDBRANCH   1  27
TORSDOF 11
ENDMDL
MODEL 3
REMARK VINA RESULT:      -8.4      2.348      3.811
REMARK  11 active torsions:
REMARK  status: ('A' for Active; 'I' for Inactive)
REMARK    1  A    between atoms: C_4  and  C_5 
REMARK    2  A    between atoms: C_7  and  O_8 
REMARK    3  A    between atoms: C_10  and  O_11 
REMARK    4  A    between atoms: C_16  and  C_17 
REMARK    5  A    between atoms: C_20  and  C_21 
REMARK    6  A    between atoms: C_21  and  N_22 
REMARK    7  A    between atoms: N_22  and  C_23 
REMARK    8  A    between atoms: C_23  and  N_24 
REMARK    9  A    between atoms: N_24  and  C_25 
REMARK   10  A    between atoms: C_27  and  C_28 
REMARK   11  A    between atoms: C_28  and  O_29 
ROOT
HETATM    1  C   UNL     1      40.456 -14.088   2.704  1.00  0.00     0.067 C 
HETATM    2  C   UNL     1      41.081 -12.699   2.476  1.00  0.00     0.001 C 
HETATM    3  C   UNL     1      41.981 -12.267   3.652  1.00  0.00     0.040 C 
HETATM    4  C   UNL     1      41.196 -12.145   4.967  1.00  0.00     0.206 C 
HETATM    5  N   UNL     1      39.811 -12.737   4.709  1.00  0.00    -0.065 N 
HETATM    6  H   UNL     1      39.285 -12.771   5.593  1.00  0.00     0.280 HD
HETATM    7  C   UNL     1      39.887 -14.156   4.139  1.00  0.00     0.246 C 
HETATM    8  C   UNL     1      39.903 -11.689   2.461  1.00  0.00     0.033 C 
HETATM    9  C   UNL     1      39.058 -11.833   3.737  1.00  0.00     0.236 C 
ENDROOT
BRANCH   4  10
HETATM   10  C   UNL     1      41.902 -12.801   6.177  1.00  0.00     0.155 C 
BRANCH  10  11
HETATM   11  N   UNL     1      43.111 -13.531   5.796  1.00  0.00    -0.365 N 
HETATM   12  H   UNL     1      43.617 -13.194   4.982  1.00  0.00     0.161 HD
BRANCH  11  13
HETATM   13  C   UNL     1      43.917 -14.242   6.644  1.00  0.00     0.172 C 
HETATM   14  S   UNL     1      43.712 -15.851   7.041  1.00  0.00    -0.041 SA
BRANCH  13  15
HETATM   15  N   UNL     1      44.953 -13.571   7.229  1.00  0.00    -0.333 N 
HETATM   16  H   UNL     1      45.818 -13.656   6.697  1.00  0.00     0.168 HD
BRANCH  15  17
HETATM   17  C   UNL     1      45.010 -12.686   8.326  1.00  0.00     0.035 A 
HETATM   18  C   UNL     1      43.952 -12.461   9.207  1.00  0.00     0.047 A 
HETATM   19  C   UNL     1      44.072 -11.547  10.267  1.00  0.00     0.041 A 
HETATM   20  C   UNL     1      45.258 -10.828  10.428  1.00  0.00     0.018 A 
HETATM   21  C   UNL     1      46.309 -11.020   9.533  1.00  0.00     0.003 A 
HETATM   22  C   UNL     1      46.183 -11.940   8.487  1.00  0.00     0.029 A 
BRANCH  19  23
HETATM   23  C   UNL     1      42.905 -11.395  11.178  1.00  0.00     0.293 C 
HETATM   24  O   UNL     1      41.778 -11.141  10.775  1.00  0.00    -0.259 OA
BRANCH  23  25
HETATM   25  O   UNL     1      43.272 -11.579  12.467  1.00  0.00    -0.323 OA
HETATM   26  C   UNL     1      42.876 -10.528  13.349  1.00  0.00     0.213 C 
ENDBRANCH  23  25
ENDBRANCH  19  23
ENDBRANCH  15  17
ENDBRANCH  13  15
ENDBRANCH  11  13
ENDBRANCH  10  11
ENDBRANCH   4  10
BRANCH   1  27
HETATM   27  C   UNL     1      41.185 -15.350   2.327  1.00  0.00     0.038 C 
HETATM   28  N   UNL     1      41.512 -15.889   1.102  1.00  0.00    -0.277 N 
HETATM   29  C   UNL     1      41.121 -15.527  -0.240  1.00  0.00     0.179 C 
HETATM   30  N   UNL     1      42.348 -16.934   1.194  1.00  0.00    -0.172 NA
HETATM   31  C   UNL     1      42.431 -17.222   2.495  1.00  0.00     0.089 C 
HETATM   32  C   UNL     1      41.716 -16.257   3.238  1.00  0.00     0.061 C 
BRANCH  31  33
HETATM   33  C   UNL     1      43.208 -18.357   2.988  1.00  0.00    -0.003 A 
HETATM   34  C   UNL     1      43.581 -18.422   4.339  1.00  0.00     0.053 A 
HETATM   35  C   UNL     1      44.305 -19.513   4.834  1.00  0.00     0.102 A 
HETATM   36  C   UNL     1      44.680 -20.553   3.959  1.00  0.00     0.101 A 
HETATM   37  C   UNL     1      44.317 -20.485   2.611  1.00  0.00     0.040 A 
HETATM   38  C   UNL     1      43.584 -19.396   2.129  1.00  0.00     0.017 A 
BRANCH  35  39
HETATM   39  O   UNL     1      44.691 -19.659   6.143  1.00  0.00    -0.353 OA
HETATM   40  C   UNL     1      43.672 -19.862   7.113  1.00  0.00     0.210 C 
ENDBRANCH  35  39
BRANCH  36  41
HETATM   41  O   UNL     1      45.385 -21.588   4.520  1.00  0.00    -0.353 OA
HETATM   42  C   UNL     1      44.723 -22.836   4.666  1.00  0.00     0.210 C 
ENDBRANCH  36  41
ENDBRANCH  31  33
ENDBRANCH   1  27
TORSDOF 11
ENDMDL
MODEL 4
REMARK VINA RESULT:      -8.4      2.793      4.081
REMARK  11 active torsions:
REMARK  status: ('A' for Active; 'I' for Inactive)
REMARK    1  A    between atoms: C_4  and  C_5 
REMARK    2  A    between atoms: C_7  and  O_8 
REMARK    3  A    between atoms: C_10  and  O_11 
REMARK    4  A    between atoms: C_16  and  C_17 
REMARK    5  A    between atoms: C_20  and  C_21 
REMARK    6  A    between atoms: C_21  and  N_22 
REMARK    7  A    between atoms: N_22  and  C_23 
REMARK    8  A    between atoms: C_23  and  N_24 
REMARK    9  A    between atoms: N_24  and  C_25 
REMARK   10  A    between atoms: C_27  and  C_28 
REMARK   11  A    between atoms: C_28  and  O_29 
ROOT
HETATM    1  C   UNL     1      40.511 -13.495   3.978  1.00  0.00     0.067 C 
HETATM    2  C   UNL     1      40.819 -12.129   3.335  1.00  0.00     0.001 C 
HETATM    3  C   UNL     1      41.334 -11.105   4.368  1.00  0.00     0.040 C 
HETATM    4  C   UNL     1      40.294 -10.812   5.461  1.00  0.00     0.206 C 
HETATM    5  N   UNL     1      39.172 -11.834   5.285  1.00  0.00    -0.065 N 
HETATM    6  H   UNL     1      38.502 -11.740   6.061  1.00  0.00     0.280 HD
HETATM    7  C   UNL     1      39.698 -13.272   5.273  1.00  0.00     0.246 C 
HETATM    8  C   UNL     1      39.462 -11.568   2.834  1.00  0.00     0.033 C 
HETATM    9  C   UNL     1      38.436 -11.545   3.979  1.00  0.00     0.236 C 
ENDROOT
BRANCH   4  10
HETATM   10  C   UNL     1      40.877 -10.815   6.893  1.00  0.00     0.155 C 
BRANCH  10  11
HETATM   11  N   UNL     1      39.879 -11.152   7.907  1.00  0.00    -0.365 N 
HETATM   12  H   UNL     1      39.543 -12.112   7.923  1.00  0.00     0.161 HD
BRANCH  11  13
HETATM   13  C   UNL     1      39.731 -10.537   9.121  1.00  0.00     0.172 C 
HETATM   14  S   UNL     1      38.875  -9.128   9.385  1.00  0.00    -0.041 SA
BRANCH  13  15
HETATM   15  N   UNL     1      40.357 -11.110  10.192  1.00  0.00    -0.333 N 
HETATM   16  H   UNL     1      39.826 -11.887  10.581  1.00  0.00     0.168 HD
BRANCH  15  17
HETATM   17  C   UNL     1      41.639 -10.922  10.752  1.00  0.00     0.035 A 
HETATM   18  C   UNL     1      42.833 -11.149  10.067  1.00  0.00     0.047 A 
HETATM   19  C   UNL     1      44.076 -10.963  10.696  1.00  0.00     0.041 A 
HETATM   20  C   UNL     1      44.122 -10.572  12.036  1.00  0.00     0.018 A 
HETATM   21  C   UNL     1      42.933 -10.376  12.738  1.00  0.00     0.003 A 
HETATM   22  C   UNL     1      41.701 -10.554  12.100  1.00  0.00     0.029 A 
BRANCH  19  23
HETATM   23  C   UNL     1      45.300 -11.194   9.880  1.00  0.00     0.293 C 
HETATM   24  O   UNL     1      45.992 -10.282   9.450  1.00  0.00    -0.259 OA
BRANCH  23  25
HETATM   25  O   UNL     1      45.516 -12.517   9.699  1.00  0.00    -0.323 OA
HETATM   26  C   UNL     1      45.625 -12.916   8.332  1.00  0.00     0.213 C 
ENDBRANCH  23  25
ENDBRANCH  19  23
ENDBRANCH  15  17
ENDBRANCH  13  15
ENDBRANCH  11  13
ENDBRANCH  10  11
ENDBRANCH   4  10
BRANCH   1  27
HETATM   27  C   UNL     1      41.582 -14.538   4.158  1.00  0.00     0.038 C 
HETATM   28  N   UNL     1      42.651 -14.613   5.024  1.00  0.00    -0.277 N 
HETATM   29  C   UNL     1      43.218 -13.647   5.934  1.00  0.00     0.179 C 
HETATM   30  N   UNL     1      43.259 -15.809   5.005  1.00  0.00    -0.172 NA
HETATM   31  C   UNL     1      42.718 -16.478   3.984  1.00  0.00     0.089 C 
HETATM   32  C   UNL     1      41.668 -15.716   3.425  1.00  0.00     0.061 C 
BRANCH  31  33
HETATM   33  C   UNL     1      43.177 -17.812   3.602  1.00  0.00    -0.003 A 
HETATM   34  C   UNL     1      43.937 -18.578   4.499  1.00  0.00     0.053 A 
HETATM   35  C   UNL     1      44.364 -19.868   4.159  1.00  0.00     0.102 A 
HETATM   36  C   UNL     1      44.043 -20.395   2.893  1.00  0.00     0.101 A 
HETATM   37  C   UNL     1      43.294 -19.629   1.995  1.00  0.00     0.040 A 
HETATM   38  C   UNL     1      42.862 -18.347   2.349  1.00  0.00     0.017 A 
BRANCH  35  39
HETATM   39  O   UNL     1      45.094 -20.686   4.986  1.00  0.00    -0.353 OA
HETATM   40  C   UNL     1      44.387 -21.433   5.967  1.00  0.00     0.210 C 
ENDBRANCH  35  39
BRANCH  36  41
HETATM   41  O   UNL     1      44.496 -21.665   2.636  1.00  0.00    -0.353 OA
HETATM   42  C   UNL     1      44.246 -22.209   1.348  1.00  0.00     0.210 C 
ENDBRANCH  36  41
ENDBRANCH  31  33
ENDBRANCH   1  27
TORSDOF 11
ENDMDL
MODEL 5
REMARK VINA RESULT:      -8.3      4.194      7.072
REMARK  11 active torsions:
REMARK  status: ('A' for Active; 'I' for Inactive)
REMARK    1  A    between atoms: C_4  and  C_5 
REMARK    2  A    between atoms: C_7  and  O_8 
REMARK    3  A    between atoms: C_10  and  O_11 
REMARK    4  A    between atoms: C_16  and  C_17 
REMARK    5  A    between atoms: C_20  and  C_21 
REMARK    6  A    between atoms: C_21  and  N_22 
REMARK    7  A    between atoms: N_22  and  C_23 
REMARK    8  A    between atoms: C_23  and  N_24 
REMARK    9  A    between atoms: N_24  and  C_25 
REMARK   10  A    between atoms: C_27  and  C_28 
REMARK   11  A    between atoms: C_28  and  O_29 
ROOT
HETATM    1  C   UNL     1      39.260 -14.079   2.468  1.00  0.00     0.067 C 
HETATM    2  C   UNL     1      38.915 -14.489   1.023  1.00  0.00     0.001 C 
HETATM    3  C   UNL     1      39.958 -13.977   0.009  1.00  0.00     0.040 C 
HETATM    4  C   UNL     1      40.038 -12.442  -0.015  1.00  0.00     0.206 C 
HETATM    5  N   UNL     1      39.211 -11.941   1.168  1.00  0.00    -0.065 N 
HETATM    6  H   UNL     1      39.321 -10.921   1.252  1.00  0.00     0.280 HD
HETATM    7  C   UNL     1      39.645 -12.583   2.489  1.00  0.00     0.246 C 
HETATM    8  C   UNL     1      37.594 -13.756   0.667  1.00  0.00     0.033 C 
HETATM    9  C   UNL     1      37.738 -12.245   0.910  1.00  0.00     0.236 C 
ENDROOT
BRANCH   4  10
HETATM   10  C   UNL     1      41.483 -11.893  -0.000  1.00  0.00     0.155 C 
BRANCH  10  11
HETATM   11  N   UNL     1      42.325 -12.496  -1.033  1.00  0.00    -0.365 N 
HETATM   12  H   UNL     1      42.657 -13.442  -0.865  1.00  0.00     0.161 HD
BRANCH  11  13
HETATM   13  C   UNL     1      42.297 -12.192  -2.368  1.00  0.00     0.172 C 
HETATM   14  S   UNL     1      42.543 -10.671  -3.012  1.00  0.00    -0.041 SA
BRANCH  13  15
HETATM   15  N   UNL     1      42.019 -13.211  -3.234  1.00  0.00    -0.333 N 
HETATM   16  H   UNL     1      42.826 -13.472  -3.797  1.00  0.00     0.168 HD
BRANCH  15  17
HETATM   17  C   UNL     1      40.890 -14.044  -3.386  1.00  0.00     0.035 A 
HETATM   18  C   UNL     1      39.587 -13.575  -3.555  1.00  0.00     0.047 A 
HETATM   19  C   UNL     1      38.506 -14.464  -3.679  1.00  0.00     0.041 A 
HETATM   20  C   UNL     1      38.731 -15.840  -3.603  1.00  0.00     0.018 A 
HETATM   21  C   UNL     1      40.025 -16.318  -3.400  1.00  0.00     0.003 A 
HETATM   22  C   UNL     1      41.095 -15.424  -3.289  1.00  0.00     0.029 A 
BRANCH  19  23
HETATM   23  C   UNL     1      37.155 -13.877  -3.891  1.00  0.00     0.293 C 
HETATM   24  O   UNL     1      36.840 -12.771  -3.472  1.00  0.00    -0.259 OA
BRANCH  23  25
HETATM   25  O   UNL     1      36.366 -14.722  -4.593  1.00  0.00    -0.323 OA
HETATM   26  C   UNL     1      35.153 -14.137  -5.072  1.00  0.00     0.213 C 
ENDBRANCH  23  25
ENDBRANCH  19  23
ENDBRANCH  15  17
ENDBRANCH  13  15
ENDBRANCH  11  13
ENDBRANCH  10  11
ENDBRANCH   4  10
BRANCH   1  27
HETATM   27  C   UNL     1      40.180 -14.910   3.322  1.00  0.00     0.038 C 
HETATM   28  N   UNL     1      40.410 -14.918   4.680  1.00  0.00    -0.277 N 
HETATM   29  C   UNL     1      39.983 -14.026   5.731  1.00  0.00     0.179 C 
HETATM   30  N   UNL     1      41.165 -15.954   5.078  1.00  0.00    -0.172 NA
HETATM   31  C   UNL     1      41.606 -16.536   3.960  1.00  0.00     0.089 C 
HETATM   32  C   UNL     1      41.017 -15.910   2.839  1.00  0.00     0.061 C 
BRANCH  31  33
HETATM   33  C   UNL     1      42.523 -17.673   3.989  1.00  0.00    -0.003 A 
HETATM   34  C   UNL     1      42.870 -18.267   5.212  1.00  0.00     0.053 A 
HETATM   35  C   UNL     1      43.729 -19.372   5.257  1.00  0.00     0.102 A 
HETATM   36  C   UNL     1      44.267 -19.883   4.059  1.00  0.00     0.101 A 
HETATM   37  C   UNL     1      43.929 -19.286   2.841  1.00  0.00     0.040 A 
HETATM   38  C   UNL     1      43.061 -18.190   2.806  1.00  0.00     0.017 A 
BRANCH  35  39
HETATM   39  O   UNL     1      44.100 -20.020   6.409  1.00  0.00    -0.353 OA
HETATM   40  C   UNL     1      43.875 -19.353   7.644  1.00  0.00     0.210 C 
ENDBRANCH  35  39
BRANCH  36  41
HETATM   41  O   UNL     1      45.097 -20.968   4.185  1.00  0.00    -0.353 OA
HETATM   42  C   UNL     1      44.634 -22.217   3.691  1.00  0.00     0.210 C 
ENDBRANCH  36  41
ENDBRANCH  31  33
ENDBRANCH   1  27
TORSDOF 11
ENDMDL
MODEL 6
REMARK VINA RESULT:      -8.3      3.094      5.959
REMARK  11 active torsions:
REMARK  status: ('A' for Active; 'I' for Inactive)
REMARK    1  A    between atoms: C_4  and  C_5 
REMARK    2  A    between atoms: C_7  and  O_8 
REMARK    3  A    between atoms: C_10  and  O_11 
REMARK    4  A    between atoms: C_16  and  C_17 
REMARK    5  A    between atoms: C_20  and  C_21 
REMARK    6  A    between atoms: C_21  and  N_22 
REMARK    7  A    between atoms: N_22  and  C_23 
REMARK    8  A    between atoms: C_23  and  N_24 
REMARK    9  A    between atoms: N_24  and  C_25 
REMARK   10  A    between atoms: C_27  and  C_28 
REMARK   11  A    between atoms: C_28  and  O_29 
ROOT
HETATM    1  C   UNL     1      41.843 -13.128   5.759  1.00  0.00     0.067 C 
HETATM    2  C   UNL     1      40.361 -13.263   6.160  1.00  0.00     0.001 C 
HETATM    3  C   UNL     1      39.469 -13.651   4.963  1.00  0.00     0.040 C 
HETATM    4  C   UNL     1      39.492 -12.587   3.855  1.00  0.00     0.206 C 
HETATM    5  N   UNL     1      40.599 -11.599   4.217  1.00  0.00    -0.065 N 
HETATM    6  H   UNL     1      40.719 -10.926   3.448  1.00  0.00     0.280 HD
HETATM    7  C   UNL     1      41.940 -12.298   4.459  1.00  0.00     0.246 C 
HETATM    8  C   UNL     1      39.894 -11.845   6.584  1.00  0.00     0.033 C 
HETATM    9  C   UNL     1      40.188 -10.829   5.469  1.00  0.00     0.236 C 
ENDROOT
BRANCH   4  10
HETATM   10  C   UNL     1      39.664 -13.172   2.433  1.00  0.00     0.155 C 
BRANCH  10  11
HETATM   11  N   UNL     1      39.895 -14.616   2.442  1.00  0.00    -0.365 N 
HETATM   12  H   UNL     1      39.455 -15.150   3.187  1.00  0.00     0.161 HD
BRANCH  11  13
HETATM   13  C   UNL     1      40.164 -15.391   1.346  1.00  0.00     0.172 C 
HETATM   14  S   UNL     1      40.872 -16.903   1.389  1.00  0.00    -0.041 SA
BRANCH  13  15
HETATM   15  N   UNL     1      39.852 -14.871   0.122  1.00  0.00    -0.333 N 
HETATM   16  H   UNL     1      38.850 -14.734   0.004  1.00  0.00     0.168 HD
BRANCH  15  17
HETATM   17  C   UNL     1      40.652 -14.365  -0.925  1.00  0.00     0.035 A 
HETATM   18  C   UNL     1      41.345 -13.155  -0.866  1.00  0.00     0.047 A 
HETATM   19  C   UNL     1      42.106 -12.702  -1.957  1.00  0.00     0.041 A 
HETATM   20  C   UNL     1      42.150 -13.457  -3.131  1.00  0.00     0.018 A 
HETATM   21  C   UNL     1      41.434 -14.650  -3.210  1.00  0.00     0.003 A 
HETATM   22  C   UNL     1      40.688 -15.098  -2.115  1.00  0.00     0.029 A 
BRANCH  19  23
HETATM   23  C   UNL     1      42.840 -11.417  -1.794  1.00  0.00     0.293 C 
HETATM   24  O   UNL     1      43.629 -11.215  -0.882  1.00  0.00    -0.259 OA
BRANCH  23  25
HETATM   25  O   UNL     1      42.513 -10.547  -2.777  1.00  0.00    -0.323 OA
HETATM   26  C   UNL     1      42.176  -9.237  -2.316  1.00  0.00     0.213 C 
ENDBRANCH  23  25
ENDBRANCH  19  23
ENDBRANCH  15  17
ENDBRANCH  13  15
ENDBRANCH  11  13
ENDBRANCH  10  11
ENDBRANCH   4  10
BRANCH   1  27
HETATM   27  C   UNL     1      42.763 -14.318   5.737  1.00  0.00     0.038 C 
HETATM   28  N   UNL     1      43.852 -14.650   6.514  1.00  0.00    -0.277 N 
HETATM   29  C   UNL     1      44.592 -13.898   7.498  1.00  0.00     0.179 C 
HETATM   30  N   UNL     1      44.282 -15.904   6.305  1.00  0.00    -0.172 NA
HETATM   31  C   UNL     1      43.604 -16.352   5.247  1.00  0.00     0.089 C 
HETATM   32  C   UNL     1      42.646 -15.390   4.858  1.00  0.00     0.061 C 
BRANCH  31  33
HETATM   33  C   UNL     1      43.851 -17.673   4.672  1.00  0.00    -0.003 A 
HETATM   34  C   UNL     1      44.101 -18.770   5.510  1.00  0.00     0.053 A 
HETATM   35  C   UNL     1      44.317 -20.047   4.978  1.00  0.00     0.102 A 
HETATM   36  C   UNL     1      44.300 -20.230   3.581  1.00  0.00     0.101 A 
HETATM   37  C   UNL     1      44.060 -19.136   2.745  1.00  0.00     0.040 A 
HETATM   38  C   UNL     1      43.835 -17.866   3.287  1.00  0.00     0.017 A 
BRANCH  35  39
HETATM   39  O   UNL     1      44.549 -21.172   5.730  1.00  0.00    -0.353 OA
HETATM   40  C   UNL     1      43.769 -21.355   6.904  1.00  0.00     0.210 C 
ENDBRANCH  35  39
BRANCH  36  41
HETATM   41  O   UNL     1      44.517 -21.510   3.137  1.00  0.00    -0.353 OA
HETATM   42  C   UNL     1      44.199 -21.805   1.785  1.00  0.00     0.210 C 
ENDBRANCH  36  41
ENDBRANCH  31  33
ENDBRANCH   1  27
TORSDOF 11
ENDMDL
MODEL 7
REMARK VINA RESULT:      -8.1      3.041      4.115
REMARK  11 active torsions:
REMARK  status: ('A' for Active; 'I' for Inactive)
REMARK    1  A    between atoms: C_4  and  C_5 
REMARK    2  A    between atoms: C_7  and  O_8 
REMARK    3  A    between atoms: C_10  and  O_11 
REMARK    4  A    between atoms: C_16  and  C_17 
REMARK    5  A    between atoms: C_20  and  C_21 
REMARK    6  A    between atoms: C_21  and  N_22 
REMARK    7  A    between atoms: N_22  and  C_23 
REMARK    8  A    between atoms: C_23  and  N_24 
REMARK    9  A    between atoms: N_24  and  C_25 
REMARK   10  A    between atoms: C_27  and  C_28 
REMARK   11  A    between atoms: C_28  and  O_29 
ROOT
HETATM    1  C   UNL     1      40.465 -13.897   2.124  1.00  0.00     0.067 C 
HETATM    2  C   UNL     1      41.193 -12.539   2.109  1.00  0.00     0.001 C 
HETATM    3  C   UNL     1      41.847 -12.215   3.468  1.00  0.00     0.040 C 
HETATM    4  C   UNL     1      40.811 -12.105   4.597  1.00  0.00     0.206 C 
HETATM    5  N   UNL     1      39.483 -12.599   4.026  1.00  0.00    -0.065 N 
HETATM    6  H   UNL     1      38.783 -12.640   4.779  1.00  0.00     0.280 HD
HETATM    7  C   UNL     1      39.606 -13.994   3.405  1.00  0.00     0.246 C 
HETATM    8  C   UNL     1      40.096 -11.460   1.908  1.00  0.00     0.033 C 
HETATM    9  C   UNL     1      38.996 -11.609   2.971  1.00  0.00     0.236 C 
ENDROOT
BRANCH   4  10
HETATM   10  C   UNL     1      41.214 -12.855   5.888  1.00  0.00     0.155 C 
BRANCH  10  11
HETATM   11  N   UNL     1      40.678 -12.227   7.096  1.00  0.00    -0.365 N 
HETATM   12  H   UNL     1      40.443 -12.842   7.870  1.00  0.00     0.161 HD
BRANCH  11  13
HETATM   13  C   UNL     1      40.931 -10.949   7.515  1.00  0.00     0.172 C 
HETATM   14  S   UNL     1      39.840  -9.686   7.460  1.00  0.00    -0.041 SA
BRANCH  13  15
HETATM   15  N   UNL     1      42.185 -10.685   7.988  1.00  0.00    -0.333 N 
HETATM   16  H   UNL     1      42.761 -10.196   7.305  1.00  0.00     0.168 HD
BRANCH  15  17
HETATM   17  C   UNL     1      42.767 -10.829   9.266  1.00  0.00     0.035 A 
HETATM   18  C   UNL     1      42.040 -10.865  10.457  1.00  0.00     0.047 A 
HETATM   19  C   UNL     1      42.688 -10.989  11.698  1.00  0.00     0.041 A 
HETATM   20  C   UNL     1      44.082 -11.050  11.747  1.00  0.00     0.018 A 
HETATM   21  C   UNL     1      44.818 -10.981  10.564  1.00  0.00     0.003 A 
HETATM   22  C   UNL     1      44.163 -10.867   9.334  1.00  0.00     0.029 A 
BRANCH  19  23
HETATM   23  C   UNL     1      41.833 -11.053  12.915  1.00  0.00     0.293 C 
HETATM   24  O   UNL     1      40.689 -11.485  12.899  1.00  0.00    -0.259 OA
BRANCH  23  25
HETATM   25  O   UNL     1      42.496 -10.582  13.995  1.00  0.00    -0.323 OA
HETATM   26  C   UNL     1      41.665  -9.937  14.962  1.00  0.00     0.213 C 
ENDBRANCH  23  25
ENDBRANCH  19  23
ENDBRANCH  15  17
ENDBRANCH  13  15
ENDBRANCH  11  13
ENDBRANCH  10  11
ENDBRANCH   4  10
BRANCH   1  27
HETATM   27  C   UNL     1      41.194 -15.182   1.837  1.00  0.00     0.038 C 
HETATM   28  N   UNL     1      41.580 -15.771   0.652  1.00  0.00    -0.277 N 
HETATM   29  C   UNL     1      41.274 -15.453  -0.722  1.00  0.00     0.179 C 
HETATM   30  N   UNL     1      42.392 -16.825   0.831  1.00  0.00    -0.172 NA
HETATM   31  C   UNL     1      42.396 -17.065   2.144  1.00  0.00     0.089 C 
HETATM   32  C   UNL     1      41.655 -16.063   2.809  1.00  0.00     0.061 C 
BRANCH  31  33
HETATM   33  C   UNL     1      43.124 -18.193   2.722  1.00  0.00    -0.003 A 
HETATM   34  C   UNL     1      43.562 -18.140   4.054  1.00  0.00     0.053 A 
HETATM   35  C   UNL     1      44.240 -19.221   4.631  1.00  0.00     0.102 A 
HETATM   36  C   UNL     1      44.502 -20.369   3.859  1.00  0.00     0.101 A 
HETATM   37  C   UNL     1      44.075 -20.419   2.529  1.00  0.00     0.040 A 
HETATM   38  C   UNL     1      43.388 -19.339   1.965  1.00  0.00     0.017 A 
BRANCH  35  39
HETATM   39  O   UNL     1      44.682 -19.253   5.931  1.00  0.00    -0.353 OA
HETATM   40  C   UNL     1      45.219 -18.056   6.476  1.00  0.00     0.210 C 
ENDBRANCH  35  39
BRANCH  36  41
HETATM   41  O   UNL     1      45.168 -21.385   4.496  1.00  0.00    -0.353 OA
HETATM   42  C   UNL     1      44.761 -22.718   4.221  1.00  0.00     0.210 C 
ENDBRANCH  36  41
ENDBRANCH  31  33
ENDBRANCH   1  27
TORSDOF 11
ENDMDL
MODEL 8
REMARK VINA RESULT:      -8.1      1.839      2.693
REMARK  11 active torsions:
REMARK  status: ('A' for Active; 'I' for Inactive)
REMARK    1  A    between atoms: C_4  and  C_5 
REMARK    2  A    between atoms: C_7  and  O_8 
REMARK    3  A    between atoms: C_10  and  O_11 
REMARK    4  A    between atoms: C_16  and  C_17 
REMARK    5  A    between atoms: C_20  and  C_21 
REMARK    6  A    between atoms: C_21  and  N_22 
REMARK    7  A    between atoms: N_22  and  C_23 
REMARK    8  A    between atoms: C_23  and  N_24 
REMARK    9  A    between atoms: N_24  and  C_25 
REMARK   10  A    between atoms: C_27  and  C_28 
REMARK   11  A    between atoms: C_28  and  O_29 
ROOT
HETATM    1  C   UNL     1      41.149 -14.611  -0.612  1.00  0.00     0.067 C 
HETATM    2  C   UNL     1      42.128 -13.460  -0.911  1.00  0.00     0.001 C 
HETATM    3  C   UNL     1      41.638 -12.117  -0.331  1.00  0.00     0.040 C 
HETATM    4  C   UNL     1      40.299 -11.676  -0.942  1.00  0.00     0.206 C 
HETATM    5  N   UNL     1      39.777 -12.859  -1.756  1.00  0.00    -0.065 N 
HETATM    6  H   UNL     1      38.830 -12.644  -2.099  1.00  0.00     0.280 HD
HETATM    7  C   UNL     1      39.710 -14.145  -0.929  1.00  0.00     0.246 C 
HETATM    8  C   UNL     1      42.123 -13.274  -2.452  1.00  0.00     0.033 C 
HETATM    9  C   UNL     1      40.688 -13.072  -2.962  1.00  0.00     0.236 C 
ENDROOT
BRANCH   4  10
HETATM   10  C   UNL     1      39.272 -11.180   0.102  1.00  0.00     0.155 C 
BRANCH  10  11
HETATM   11  N   UNL     1      39.775 -11.266   1.473  1.00  0.00    -0.365 N 
HETATM   12  H   UNL     1      40.782 -11.334   1.592  1.00  0.00     0.161 HD
BRANCH  11  13
HETATM   13  C   UNL     1      39.161 -10.756   2.585  1.00  0.00     0.172 C 
HETATM   14  S   UNL     1      37.756  -9.853   2.578  1.00  0.00    -0.041 SA
BRANCH  13  15
HETATM   15  N   UNL     1      39.763 -10.983   3.790  1.00  0.00    -0.333 N 
HETATM   16  H   UNL     1      39.689 -10.184   4.417  1.00  0.00     0.168 HD
BRANCH  15  17
HETATM   17  C   UNL     1      40.326 -12.143   4.365  1.00  0.00     0.035 A 
HETATM   18  C   UNL     1      41.656 -12.531   4.201  1.00  0.00     0.047 A 
HETATM   19  C   UNL     1      42.145 -13.712   4.785  1.00  0.00     0.041 A 
HETATM   20  C   UNL     1      41.282 -14.527   5.520  1.00  0.00     0.018 A 
HETATM   21  C   UNL     1      39.943 -14.165   5.661  1.00  0.00     0.003 A 
HETATM   22  C   UNL     1      39.469 -12.982   5.084  1.00  0.00     0.029 A 
BRANCH  19  23
HETATM   23  C   UNL     1      43.585 -14.031   4.587  1.00  0.00     0.293 C 
HETATM   24  O   UNL     1      44.220 -13.651   3.613  1.00  0.00    -0.259 OA
BRANCH  23  25
HETATM   25  O   UNL     1      44.060 -14.774   5.613  1.00  0.00    -0.323 OA
HETATM   26  C   UNL     1      44.754 -14.025   6.613  1.00  0.00     0.213 C 
ENDBRANCH  23  25
ENDBRANCH  19  23
ENDBRANCH  15  17
ENDBRANCH  13  15
ENDBRANCH  11  13
ENDBRANCH  10  11
ENDBRANCH   4  10
BRANCH   1  27
HETATM   27  C   UNL     1      41.219 -15.388   0.675  1.00  0.00     0.038 C 
HETATM   28  N   UNL     1      40.322 -15.524   1.713  1.00  0.00    -0.277 N 
HETATM   29  C   UNL     1      39.087 -14.840   2.009  1.00  0.00     0.179 C 
HETATM   30  N   UNL     1      40.679 -16.474   2.593  1.00  0.00    -0.172 NA
HETATM   31  C   UNL     1      41.915 -16.843   2.251  1.00  0.00     0.089 C 
HETATM   32  C   UNL     1      42.292 -16.185   1.060  1.00  0.00     0.061 C 
BRANCH  31  33
HETATM   33  C   UNL     1      42.672 -17.823   3.027  1.00  0.00    -0.003 A 
HETATM   34  C   UNL     1      42.640 -17.788   4.430  1.00  0.00     0.053 A 
HETATM   35  C   UNL     1      43.340 -18.733   5.189  1.00  0.00     0.102 A 
HETATM   36  C   UNL     1      44.103 -19.722   4.537  1.00  0.00     0.101 A 
HETATM   37  C   UNL     1      44.143 -19.752   3.140  1.00  0.00     0.040 A 
HETATM   38  C   UNL     1      43.431 -18.810   2.390  1.00  0.00     0.017 A 
BRANCH  35  39
HETATM   39  O   UNL     1      43.343 -18.777   6.561  1.00  0.00    -0.353 OA
HETATM   40  C   UNL     1      42.846 -17.643   7.260  1.00  0.00     0.210 C 
ENDBRANCH  35  39
BRANCH  36  41
HETATM   41  O   UNL     1      44.758 -20.612   5.349  1.00  0.00    -0.353 OA
HETATM   42  C   UNL     1      44.945 -21.934   4.866  1.00  0.00     0.210 C 
ENDBRANCH  36  41
ENDBRANCH  31  33
ENDBRANCH   1  27
TORSDOF 11
ENDMDL
MODEL 9
REMARK VINA RESULT:      -8.0      4.508      9.063
REMARK  11 active torsions:
REMARK  status: ('A' for Active; 'I' for Inactive)
REMARK    1  A    between atoms: C_4  and  C_5 
REMARK    2  A    between atoms: C_7  and  O_8 
REMARK    3  A    between atoms: C_10  and  O_11 
REMARK    4  A    between atoms: C_16  and  C_17 
REMARK    5  A    between atoms: C_20  and  C_21 
REMARK    6  A    between atoms: C_21  and  N_22 
REMARK    7  A    between atoms: N_22  and  C_23 
REMARK    8  A    between atoms: C_23  and  N_24 
REMARK    9  A    between atoms: N_24  and  C_25 
REMARK   10  A    between atoms: C_27  and  C_28 
REMARK   11  A    between atoms: C_28  and  O_29 
ROOT
HETATM    1  C   UNL     1      41.136 -10.025  11.535  1.00  0.00     0.067 C 
HETATM    2  C   UNL     1      42.387  -9.128  11.481  1.00  0.00     0.001 C 
HETATM    3  C   UNL     1      43.633  -9.899  10.998  1.00  0.00     0.040 C 
HETATM    4  C   UNL     1      44.004 -11.052  11.943  1.00  0.00     0.206 C 
HETATM    5  N   UNL     1      42.849 -11.197  12.933  1.00  0.00    -0.065 N 
HETATM    6  H   UNL     1      43.008 -12.027  13.522  1.00  0.00     0.280 HD
HETATM    7  C   UNL     1      41.501 -11.359  12.227  1.00  0.00     0.246 C 
HETATM    8  C   UNL     1      42.694  -8.720  12.947  1.00  0.00     0.033 C 
HETATM    9  C   UNL     1      42.812  -9.968  13.836  1.00  0.00     0.236 C 
ENDROOT
BRANCH   4  10
HETATM   10  C   UNL     1      44.326 -12.377  11.213  1.00  0.00     0.155 C 
BRANCH  10  11
HETATM   11  N   UNL     1      43.718 -12.451   9.885  1.00  0.00    -0.365 N 
HETATM   12  H   UNL     1      42.794 -12.043   9.777  1.00  0.00     0.161 HD
BRANCH  11  13
HETATM   13  C   UNL     1      44.395 -12.511   8.697  1.00  0.00     0.172 C 
HETATM   14  S   UNL     1      46.042 -12.306   8.518  1.00  0.00    -0.041 SA
BRANCH  13  15
HETATM   15  N   UNL     1      43.656 -12.727   7.568  1.00  0.00    -0.333 N 
HETATM   16  H   UNL     1      43.071 -11.928   7.330  1.00  0.00     0.168 HD
BRANCH  15  17
HETATM   17  C   UNL     1      43.663 -13.768   6.615  1.00  0.00     0.035 A 
HETATM   18  C   UNL     1      43.334 -13.600   5.270  1.00  0.00     0.047 A 
HETATM   19  C   UNL     1      43.341 -14.687   4.379  1.00  0.00     0.041 A 
HETATM   20  C   UNL     1      43.656 -15.964   4.851  1.00  0.00     0.018 A 
HETATM   21  C   UNL     1      43.953 -16.147   6.200  1.00  0.00     0.003 A 
HETATM   22  C   UNL     1      43.953 -15.056   7.075  1.00  0.00     0.029 A 
BRANCH  19  23
HETATM   23  C   UNL     1      43.010 -14.410   2.955  1.00  0.00     0.293 C 
HETATM   24  O   UNL     1      43.031 -13.285   2.476  1.00  0.00    -0.259 OA
BRANCH  23  25
HETATM   25  O   UNL     1      42.698 -15.553   2.302  1.00  0.00    -0.323 OA
HETATM   26  C   UNL     1      41.302 -15.730   2.055  1.00  0.00     0.213 C 
ENDBRANCH  23  25
ENDBRANCH  19  23
ENDBRANCH  15  17
ENDBRANCH  13  15
ENDBRANCH  11  13
ENDBRANCH  10  11
ENDBRANCH   4  10
BRANCH   1  27
HETATM   27  C   UNL     1      40.269 -10.238  10.324  1.00  0.00     0.038 C 
HETATM   28  N   UNL     1      38.994  -9.809  10.022  1.00  0.00    -0.277 N 
HETATM   29  C   UNL     1      37.987  -9.157  10.824  1.00  0.00     0.179 C 
HETATM   30  N   UNL     1      38.650 -10.044   8.746  1.00  0.00    -0.172 NA
HETATM   31  C   UNL     1      39.620 -10.808   8.240  1.00  0.00     0.089 C 
HETATM   32  C   UNL     1      40.650 -10.957   9.196  1.00  0.00     0.061 C 
BRANCH  31  33
HETATM   33  C   UNL     1      39.563 -11.329   6.877  1.00  0.00    -0.003 A 
HETATM   34  C   UNL     1      39.726 -12.703   6.640  1.00  0.00     0.053 A 
HETATM   35  C   UNL     1      39.650 -13.223   5.342  1.00  0.00     0.102 A 
HETATM   36  C   UNL     1      39.426 -12.353   4.257  1.00  0.00     0.101 A 
HETATM   37  C   UNL     1      39.273 -10.983   4.490  1.00  0.00     0.040 A 
HETATM   38  C   UNL     1      39.339 -10.475   5.791  1.00  0.00     0.017 A 
BRANCH  35  39
HETATM   39  O   UNL     1      39.780 -14.554   5.032  1.00  0.00    -0.353 OA
HETATM   40  C   UNL     1      40.252 -15.427   6.049  1.00  0.00     0.210 C 
ENDBRANCH  35  39
BRANCH  36  41
HETATM   41  O   UNL     1      39.363 -12.939   3.017  1.00  0.00    -0.353 OA
HETATM   42  C   UNL     1      39.722 -12.149   1.893  1.00  0.00     0.210 C 
ENDBRANCH  36  41
ENDBRANCH  31  33
ENDBRANCH   1  27
TORSDOF 11
ENDMDL
MODEL 10
REMARK VINA RESULT:      -8.0      1.848      2.907
REMARK  11 active torsions:
REMARK  status: ('A' for Active; 'I' for Inactive)
REMARK    1  A    between atoms: C_4  and  C_5 
REMARK    2  A    between atoms: C_7  and  O_8 
REMARK    3  A    between atoms: C_10  and  O_11 
REMARK    4  A    between atoms: C_16  and  C_17 
REMARK    5  A    between atoms: C_20  and  C_21 
REMARK    6  A    between atoms: C_21  and  N_22 
REMARK    7  A    between atoms: N_22  and  C_23 
REMARK    8  A    between atoms: C_23  and  N_24 
REMARK    9  A    between atoms: N_24  and  C_25 
REMARK   10  A    between atoms: C_27  and  C_28 
REMARK   11  A    between atoms: C_28  and  O_29 
ROOT
HETATM    1  C   UNL     1      38.587 -13.308  -0.273  1.00  0.00     0.067 C 
HETATM    2  C   UNL     1      38.919 -11.823  -0.513  1.00  0.00     0.001 C 
HETATM    3  C   UNL     1      39.249 -11.082   0.800  1.00  0.00     0.040 C 
HETATM    4  C   UNL     1      38.062 -11.078   1.776  1.00  0.00     0.206 C 
HETATM    5  N   UNL     1      37.017 -12.034   1.202  1.00  0.00    -0.065 N 
HETATM    6  H   UNL     1      36.248 -12.141   1.877  1.00  0.00     0.280 HD
HETATM    7  C   UNL     1      37.601 -13.419   0.911  1.00  0.00     0.246 C 
HETATM    8  C   UNL     1      37.617 -11.166  -1.044  1.00  0.00     0.033 C 
HETATM    9  C   UNL     1      36.449 -11.436  -0.082  1.00  0.00     0.236 C 
ENDROOT
BRANCH   4  10
HETATM   10  C   UNL     1      38.451 -11.432   3.230  1.00  0.00     0.155 C 
BRANCH  10  11
HETATM   11  N   UNL     1      39.275 -10.402   3.860  1.00  0.00    -0.365 N 
HETATM   12  H   UNL     1      38.856  -9.483   3.978  1.00  0.00     0.161 HD
BRANCH  11  13
HETATM   13  C   UNL     1      40.288 -10.622   4.755  1.00  0.00     0.172 C 
HETATM   14  S   UNL     1      41.256  -9.435   5.421  1.00  0.00    -0.041 SA
BRANCH  13  15
HETATM   15  N   UNL     1      40.540 -11.918   5.105  1.00  0.00    -0.333 N 
HETATM   16  H   UNL     1      39.720 -12.381   5.491  1.00  0.00     0.168 HD
BRANCH  15  17
HETATM   17  C   UNL     1      41.658 -12.755   4.902  1.00  0.00     0.035 A 
HETATM   18  C   UNL     1      42.394 -13.343   5.931  1.00  0.00     0.047 A 
HETATM   19  C   UNL     1      43.512 -14.149   5.655  1.00  0.00     0.041 A 
HETATM   20  C   UNL     1      43.912 -14.345   4.331  1.00  0.00     0.018 A 
HETATM   21  C   UNL     1      43.203 -13.734   3.298  1.00  0.00     0.003 A 
HETATM   22  C   UNL     1      42.087 -12.942   3.583  1.00  0.00     0.029 A 
BRANCH  19  23
HETATM   23  C   UNL     1      44.217 -14.763   6.812  1.00  0.00     0.293 C 
HETATM   24  O   UNL     1      44.768 -14.101   7.681  1.00  0.00    -0.259 OA
BRANCH  23  25
HETATM   25  O   UNL     1      44.152 -16.113   6.755  1.00  0.00    -0.323 OA
HETATM   26  C   UNL     1      43.517 -16.722   7.881  1.00  0.00     0.213 C 
ENDBRANCH  23  25
ENDBRANCH  19  23
ENDBRANCH  15  17
ENDBRANCH  13  15
ENDBRANCH  11  13
ENDBRANCH  10  11
ENDBRANCH   4  10
BRANCH   1  27
HETATM   27  C   UNL     1      39.667 -14.354  -0.207  1.00  0.00     0.038 C 
HETATM   28  N   UNL     1      40.488 -14.886  -1.177  1.00  0.00    -0.277 N 
HETATM   29  C   UNL     1      40.484 -14.755  -2.615  1.00  0.00     0.179 C 
HETATM   30  N   UNL     1      41.464 -15.657  -0.673  1.00  0.00    -0.172 NA
HETATM   31  C   UNL     1      41.183 -15.802   0.623  1.00  0.00     0.089 C 
HETATM   32  C   UNL     1      40.064 -15.007   0.955  1.00  0.00     0.061 C 
BRANCH  31  33
HETATM   33  C   UNL     1      41.994 -16.642   1.502  1.00  0.00    -0.003 A 
HETATM   34  C   UNL     1      41.534 -16.968   2.786  1.00  0.00     0.053 A 
HETATM   35  C   UNL     1      42.287 -17.791   3.633  1.00  0.00     0.102 A 
HETATM   36  C   UNL     1      43.533 -18.283   3.196  1.00  0.00     0.101 A 
HETATM   37  C   UNL     1      43.997 -17.951   1.919  1.00  0.00     0.040 A 
HETATM   38  C   UNL     1      43.232 -17.138   1.077  1.00  0.00     0.017 A 
BRANCH  35  39
HETATM   39  O   UNL     1      41.898 -18.170   4.893  1.00  0.00    -0.353 OA
HETATM   40  C   UNL     1      40.981 -17.331   5.583  1.00  0.00     0.210 C 
ENDBRANCH  35  39
BRANCH  36  41
HETATM   41  O   UNL     1      44.209 -19.084   4.081  1.00  0.00    -0.353 OA
HETATM   42  C   UNL     1      44.745 -20.305   3.592  1.00  0.00     0.210 C 
ENDBRANCH  36  41
ENDBRANCH  31  33
ENDBRANCH   1  27
TORSDOF 11
ENDMDL
