MODEL 1
REMARK VINA RESULT:      -9.1      0.000      0.000
REMARK  9 active torsions:
REMARK  status: ('A' for Active; 'I' for Inactive)
REMARK    1  A    between atoms: C_2  and  N_3 
REMARK    2  A    between atoms: C_2  and  C_11 
REMARK    3  A    between atoms: N_3  and  C_4 
REMARK    4  A    between atoms: N_12  and  C_13 
REMARK    5  A    between atoms: C_19  and  S_20 
REMARK    6  A    between atoms: S_20  and  C_21 
REMARK    7  A    between atoms: C_21  and  C_22 
REMARK       I    between atoms: C_22  and  N_23 
REMARK    8  A    between atoms: N_23  and  C_24 
REMARK    9  A    between atoms: C_26  and  N_27 
REMARK       I    between atoms: N_27  and  C_28 
ROOT
HETATM    1  C   UNL     1      40.276 -14.326   3.428  1.00  0.00     0.158 A 
HETATM    2  N   UNL     1      40.555 -14.155   4.785  1.00  0.00    -0.274 N 
HETATM    3  C   UNL     1      39.830 -13.025   5.128  1.00  0.00     0.196 A 
HETATM    4  N   UNL     1      39.259 -12.506   4.065  1.00  0.00    -0.122 NA
HETATM    5  N   UNL     1      39.533 -13.314   3.007  1.00  0.00    -0.131 NA
ENDROOT
BRANCH   3   6
HETATM    6  S   UNL     1      39.816 -12.250   6.681  1.00  0.00    -0.080 SA
BRANCH   6   7
HETATM    7  C   UNL     1      40.484 -10.611   6.258  1.00  0.00     0.185 C 
BRANCH   7   8
HETATM    8  C   UNL     1      41.652 -10.273   7.172  1.00  0.00     0.231 C 
HETATM    9  N   UNL     1      42.200 -11.378   7.807  1.00  0.00    -0.326 N 
HETATM   10  H   UNL     1      41.748 -12.275   7.626  1.00  0.00     0.169 HD
HETATM   11  O   UNL     1      42.017  -9.107   7.300  1.00  0.00    -0.272 OA
BRANCH   9  12
HETATM   12  C   UNL     1      43.254 -11.389   8.747  1.00  0.00     0.036 A 
HETATM   13  C   UNL     1      43.068 -10.653   9.933  1.00  0.00     0.059 A 
HETATM   14  C   UNL     1      44.065 -10.596  10.913  1.00  0.00     0.036 A 
HETATM   15  C   UNL     1      45.266 -11.277  10.682  1.00  0.00     0.029 A 
HETATM   16  C   UNL     1      45.458 -12.016   9.517  1.00  0.00     0.004 A 
HETATM   17  C   UNL     1      44.453 -12.073   8.554  1.00  0.00     0.029 A 
BRANCH  14  18
HETATM   18  N   UNL     1      43.991  -9.881  12.123  1.00  0.00    -0.327 N 
HETATM   19  C   UNL     1      43.194  -9.944  13.224  1.00  0.00     0.218 C 
HETATM   20  C   UNL     1      42.166 -11.019  13.401  1.00  0.00     0.117 C 
HETATM   21  O   UNL     1      43.360  -9.092  14.103  1.00  0.00    -0.274 OA
HETATM   22  H   UNL     1      44.677  -9.143  12.240  1.00  0.00     0.169 HD
ENDBRANCH  14  18
ENDBRANCH   9  12
ENDBRANCH   7   8
ENDBRANCH   6   7
ENDBRANCH   3   6
BRANCH   2  23
HETATM   23  C   UNL     1      41.389 -14.957   5.607  1.00  0.00     0.043 A 
HETATM   24  C   UNL     1      42.725 -14.590   5.817  1.00  0.00     0.030 A 
HETATM   25  C   UNL     1      43.549 -15.382   6.620  1.00  0.00     0.002 A 
HETATM   26  C   UNL     1      43.045 -16.535   7.217  1.00  0.00     0.000 A 
HETATM   27  C   UNL     1      41.716 -16.900   7.016  1.00  0.00     0.002 A 
HETATM   28  C   UNL     1      40.885 -16.114   6.214  1.00  0.00     0.030 A 
ENDBRANCH   2  23
BRANCH   1  29
HETATM   29  C   UNL     1      40.617 -15.535   2.581  1.00  0.00     0.150 C 
HETATM   30  C   UNL     1      40.049 -15.378   1.162  1.00  0.00     0.040 C 
BRANCH  29  31
HETATM   31  N   UNL     1      42.076 -15.710   2.478  1.00  0.00    -0.379 N 
HETATM   32  H   UNL     1      42.492 -15.015   1.859  1.00  0.00     0.160 HD
BRANCH  31  33
HETATM   33  C   UNL     1      42.699 -16.949   2.453  1.00  0.00     0.028 A 
HETATM   34  C   UNL     1      42.605 -17.777   3.583  1.00  0.00     0.030 A 
HETATM   35  C   UNL     1      43.163 -19.060   3.599  1.00  0.00     0.021 A 
HETATM   36  C   UNL     1      43.802 -19.543   2.464  1.00  0.00     0.011 A 
HETATM   37 BR   UNL     1      44.535 -21.284   2.464  1.00  0.00    -0.051 Br
HETATM   38  C   UNL     1      43.890 -18.752   1.323  1.00  0.00     0.021 A 
HETATM   39  C   UNL     1      43.339 -17.465   1.321  1.00  0.00     0.030 A 
ENDBRANCH  31  33
ENDBRANCH  29  31
ENDBRANCH   1  29
TORSDOF 9
ENDMDL
MODEL 2
REMARK VINA RESULT:      -9.1      2.149      2.909
REMARK  9 active torsions:
REMARK  status: ('A' for Active; 'I' for Inactive)
REMARK    1  A    between atoms: C_2  and  N_3 
REMARK    2  A    between atoms: C_2  and  C_11 
REMARK    3  A    between atoms: N_3  and  C_4 
REMARK    4  A    between atoms: N_12  and  C_13 
REMARK    5  A    between atoms: C_19  and  S_20 
REMARK    6  A    between atoms: S_20  and  C_21 
REMARK    7  A    between atoms: C_21  and  C_22 
REMARK       I    between atoms: C_22  and  N_23 
REMARK    8  A    between atoms: N_23  and  C_24 
REMARK    9  A    between atoms: C_26  and  N_27 
REMARK       I    between atoms: N_27  and  C_28 
ROOT
HETATM    1  C   UNL     1      41.630 -15.394   3.004  1.00  0.00     0.158 A 
HETATM    2  N   UNL     1      41.826 -14.848   4.273  1.00  0.00    -0.274 N 
HETATM    3  C   UNL     1      41.378 -13.542   4.141  1.00  0.00     0.196 A 
HETATM    4  N   UNL     1      41.047 -13.296   2.894  1.00  0.00    -0.122 NA
HETATM    5  N   UNL     1      41.200 -14.445   2.185  1.00  0.00    -0.131 NA
ENDROOT
BRANCH   3   6
HETATM    6  S   UNL     1      41.426 -12.315   5.366  1.00  0.00    -0.080 SA
BRANCH   6   7
HETATM    7  C   UNL     1      39.875 -12.650   6.257  1.00  0.00     0.185 C 
BRANCH   7   8
HETATM    8  C   UNL     1      39.547 -11.492   7.186  1.00  0.00     0.231 C 
HETATM    9  N   UNL     1      39.773 -11.772   8.526  1.00  0.00    -0.326 N 
HETATM   10  H   UNL     1      40.093 -12.716   8.744  1.00  0.00     0.169 HD
HETATM   11  O   UNL     1      39.113 -10.438   6.727  1.00  0.00    -0.272 OA
BRANCH   9  12
HETATM   12  C   UNL     1      39.522 -10.928   9.631  1.00  0.00     0.036 A 
HETATM   13  C   UNL     1      40.328 -11.104  10.772  1.00  0.00     0.059 A 
HETATM   14  C   UNL     1      40.140 -10.322  11.917  1.00  0.00     0.036 A 
HETATM   15  C   UNL     1      39.117  -9.366  11.911  1.00  0.00     0.029 A 
HETATM   16  C   UNL     1      38.319  -9.178  10.786  1.00  0.00     0.004 A 
HETATM   17  C   UNL     1      38.524  -9.956   9.648  1.00  0.00     0.029 A 
BRANCH  14  18
HETATM   18  N   UNL     1      40.874 -10.423  13.114  1.00  0.00    -0.327 N 
HETATM   19  C   UNL     1      42.170 -10.196  13.463  1.00  0.00     0.218 C 
HETATM   20  C   UNL     1      43.162  -9.614  12.503  1.00  0.00     0.117 C 
HETATM   21  O   UNL     1      42.508 -10.462  14.621  1.00  0.00    -0.274 OA
HETATM   22  H   UNL     1      40.351 -10.728  13.927  1.00  0.00     0.169 HD
ENDBRANCH  14  18
ENDBRANCH   9  12
ENDBRANCH   7   8
ENDBRANCH   6   7
ENDBRANCH   3   6
BRANCH   2  23
HETATM   23  C   UNL     1      42.362 -15.489   5.420  1.00  0.00     0.043 A 
HETATM   24  C   UNL     1      43.659 -15.180   5.853  1.00  0.00     0.030 A 
HETATM   25  C   UNL     1      44.190 -15.816   6.977  1.00  0.00     0.002 A 
HETATM   26  C   UNL     1      43.433 -16.755   7.674  1.00  0.00     0.000 A 
HETATM   27  C   UNL     1      42.141 -17.060   7.251  1.00  0.00     0.002 A 
HETATM   28  C   UNL     1      41.602 -16.430   6.127  1.00  0.00     0.030 A 
ENDBRANCH   2  23
BRANCH   1  29
HETATM   29  C   UNL     1      41.730 -16.858   2.625  1.00  0.00     0.150 C 
HETATM   30  C   UNL     1      40.985 -17.126   1.308  1.00  0.00     0.040 C 
BRANCH  29  31
HETATM   31  N   UNL     1      43.135 -17.260   2.451  1.00  0.00    -0.379 N 
HETATM   32  H   UNL     1      43.484 -17.010   1.528  1.00  0.00     0.160 HD
BRANCH  31  33
HETATM   33  C   UNL     1      43.665 -18.434   2.968  1.00  0.00     0.028 A 
HETATM   34  C   UNL     1      44.037 -18.471   4.321  1.00  0.00     0.030 A 
HETATM   35  C   UNL     1      44.523 -19.641   4.914  1.00  0.00     0.021 A 
HETATM   36  C   UNL     1      44.617 -20.804   4.160  1.00  0.00     0.011 A 
HETATM   37 BR   UNL     1      45.246 -22.397   4.958  1.00  0.00    -0.051 Br
HETATM   38  C   UNL     1      44.234 -20.801   2.823  1.00  0.00     0.021 A 
HETATM   39  C   UNL     1      43.760 -19.622   2.235  1.00  0.00     0.030 A 
ENDBRANCH  31  33
ENDBRANCH  29  31
ENDBRANCH   1  29
TORSDOF 9
ENDMDL
MODEL 3
REMARK VINA RESULT:      -8.8      4.360      9.491
REMARK  9 active torsions:
REMARK  status: ('A' for Active; 'I' for Inactive)
REMARK    1  A    between atoms: C_2  and  N_3 
REMARK    2  A    between atoms: C_2  and  C_11 
REMARK    3  A    between atoms: N_3  and  C_4 
REMARK    4  A    between atoms: N_12  and  C_13 
REMARK    5  A    between atoms: C_19  and  S_20 
REMARK    6  A    between atoms: S_20  and  C_21 
REMARK    7  A    between atoms: C_21  and  C_22 
REMARK       I    between atoms: C_22  and  N_23 
REMARK    8  A    between atoms: N_23  and  C_24 
REMARK    9  A    between atoms: C_26  and  N_27 
REMARK       I    between atoms: N_27  and  C_28 
ROOT
HETATM    1  C   UNL     1      42.603 -14.770   5.578  1.00  0.00     0.158 A 
HETATM    2  N   UNL     1      42.059 -15.168   4.356  1.00  0.00    -0.274 N 
HETATM    3  C   UNL     1      41.003 -14.291   4.166  1.00  0.00     0.196 A 
HETATM    4  N   UNL     1      40.858 -13.514   5.215  1.00  0.00    -0.122 NA
HETATM    5  N   UNL     1      41.853 -13.808   6.093  1.00  0.00    -0.131 NA
ENDROOT
BRANCH   3   6
HETATM    6  S   UNL     1      39.877 -14.314   2.846  1.00  0.00    -0.080 SA
BRANCH   6   7
HETATM    7  C   UNL     1      40.172 -12.677   2.106  1.00  0.00     0.185 C 
BRANCH   7   8
HETATM    8  C   UNL     1      40.234 -12.794   0.591  1.00  0.00     0.231 C 
HETATM    9  N   UNL     1      39.853 -14.039   0.113  1.00  0.00    -0.326 N 
HETATM   10  H   UNL     1      39.614 -14.740   0.813  1.00  0.00     0.169 HD
HETATM   11  O   UNL     1      40.608 -11.838  -0.085  1.00  0.00    -0.272 OA
BRANCH   9  12
HETATM   12  C   UNL     1      39.850 -14.474  -1.231  1.00  0.00     0.036 A 
HETATM   13  C   UNL     1      38.609 -14.497  -1.898  1.00  0.00     0.059 A 
HETATM   14  C   UNL     1      38.509 -14.928  -3.225  1.00  0.00     0.036 A 
HETATM   15  C   UNL     1      39.673 -15.354  -3.877  1.00  0.00     0.029 A 
HETATM   16  C   UNL     1      40.907 -15.327  -3.231  1.00  0.00     0.004 A 
HETATM   17  C   UNL     1      40.994 -14.886  -1.912  1.00  0.00     0.029 A 
BRANCH  14  18
HETATM   18  N   UNL     1      37.324 -15.007  -3.979  1.00  0.00    -0.327 N 
HETATM   19  C   UNL     1      36.427 -14.097  -4.449  1.00  0.00     0.218 C 
HETATM   20  C   UNL     1      36.640 -12.622  -4.303  1.00  0.00     0.117 C 
HETATM   21  O   UNL     1      35.426 -14.526  -5.033  1.00  0.00    -0.274 OA
HETATM   22  H   UNL     1      37.042 -15.940  -4.260  1.00  0.00     0.169 HD
ENDBRANCH  14  18
ENDBRANCH   9  12
ENDBRANCH   7   8
ENDBRANCH   6   7
ENDBRANCH   3   6
BRANCH   2  23
HETATM   23  C   UNL     1      42.494 -16.227   3.516  1.00  0.00     0.043 A 
HETATM   24  C   UNL     1      41.913 -17.497   3.634  1.00  0.00     0.030 A 
HETATM   25  C   UNL     1      42.345 -18.541   2.813  1.00  0.00     0.002 A 
HETATM   26  C   UNL     1      43.350 -18.323   1.873  1.00  0.00     0.000 A 
HETATM   27  C   UNL     1      43.925 -17.060   1.748  1.00  0.00     0.002 A 
HETATM   28  C   UNL     1      43.500 -16.011   2.566  1.00  0.00     0.030 A 
ENDBRANCH   2  23
BRANCH   1  29
HETATM   29  C   UNL     1      43.919 -15.229   6.173  1.00  0.00     0.150 C 
HETATM   30  C   UNL     1      44.534 -14.120   7.040  1.00  0.00     0.040 C 
BRANCH  29  31
HETATM   31  N   UNL     1      43.727 -16.421   7.016  1.00  0.00    -0.379 N 
HETATM   32  H   UNL     1      43.943 -16.226   7.992  1.00  0.00     0.160 HD
BRANCH  31  33
HETATM   33  C   UNL     1      44.038 -17.709   6.603  1.00  0.00     0.028 A 
HETATM   34  C   UNL     1      43.376 -18.791   7.205  1.00  0.00     0.030 A 
HETATM   35  C   UNL     1      43.603 -20.108   6.794  1.00  0.00     0.021 A 
HETATM   36  C   UNL     1      44.482 -20.357   5.746  1.00  0.00     0.011 A 
HETATM   37 BR   UNL     1      44.776 -22.129   5.163  1.00  0.00    -0.051 Br
HETATM   38  C   UNL     1      45.133 -19.301   5.117  1.00  0.00     0.021 A 
HETATM   39  C   UNL     1      44.908 -17.987   5.545  1.00  0.00     0.030 A 
ENDBRANCH  31  33
ENDBRANCH  29  31
ENDBRANCH   1  29
TORSDOF 9
ENDMDL
MODEL 4
REMARK VINA RESULT:      -8.8      4.407      7.508
REMARK  9 active torsions:
REMARK  status: ('A' for Active; 'I' for Inactive)
REMARK    1  A    between atoms: C_2  and  N_3 
REMARK    2  A    between atoms: C_2  and  C_11 
REMARK    3  A    between atoms: N_3  and  C_4 
REMARK    4  A    between atoms: N_12  and  C_13 
REMARK    5  A    between atoms: C_19  and  S_20 
REMARK    6  A    between atoms: S_20  and  C_21 
REMARK    7  A    between atoms: C_21  and  C_22 
REMARK       I    between atoms: C_22  and  N_23 
REMARK    8  A    between atoms: N_23  and  C_24 
REMARK    9  A    between atoms: C_26  and  N_27 
REMARK       I    between atoms: N_27  and  C_28 
ROOT
HETATM    1  C   UNL     1      40.734 -15.941   2.708  1.00  0.00     0.158 A 
HETATM    2  N   UNL     1      40.869 -15.248   3.912  1.00  0.00    -0.274 N 
HETATM    3  C   UNL     1      40.035 -14.152   3.755  1.00  0.00     0.196 A 
HETATM    4  N   UNL     1      39.534 -14.129   2.541  1.00  0.00    -0.122 NA
HETATM    5  N   UNL     1      39.965 -15.241   1.889  1.00  0.00    -0.131 NA
ENDROOT
BRANCH   3   6
HETATM    6  S   UNL     1      39.817 -12.859   4.891  1.00  0.00    -0.080 SA
BRANCH   6   7
HETATM    7  C   UNL     1      41.115 -11.701   4.355  1.00  0.00     0.185 C 
BRANCH   7   8
HETATM    8  C   UNL     1      40.963 -11.397   2.873  1.00  0.00     0.231 C 
HETATM    9  N   UNL     1      41.971 -11.938   2.088  1.00  0.00    -0.326 N 
HETATM   10  H   UNL     1      42.710 -12.438   2.581  1.00  0.00     0.169 HD
HETATM   11  O   UNL     1      40.018 -10.720   2.477  1.00  0.00    -0.272 OA
BRANCH   9  12
HETATM   12  C   UNL     1      42.139 -11.794   0.693  1.00  0.00     0.036 A 
HETATM   13  C   UNL     1      41.954 -12.943  -0.100  1.00  0.00     0.059 A 
HETATM   14  C   UNL     1      42.115 -12.896  -1.490  1.00  0.00     0.036 A 
HETATM   15  C   UNL     1      42.481 -11.679  -2.077  1.00  0.00     0.029 A 
HETATM   16  C   UNL     1      42.657 -10.534  -1.305  1.00  0.00     0.004 A 
HETATM   17  C   UNL     1      42.484 -10.592   0.077  1.00  0.00     0.029 A 
BRANCH  14  18
HETATM   18  N   UNL     1      41.971 -13.982  -2.373  1.00  0.00    -0.327 N 
HETATM   19  C   UNL     1      40.910 -14.639  -2.916  1.00  0.00     0.218 C 
HETATM   20  C   UNL     1      39.500 -14.179  -2.710  1.00  0.00     0.117 C 
HETATM   21  O   UNL     1      41.145 -15.627  -3.619  1.00  0.00    -0.274 OA
HETATM   22  H   UNL     1      42.835 -14.394  -2.707  1.00  0.00     0.169 HD
ENDBRANCH  14  18
ENDBRANCH   9  12
ENDBRANCH   7   8
ENDBRANCH   6   7
ENDBRANCH   3   6
BRANCH   2  23
HETATM   23  C   UNL     1      41.676 -15.595   5.028  1.00  0.00     0.043 A 
HETATM   24  C   UNL     1      42.940 -15.012   5.184  1.00  0.00     0.030 A 
HETATM   25  C   UNL     1      43.738 -15.359   6.277  1.00  0.00     0.002 A 
HETATM   26  C   UNL     1      43.279 -16.279   7.216  1.00  0.00     0.000 A 
HETATM   27  C   UNL     1      42.019 -16.855   7.068  1.00  0.00     0.002 A 
HETATM   28  C   UNL     1      41.215 -16.516   5.977  1.00  0.00     0.030 A 
ENDBRANCH   2  23
BRANCH   1  29
HETATM   29  C   UNL     1      41.241 -17.337   2.408  1.00  0.00     0.150 C 
HETATM   30  C   UNL     1      40.884 -17.743   0.970  1.00  0.00     0.040 C 
BRANCH  29  31
HETATM   31  N   UNL     1      42.704 -17.409   2.559  1.00  0.00    -0.379 N 
HETATM   32  H   UNL     1      43.181 -16.925   1.801  1.00  0.00     0.160 HD
BRANCH  31  33
HETATM   33  C   UNL     1      43.370 -18.529   3.037  1.00  0.00     0.028 A 
HETATM   34  C   UNL     1      43.661 -18.609   4.408  1.00  0.00     0.030 A 
HETATM   35  C   UNL     1      44.280 -19.736   4.960  1.00  0.00     0.021 A 
HETATM   36  C   UNL     1      44.591 -20.816   4.142  1.00  0.00     0.011 A 
HETATM   37 BR   UNL     1      45.401 -22.355   4.881  1.00  0.00    -0.051 Br
HETATM   38  C   UNL     1      44.293 -20.772   2.784  1.00  0.00     0.021 A 
HETATM   39  C   UNL     1      43.685 -19.634   2.240  1.00  0.00     0.030 A 
ENDBRANCH  31  33
ENDBRANCH  29  31
ENDBRANCH   1  29
TORSDOF 9
ENDMDL
MODEL 5
REMARK VINA RESULT:      -8.7      4.144      7.322
REMARK  9 active torsions:
REMARK  status: ('A' for Active; 'I' for Inactive)
REMARK    1  A    between atoms: C_2  and  N_3 
REMARK    2  A    between atoms: C_2  and  C_11 
REMARK    3  A    between atoms: N_3  and  C_4 
REMARK    4  A    between atoms: N_12  and  C_13 
REMARK    5  A    between atoms: C_19  and  S_20 
REMARK    6  A    between atoms: S_20  and  C_21 
REMARK    7  A    between atoms: C_21  and  C_22 
REMARK       I    between atoms: C_22  and  N_23 
REMARK    8  A    between atoms: N_23  and  C_24 
REMARK    9  A    between atoms: C_26  and  N_27 
REMARK       I    between atoms: N_27  and  C_28 
ROOT
HETATM    1  C   UNL     1      38.502 -11.605   3.228  1.00  0.00     0.158 A 
HETATM    2  N   UNL     1      39.314 -12.646   3.680  1.00  0.00    -0.274 N 
HETATM    3  C   UNL     1      39.382 -12.438   5.049  1.00  0.00     0.196 A 
HETATM    4  N   UNL     1      38.764 -11.325   5.374  1.00  0.00    -0.122 NA
HETATM    5  N   UNL     1      38.215 -10.806   4.245  1.00  0.00    -0.131 NA
ENDROOT
BRANCH   3   6
HETATM    6  S   UNL     1      40.310 -13.368   6.181  1.00  0.00    -0.080 SA
BRANCH   6   7
HETATM    7  C   UNL     1      41.964 -12.642   5.957  1.00  0.00     0.185 C 
BRANCH   7   8
HETATM    8  C   UNL     1      42.962 -13.724   5.578  1.00  0.00     0.231 C 
HETATM    9  N   UNL     1      42.644 -14.976   6.083  1.00  0.00    -0.326 N 
HETATM   10  H   UNL     1      41.814 -15.029   6.673  1.00  0.00     0.169 HD
HETATM   11  O   UNL     1      43.944 -13.444   4.895  1.00  0.00    -0.272 OA
BRANCH   9  12
HETATM   12  C   UNL     1      43.392 -16.168   5.950  1.00  0.00     0.036 A 
HETATM   13  C   UNL     1      43.047 -17.029   4.890  1.00  0.00     0.059 A 
HETATM   14  C   UNL     1      43.723 -18.238   4.692  1.00  0.00     0.036 A 
HETATM   15  C   UNL     1      44.747 -18.582   5.583  1.00  0.00     0.029 A 
HETATM   16  C   UNL     1      45.103 -17.734   6.628  1.00  0.00     0.004 A 
HETATM   17  C   UNL     1      44.427 -16.529   6.809  1.00  0.00     0.029 A 
BRANCH  14  18
HETATM   18  N   UNL     1      43.452 -19.178   3.680  1.00  0.00    -0.327 N 
HETATM   19  C   UNL     1      43.515 -19.164   2.321  1.00  0.00     0.218 C 
HETATM   20  C   UNL     1      44.065 -17.996   1.562  1.00  0.00     0.117 C 
HETATM   21  O   UNL     1      43.124 -20.169   1.718  1.00  0.00    -0.274 OA
HETATM   22  H   UNL     1      43.140 -20.089   3.998  1.00  0.00     0.169 HD
ENDBRANCH  14  18
ENDBRANCH   9  12
ENDBRANCH   7   8
ENDBRANCH   6   7
ENDBRANCH   3   6
BRANCH   2  23
HETATM   23  C   UNL     1      39.922 -13.670   2.908  1.00  0.00     0.043 A 
HETATM   24  C   UNL     1      39.174 -14.788   2.514  1.00  0.00     0.030 A 
HETATM   25  C   UNL     1      39.774 -15.799   1.761  1.00  0.00     0.002 A 
HETATM   26  C   UNL     1      41.114 -15.699   1.395  1.00  0.00     0.000 A 
HETATM   27  C   UNL     1      41.860 -14.586   1.778  1.00  0.00     0.002 A 
HETATM   28  C   UNL     1      41.268 -13.570   2.533  1.00  0.00     0.030 A 
ENDBRANCH   2  23
BRANCH   1  29
HETATM   29  C   UNL     1      37.900 -11.464   1.844  1.00  0.00     0.150 C 
HETATM   30  C   UNL     1      36.846 -10.346   1.826  1.00  0.00     0.040 C 
BRANCH  29  31
HETATM   31  N   UNL     1      38.937 -11.137   0.851  1.00  0.00    -0.379 N 
HETATM   32  H   UNL     1      38.852 -10.176   0.526  1.00  0.00     0.160 HD
BRANCH  31  33
HETATM   33  C   UNL     1      39.387 -12.032  -0.109  1.00  0.00     0.028 A 
HETATM   34  C   UNL     1      40.719 -11.946  -0.543  1.00  0.00     0.030 A 
HETATM   35  C   UNL     1      41.248 -12.855  -1.466  1.00  0.00     0.021 A 
HETATM   36  C   UNL     1      40.451 -13.886  -1.946  1.00  0.00     0.011 A 
HETATM   37 BR   UNL     1      41.162 -15.136  -3.171  1.00  0.00    -0.051 Br
HETATM   38  C   UNL     1      39.134 -14.008  -1.515  1.00  0.00     0.021 A 
HETATM   39  C   UNL     1      38.610 -13.086  -0.601  1.00  0.00     0.030 A 
ENDBRANCH  31  33
ENDBRANCH  29  31
ENDBRANCH   1  29
TORSDOF 9
ENDMDL
MODEL 6
REMARK VINA RESULT:      -8.6      4.234      9.065
REMARK  9 active torsions:
REMARK  status: ('A' for Active; 'I' for Inactive)
REMARK    1  A    between atoms: C_2  and  N_3 
REMARK    2  A    between atoms: C_2  and  C_11 
REMARK    3  A    between atoms: N_3  and  C_4 
REMARK    4  A    between atoms: N_12  and  C_13 
REMARK    5  A    between atoms: C_19  and  S_20 
REMARK    6  A    between atoms: S_20  and  C_21 
REMARK    7  A    between atoms: C_21  and  C_22 
REMARK       I    between atoms: C_22  and  N_23 
REMARK    8  A    between atoms: N_23  and  C_24 
REMARK    9  A    between atoms: C_26  and  N_27 
REMARK       I    between atoms: N_27  and  C_28 
ROOT
HETATM    1  C   UNL     1      42.990 -13.950   5.985  1.00  0.00     0.158 A 
HETATM    2  N   UNL     1      42.295 -14.287   4.822  1.00  0.00    -0.274 N 
HETATM    3  C   UNL     1      41.446 -13.209   4.625  1.00  0.00     0.196 A 
HETATM    4  N   UNL     1      41.542 -12.361   5.624  1.00  0.00    -0.122 NA
HETATM    5  N   UNL     1      42.503 -12.818   6.470  1.00  0.00    -0.131 NA
ENDROOT
BRANCH   3   6
HETATM    6  S   UNL     1      40.259 -13.057   3.369  1.00  0.00    -0.080 SA
BRANCH   6   7
HETATM    7  C   UNL     1      40.844 -11.559   2.516  1.00  0.00     0.185 C 
BRANCH   7   8
HETATM    8  C   UNL     1      41.450 -11.928   1.171  1.00  0.00     0.231 C 
HETATM    9  N   UNL     1      40.560 -11.820   0.112  1.00  0.00    -0.326 N 
HETATM   10  H   UNL     1      39.606 -11.548   0.347  1.00  0.00     0.169 HD
HETATM   11  O   UNL     1      42.621 -12.290   1.102  1.00  0.00    -0.272 OA
BRANCH   9  12
HETATM   12  C   UNL     1      40.803 -12.136  -1.244  1.00  0.00     0.036 A 
HETATM   13  C   UNL     1      40.245 -13.332  -1.736  1.00  0.00     0.059 A 
HETATM   14  C   UNL     1      40.446 -13.731  -3.062  1.00  0.00     0.036 A 
HETATM   15  C   UNL     1      41.231 -12.919  -3.891  1.00  0.00     0.029 A 
HETATM   16  C   UNL     1      41.780 -11.730  -3.417  1.00  0.00     0.004 A 
HETATM   17  C   UNL     1      41.564 -11.340  -2.097  1.00  0.00     0.029 A 
BRANCH  14  18
HETATM   18  N   UNL     1      39.951 -14.908  -3.653  1.00  0.00    -0.327 N 
HETATM   19  C   UNL     1      38.710 -15.376  -3.958  1.00  0.00     0.218 C 
HETATM   20  C   UNL     1      37.479 -14.542  -3.779  1.00  0.00     0.117 C 
HETATM   21  O   UNL     1      38.625 -16.519  -4.420  1.00  0.00    -0.274 OA
HETATM   22  H   UNL     1      40.650 -15.587  -3.933  1.00  0.00     0.169 HD
ENDBRANCH  14  18
ENDBRANCH   9  12
ENDBRANCH   7   8
ENDBRANCH   6   7
ENDBRANCH   3   6
BRANCH   2  23
HETATM   23  C   UNL     1      42.434 -15.461   4.037  1.00  0.00     0.043 A 
HETATM   24  C   UNL     1      43.383 -15.507   3.008  1.00  0.00     0.030 A 
HETATM   25  C   UNL     1      43.515 -16.660   2.231  1.00  0.00     0.002 A 
HETATM   26  C   UNL     1      42.707 -17.768   2.478  1.00  0.00     0.000 A 
HETATM   27  C   UNL     1      41.767 -17.728   3.505  1.00  0.00     0.002 A 
HETATM   28  C   UNL     1      41.627 -16.580   4.286  1.00  0.00     0.030 A 
ENDBRANCH   2  23
BRANCH   1  29
HETATM   29  C   UNL     1      44.210 -14.655   6.543  1.00  0.00     0.150 C 
HETATM   30  C   UNL     1      45.042 -13.692   7.405  1.00  0.00     0.040 C 
BRANCH  29  31
HETATM   31  N   UNL     1      43.818 -15.801   7.380  1.00  0.00    -0.379 N 
HETATM   32  H   UNL     1      44.053 -15.647   8.359  1.00  0.00     0.160 HD
BRANCH  31  33
HETATM   33  C   UNL     1      43.917 -17.122   6.965  1.00  0.00     0.028 A 
HETATM   34  C   UNL     1      44.793 -17.438   5.914  1.00  0.00     0.030 A 
HETATM   35  C   UNL     1      44.980 -18.757   5.489  1.00  0.00     0.021 A 
HETATM   36  C   UNL     1      44.308 -19.787   6.136  1.00  0.00     0.011 A 
HETATM   37 BR   UNL     1      44.574 -21.576   5.589  1.00  0.00    -0.051 Br
HETATM   38  C   UNL     1      43.452 -19.505   7.195  1.00  0.00     0.021 A 
HETATM   39  C   UNL     1      43.262 -18.179   7.605  1.00  0.00     0.030 A 
ENDBRANCH  31  33
ENDBRANCH  29  31
ENDBRANCH   1  29
TORSDOF 9
ENDMDL
MODEL 7
REMARK VINA RESULT:      -8.6      4.128      8.518
REMARK  9 active torsions:
REMARK  status: ('A' for Active; 'I' for Inactive)
REMARK    1  A    between atoms: C_2  and  N_3 
REMARK    2  A    between atoms: C_2  and  C_11 
REMARK    3  A    between atoms: N_3  and  C_4 
REMARK    4  A    between atoms: N_12  and  C_13 
REMARK    5  A    between atoms: C_19  and  S_20 
REMARK    6  A    between atoms: S_20  and  C_21 
REMARK    7  A    between atoms: C_21  and  C_22 
REMARK       I    between atoms: C_22  and  N_23 
REMARK    8  A    between atoms: N_23  and  C_24 
REMARK    9  A    between atoms: C_26  and  N_27 
REMARK       I    between atoms: N_27  and  C_28 
ROOT
HETATM    1  C   UNL     1      43.605 -13.490   5.546  1.00  0.00     0.158 A 
HETATM    2  N   UNL     1      42.453 -12.912   5.009  1.00  0.00    -0.274 N 
HETATM    3  C   UNL     1      42.619 -13.062   3.641  1.00  0.00     0.196 A 
HETATM    4  N   UNL     1      43.797 -13.579   3.377  1.00  0.00    -0.122 NA
HETATM    5  N   UNL     1      44.411 -13.849   4.559  1.00  0.00    -0.131 NA
ENDROOT
BRANCH   3   6
HETATM    6  S   UNL     1      41.547 -12.476   2.410  1.00  0.00    -0.080 SA
BRANCH   6   7
HETATM    7  C   UNL     1      41.805 -13.716   1.103  1.00  0.00     0.185 C 
BRANCH   7   8
HETATM    8  C   UNL     1      41.701 -15.117   1.686  1.00  0.00     0.231 C 
HETATM    9  N   UNL     1      42.911 -15.794   1.727  1.00  0.00    -0.326 N 
HETATM   10  H   UNL     1      43.717 -15.305   1.335  1.00  0.00     0.169 HD
HETATM   11  O   UNL     1      40.613 -15.551   2.056  1.00  0.00    -0.272 OA
BRANCH   9  12
HETATM   12  C   UNL     1      43.137 -17.118   2.163  1.00  0.00     0.036 A 
HETATM   13  C   UNL     1      43.040 -17.367   3.546  1.00  0.00     0.059 A 
HETATM   14  C   UNL     1      43.262 -18.646   4.068  1.00  0.00     0.036 A 
HETATM   15  C   UNL     1      43.600 -19.677   3.183  1.00  0.00     0.029 A 
HETATM   16  C   UNL     1      43.690 -19.446   1.813  1.00  0.00     0.004 A 
HETATM   17  C   UNL     1      43.457 -18.169   1.305  1.00  0.00     0.029 A 
BRANCH  14  18
HETATM   18  N   UNL     1      43.207 -19.001   5.428  1.00  0.00    -0.327 N 
HETATM   19  C   UNL     1      44.093 -18.969   6.461  1.00  0.00     0.218 C 
HETATM   20  C   UNL     1      45.455 -18.362   6.323  1.00  0.00     0.117 C 
HETATM   21  O   UNL     1      43.728 -19.439   7.545  1.00  0.00    -0.274 OA
HETATM   22  H   UNL     1      42.318 -19.365   5.753  1.00  0.00     0.169 HD
ENDBRANCH  14  18
ENDBRANCH   9  12
ENDBRANCH   7   8
ENDBRANCH   6   7
ENDBRANCH   3   6
BRANCH   2  23
HETATM   23  C   UNL     1      41.375 -12.313   5.711  1.00  0.00     0.043 A 
HETATM   24  C   UNL     1      41.373 -10.931   5.944  1.00  0.00     0.030 A 
HETATM   25  C   UNL     1      40.316 -10.342   6.641  1.00  0.00     0.002 A 
HETATM   26  C   UNL     1      39.260 -11.123   7.103  1.00  0.00     0.000 A 
HETATM   27  C   UNL     1      39.254 -12.496   6.868  1.00  0.00     0.002 A 
HETATM   28  C   UNL     1      40.307 -13.094   6.173  1.00  0.00     0.030 A 
ENDBRANCH   2  23
BRANCH   1  29
HETATM   29  C   UNL     1      43.856 -13.815   7.005  1.00  0.00     0.150 C 
HETATM   30  C   UNL     1      44.407 -15.241   7.153  1.00  0.00     0.040 C 
BRANCH  29  31
HETATM   31  N   UNL     1      44.833 -12.880   7.590  1.00  0.00    -0.379 N 
HETATM   32  H   UNL     1      45.782 -13.244   7.526  1.00  0.00     0.160 HD
BRANCH  31  33
HETATM   33  C   UNL     1      44.582 -12.121   8.724  1.00  0.00     0.028 A 
HETATM   34  C   UNL     1      43.365 -11.429   8.820  1.00  0.00     0.030 A 
HETATM   35  C   UNL     1      43.029 -10.693   9.962  1.00  0.00     0.021 A 
HETATM   36  C   UNL     1      43.905 -10.666  11.040  1.00  0.00     0.011 A 
HETATM   37 BR   UNL     1      43.451  -9.698  12.599  1.00  0.00    -0.051 Br
HETATM   38  C   UNL     1      45.108 -11.361  10.981  1.00  0.00     0.021 A 
HETATM   39  C   UNL     1      45.440 -12.084   9.828  1.00  0.00     0.030 A 
ENDBRANCH  31  33
ENDBRANCH  29  31
ENDBRANCH   1  29
TORSDOF 9
ENDMDL
MODEL 8
REMARK VINA RESULT:      -8.4      4.222      8.217
REMARK  9 active torsions:
REMARK  status: ('A' for Active; 'I' for Inactive)
REMARK    1  A    between atoms: C_2  and  N_3 
REMARK    2  A    between atoms: C_2  and  C_11 
REMARK    3  A    between atoms: N_3  and  C_4 
REMARK    4  A    between atoms: N_12  and  C_13 
REMARK    5  A    between atoms: C_19  and  S_20 
REMARK    6  A    between atoms: S_20  and  C_21 
REMARK    7  A    between atoms: C_21  and  C_22 
REMARK       I    between atoms: C_22  and  N_23 
REMARK    8  A    between atoms: N_23  and  C_24 
REMARK    9  A    between atoms: C_26  and  N_27 
REMARK       I    between atoms: N_27  and  C_28 
ROOT
HETATM    1  C   UNL     1      42.564 -13.808   5.433  1.00  0.00     0.158 A 
HETATM    2  N   UNL     1      41.668 -13.580   4.388  1.00  0.00    -0.274 N 
HETATM    3  C   UNL     1      41.070 -12.376   4.726  1.00  0.00     0.196 A 
HETATM    4  N   UNL     1      41.485 -11.974   5.905  1.00  0.00    -0.122 NA
HETATM    5  N   UNL     1      42.416 -12.861   6.346  1.00  0.00    -0.131 NA
ENDROOT
BRANCH   3   6
HETATM    6  S   UNL     1      39.800 -11.581   3.851  1.00  0.00    -0.080 SA
BRANCH   6   7
HETATM    7  C   UNL     1      40.703 -10.179   3.121  1.00  0.00     0.185 C 
BRANCH   7   8
HETATM    8  C   UNL     1      40.675 -10.274   1.604  1.00  0.00     0.231 C 
HETATM    9  N   UNL     1      41.892 -10.639   1.047  1.00  0.00    -0.326 N 
HETATM   10  H   UNL     1      42.669 -10.765   1.697  1.00  0.00     0.169 HD
HETATM   11  O   UNL     1      39.641 -10.026   0.990  1.00  0.00    -0.272 OA
BRANCH   9  12
HETATM   12  C   UNL     1      42.202 -10.764  -0.326  1.00  0.00     0.036 A 
HETATM   13  C   UNL     1      42.083 -12.045  -0.899  1.00  0.00     0.059 A 
HETATM   14  C   UNL     1      42.384 -12.265  -2.247  1.00  0.00     0.036 A 
HETATM   15  C   UNL     1      42.823 -11.181  -3.017  1.00  0.00     0.029 A 
HETATM   16  C   UNL     1      42.936  -9.908  -2.464  1.00  0.00     0.004 A 
HETATM   17  C   UNL     1      42.624  -9.701  -1.122  1.00  0.00     0.029 A 
BRANCH  14  18
HETATM   18  N   UNL     1      42.316 -13.501  -2.916  1.00  0.00    -0.327 N 
HETATM   19  C   UNL     1      41.391 -14.497  -2.992  1.00  0.00     0.218 C 
HETATM   20  C   UNL     1      40.040 -14.379  -2.357  1.00  0.00     0.117 C 
HETATM   21  O   UNL     1      41.691 -15.510  -3.633  1.00  0.00    -0.274 OA
HETATM   22  H   UNL     1      43.120 -13.737  -3.487  1.00  0.00     0.169 HD
ENDBRANCH  14  18
ENDBRANCH   9  12
ENDBRANCH   7   8
ENDBRANCH   6   7
ENDBRANCH   3   6
BRANCH   2  23
HETATM   23  C   UNL     1      41.431 -14.399   3.253  1.00  0.00     0.043 A 
HETATM   24  C   UNL     1      42.228 -14.256   2.109  1.00  0.00     0.030 A 
HETATM   25  C   UNL     1      41.991 -15.056   0.989  1.00  0.00     0.002 A 
HETATM   26  C   UNL     1      40.967 -16.000   1.006  1.00  0.00     0.000 A 
HETATM   27  C   UNL     1      40.177 -16.150   2.144  1.00  0.00     0.002 A 
HETATM   28  C   UNL     1      40.406 -15.354   3.268  1.00  0.00     0.030 A 
ENDBRANCH   2  23
BRANCH   1  29
HETATM   29  C   UNL     1      43.651 -14.864   5.476  1.00  0.00     0.150 C 
HETATM   30  C   UNL     1      44.707 -14.507   6.532  1.00  0.00     0.040 C 
BRANCH  29  31
HETATM   31  N   UNL     1      43.088 -16.182   5.814  1.00  0.00    -0.379 N 
HETATM   32  H   UNL     1      43.019 -16.312   6.821  1.00  0.00     0.160 HD
BRANCH  31  33
HETATM   33  C   UNL     1      43.371 -17.340   5.102  1.00  0.00     0.028 A 
HETATM   34  C   UNL     1      43.437 -17.275   3.702  1.00  0.00     0.030 A 
HETATM   35  C   UNL     1      43.773 -18.394   2.932  1.00  0.00     0.021 A 
HETATM   36  C   UNL     1      44.077 -19.593   3.564  1.00  0.00     0.011 A 
HETATM   37 BR   UNL     1      44.560 -21.104   2.537  1.00  0.00    -0.051 Br
HETATM   38  C   UNL     1      44.042 -19.680   4.952  1.00  0.00     0.021 A 
HETATM   39  C   UNL     1      43.692 -18.557   5.713  1.00  0.00     0.030 A 
ENDBRANCH  31  33
ENDBRANCH  29  31
ENDBRANCH   1  29
TORSDOF 9
ENDMDL
MODEL 9
REMARK VINA RESULT:      -8.3      4.592      9.559
REMARK  9 active torsions:
REMARK  status: ('A' for Active; 'I' for Inactive)
REMARK    1  A    between atoms: C_2  and  N_3 
REMARK    2  A    between atoms: C_2  and  C_11 
REMARK    3  A    between atoms: N_3  and  C_4 
REMARK    4  A    between atoms: N_12  and  C_13 
REMARK    5  A    between atoms: C_19  and  S_20 
REMARK    6  A    between atoms: S_20  and  C_21 
REMARK    7  A    between atoms: C_21  and  C_22 
REMARK       I    between atoms: C_22  and  N_23 
REMARK    8  A    between atoms: N_23  and  C_24 
REMARK    9  A    between atoms: C_26  and  N_27 
REMARK       I    between atoms: N_27  and  C_28 
ROOT
HETATM    1  C   UNL     1      43.893 -15.151   7.340  1.00  0.00     0.158 A 
HETATM    2  N   UNL     1      42.914 -15.259   6.352  1.00  0.00    -0.274 N 
HETATM    3  C   UNL     1      42.319 -16.483   6.613  1.00  0.00     0.196 A 
HETATM    4  N   UNL     1      42.944 -17.097   7.591  1.00  0.00    -0.122 NA
HETATM    5  N   UNL     1      43.922 -16.271   8.046  1.00  0.00    -0.131 NA
ENDROOT
BRANCH   3   6
HETATM    6  S   UNL     1      41.062 -17.230   5.679  1.00  0.00    -0.080 SA
BRANCH   6   7
HETATM    7  C   UNL     1      42.036 -18.057   4.382  1.00  0.00     0.185 C 
BRANCH   7   8
HETATM    8  C   UNL     1      41.673 -17.493   3.018  1.00  0.00     0.231 C 
HETATM    9  N   UNL     1      40.943 -16.315   3.079  1.00  0.00    -0.326 N 
HETATM   10  H   UNL     1      40.702 -15.979   4.011  1.00  0.00     0.169 HD
HETATM   11  O   UNL     1      42.014 -18.084   1.996  1.00  0.00    -0.272 OA
BRANCH   9  12
HETATM   12  C   UNL     1      40.417 -15.577   1.995  1.00  0.00     0.036 A 
HETATM   13  C   UNL     1      41.288 -15.297   0.923  1.00  0.00     0.059 A 
HETATM   14  C   UNL     1      40.856 -14.560  -0.185  1.00  0.00     0.036 A 
HETATM   15  C   UNL     1      39.538 -14.090  -0.200  1.00  0.00     0.029 A 
HETATM   16  C   UNL     1      38.665 -14.368   0.849  1.00  0.00     0.004 A 
HETATM   17  C   UNL     1      39.105 -15.112   1.942  1.00  0.00     0.029 A 
BRANCH  14  18
HETATM   18  N   UNL     1      41.642 -14.210  -1.299  1.00  0.00    -0.327 N 
HETATM   19  C   UNL     1      42.319 -13.092  -1.678  1.00  0.00     0.218 C 
HETATM   20  C   UNL     1      42.440 -11.894  -0.786  1.00  0.00     0.117 C 
HETATM   21  O   UNL     1      42.863 -13.098  -2.787  1.00  0.00    -0.274 OA
HETATM   22  H   UNL     1      41.759 -14.933  -2.000  1.00  0.00     0.169 HD
ENDBRANCH  14  18
ENDBRANCH   9  12
ENDBRANCH   7   8
ENDBRANCH   6   7
ENDBRANCH   3   6
BRANCH   2  23
HETATM   23  C   UNL     1      42.612 -14.327   5.324  1.00  0.00     0.043 A 
HETATM   24  C   UNL     1      43.423 -14.257   4.183  1.00  0.00     0.030 A 
HETATM   25  C   UNL     1      43.131 -13.336   3.175  1.00  0.00     0.002 A 
HETATM   26  C   UNL     1      42.032 -12.488   3.297  1.00  0.00     0.000 A 
HETATM   27  C   UNL     1      41.220 -12.560   4.427  1.00  0.00     0.002 A 
HETATM   28  C   UNL     1      41.505 -13.477   5.440  1.00  0.00     0.030 A 
ENDBRANCH   2  23
BRANCH   1  29
HETATM   29  C   UNL     1      44.700 -13.914   7.681  1.00  0.00     0.150 C 
HETATM   30  C   UNL     1      45.706 -13.602   6.563  1.00  0.00     0.040 C 
BRANCH  29  31
HETATM   31  N   UNL     1      43.822 -12.744   7.852  1.00  0.00    -0.379 N 
HETATM   32  H   UNL     1      43.744 -12.207   6.990  1.00  0.00     0.160 HD
BRANCH  31  33
HETATM   33  C   UNL     1      43.777 -11.983   9.012  1.00  0.00     0.028 A 
HETATM   34  C   UNL     1      42.857 -10.926   9.092  1.00  0.00     0.030 A 
HETATM   35  C   UNL     1      42.723 -10.159  10.254  1.00  0.00     0.021 A 
HETATM   36  C   UNL     1      43.496 -10.463  11.368  1.00  0.00     0.011 A 
HETATM   37 BR   UNL     1      43.304  -9.452  12.952  1.00  0.00    -0.051 Br
HETATM   38  C   UNL     1      44.399 -11.520  11.323  1.00  0.00     0.021 A 
HETATM   39  C   UNL     1      44.534 -12.274  10.151  1.00  0.00     0.030 A 
ENDBRANCH  31  33
ENDBRANCH  29  31
ENDBRANCH   1  29
TORSDOF 9
ENDMDL
MODEL 10
REMARK VINA RESULT:      -8.3      2.562      3.821
REMARK  9 active torsions:
REMARK  status: ('A' for Active; 'I' for Inactive)
REMARK    1  A    between atoms: C_2  and  N_3 
REMARK    2  A    between atoms: C_2  and  C_11 
REMARK    3  A    between atoms: N_3  and  C_4 
REMARK    4  A    between atoms: N_12  and  C_13 
REMARK    5  A    between atoms: C_19  and  S_20 
REMARK    6  A    between atoms: S_20  and  C_21 
REMARK    7  A    between atoms: C_21  and  C_22 
REMARK       I    between atoms: C_22  and  N_23 
REMARK    8  A    between atoms: N_23  and  C_24 
REMARK    9  A    between atoms: C_26  and  N_27 
REMARK       I    between atoms: N_27  and  C_28 
ROOT
HETATM    1  C   UNL     1      42.648 -14.093   5.379  1.00  0.00     0.158 A 
HETATM    2  N   UNL     1      41.785 -13.659   4.372  1.00  0.00    -0.274 N 
HETATM    3  C   UNL     1      41.373 -12.410   4.810  1.00  0.00     0.196 A 
HETATM    4  N   UNL     1      41.854 -12.163   6.007  1.00  0.00    -0.122 NA
HETATM    5  N   UNL     1      42.649 -13.206   6.362  1.00  0.00    -0.131 NA
ENDROOT
BRANCH   3   6
HETATM    6  S   UNL     1      40.224 -11.377   4.022  1.00  0.00    -0.080 SA
BRANCH   6   7
HETATM    7  C   UNL     1      40.714  -9.749   4.671  1.00  0.00     0.185 C 
BRANCH   7   8
HETATM    8  C   UNL     1      40.042  -9.499   6.012  1.00  0.00     0.231 C 
HETATM    9  N   UNL     1      40.935  -9.361   7.065  1.00  0.00    -0.326 N 
HETATM   10  H   UNL     1      41.923  -9.476   6.840  1.00  0.00     0.169 HD
HETATM   11  O   UNL     1      38.817  -9.448   6.087  1.00  0.00    -0.272 OA
BRANCH   9  12
HETATM   12  C   UNL     1      40.625  -9.170   8.430  1.00  0.00     0.036 A 
HETATM   13  C   UNL     1      40.393 -10.324   9.205  1.00  0.00     0.059 A 
HETATM   14  C   UNL     1      40.065 -10.229  10.562  1.00  0.00     0.036 A 
HETATM   15  C   UNL     1      39.957  -8.956  11.134  1.00  0.00     0.029 A 
HETATM   16  C   UNL     1      40.193  -7.809  10.381  1.00  0.00     0.004 A 
HETATM   17  C   UNL     1      40.529  -7.918   9.033  1.00  0.00     0.029 A 
BRANCH  14  18
HETATM   18  N   UNL     1      39.798 -11.310  11.422  1.00  0.00    -0.327 N 
HETATM   19  C   UNL     1      40.263 -11.701  12.640  1.00  0.00     0.218 C 
HETATM   20  C   UNL     1      41.212 -10.859  13.436  1.00  0.00     0.117 C 
HETATM   21  O   UNL     1      39.855 -12.775  13.093  1.00  0.00    -0.274 OA
HETATM   22  H   UNL     1      39.100 -11.970  11.096  1.00  0.00     0.169 HD
ENDBRANCH  14  18
ENDBRANCH   9  12
ENDBRANCH   7   8
ENDBRANCH   6   7
ENDBRANCH   3   6
BRANCH   2  23
HETATM   23  C   UNL     1      41.420 -14.347   3.185  1.00  0.00     0.043 A 
HETATM   24  C   UNL     1      42.246 -14.278   2.055  1.00  0.00     0.030 A 
HETATM   25  C   UNL     1      41.885 -14.948   0.884  1.00  0.00     0.002 A 
HETATM   26  C   UNL     1      40.707 -15.690   0.837  1.00  0.00     0.000 A 
HETATM   27  C   UNL     1      39.886 -15.767   1.961  1.00  0.00     0.002 A 
HETATM   28  C   UNL     1      40.240 -15.099   3.135  1.00  0.00     0.030 A 
ENDBRANCH   2  23
BRANCH   1  29
HETATM   29  C   UNL     1      43.570 -15.295   5.322  1.00  0.00     0.150 C 
HETATM   30  C   UNL     1      44.456 -15.354   6.575  1.00  0.00     0.040 C 
BRANCH  29  31
HETATM   31  N   UNL     1      42.797 -16.546   5.244  1.00  0.00    -0.379 N 
HETATM   32  H   UNL     1      42.386 -16.788   6.144  1.00  0.00     0.160 HD
BRANCH  31  33
HETATM   33  C   UNL     1      43.179 -17.636   4.474  1.00  0.00     0.028 A 
HETATM   34  C   UNL     1      43.959 -18.642   5.065  1.00  0.00     0.030 A 
HETATM   35  C   UNL     1      44.327 -19.792   4.359  1.00  0.00     0.021 A 
HETATM   36  C   UNL     1      43.891 -19.962   3.051  1.00  0.00     0.011 A 
HETATM   37 BR   UNL     1      44.359 -21.523   2.096  1.00  0.00    -0.051 Br
HETATM   38  C   UNL     1      43.098 -18.991   2.448  1.00  0.00     0.021 A 
HETATM   39  C   UNL     1      42.745 -17.837   3.160  1.00  0.00     0.030 A 
ENDBRANCH  31  33
ENDBRANCH  29  31
ENDBRANCH   1  29
TORSDOF 9
ENDMDL
