MODEL 1
REMARK VINA RESULT:      -8.9      0.000      0.000
REMARK  5 active torsions:
REMARK  status: ('A' for Active; 'I' for Inactive)
REMARK    1  A    between atoms: C_2  and  N_3 
REMARK    2  A    between atoms: C_2  and  C_16 
REMARK    3  A    between atoms: N_3  and  C_6 
REMARK    4  A    between atoms: C_6  and  C_7 
REMARK    5  A    between atoms: C_19  and  C_20 
ROOT
HETATM    1  C   UNL     1      43.841 -13.986   5.199  1.00  0.00     0.049 C 
HETATM    2  C   UNL     1      43.446 -14.992   6.275  1.00  0.00     0.260 C 
ENDROOT
BRANCH   2   3
HETATM    3  N   UNL     1      44.084 -14.597   7.585  1.00  0.00    -0.060 N 
HETATM    4  H   UNL     1      43.322 -14.318   8.226  1.00  0.00     0.278 HD
HETATM    5  H   UNL     1      44.487 -15.428   8.038  1.00  0.00     0.278 HD
BRANCH   3   6
HETATM    6  C   UNL     1      45.067 -13.484   7.562  1.00  0.00     0.274 C 
BRANCH   6   7
HETATM    7  C   UNL     1      44.796 -12.480   8.637  1.00  0.00     0.004 A 
HETATM    8  C   UNL     1      43.672 -11.669   8.592  1.00  0.00     0.113 A 
HETATM    9  C   UNL     1      43.410 -10.722   9.553  1.00  0.00     0.105 A 
HETATM   10  O   UNL     1      42.702 -11.720   7.636  1.00  0.00    -0.322 OA
HETATM   11  O   UNL     1      42.258 -10.045   9.314  1.00  0.00    -0.323 OA
HETATM   12  C   UNL     1      44.252 -10.528  10.626  1.00  0.00     0.040 A 
HETATM   13  C   UNL     1      41.841 -10.629   8.068  1.00  0.00     0.352 A 
HETATM   14  C   UNL     1      45.395 -11.325  10.706  1.00  0.00     0.003 A 
HETATM   15  C   UNL     1      45.670 -12.292   9.720  1.00  0.00     0.012 A 
ENDBRANCH   6   7
ENDBRANCH   3   6
ENDBRANCH   2   3
BRANCH   2  16
HETATM   16  C   UNL     1      43.873 -16.369   5.888  1.00  0.00     0.203 A 
HETATM   17  O   UNL     1      44.690 -17.037   6.740  1.00  0.00    -0.194 OA
HETATM   18  N   UNL     1      44.917 -18.280   6.167  1.00  0.00    -0.106 NA
HETATM   19  C   UNL     1      44.224 -18.248   5.016  1.00  0.00     0.189 A 
HETATM   20  N   UNL     1      43.566 -17.046   4.804  1.00  0.00    -0.202 NA
BRANCH  19  21
HETATM   21  C   UNL     1      44.151 -19.360   4.074  1.00  0.00     0.017 A 
HETATM   22  C   UNL     1      44.639 -20.622   4.434  1.00  0.00     0.057 A 
HETATM   23  C   UNL     1      44.572 -21.677   3.529  1.00  0.00     0.117 A 
HETATM   24  F   UNL     1      45.041 -22.878   3.892  1.00  0.00    -0.206 F 
HETATM   25  C   UNL     1      44.030 -21.507   2.262  1.00  0.00     0.042 A 
HETATM   26  C   UNL     1      43.542 -20.256   1.890  1.00  0.00     0.004 A 
HETATM   27  C   UNL     1      43.601 -19.189   2.792  1.00  0.00     0.016 A 
ENDBRANCH  19  21
ENDBRANCH   2  16
TORSDOF 5
ENDMDL
MODEL 2
REMARK VINA RESULT:      -8.7      3.161      4.548
REMARK  5 active torsions:
REMARK  status: ('A' for Active; 'I' for Inactive)
REMARK    1  A    between atoms: C_2  and  N_3 
REMARK    2  A    between atoms: C_2  and  C_16 
REMARK    3  A    between atoms: N_3  and  C_6 
REMARK    4  A    between atoms: C_6  and  C_7 
REMARK    5  A    between atoms: C_19  and  C_20 
ROOT
HETATM    1  C   UNL     1      41.209 -13.744   2.415  1.00  0.00     0.049 C 
HETATM    2  C   UNL     1      40.704 -15.177   2.560  1.00  0.00     0.260 C 
ENDROOT
BRANCH   2   3
HETATM    3  N   UNL     1      39.936 -15.307   3.853  1.00  0.00    -0.060 N 
HETATM    4  H   UNL     1      38.982 -14.949   3.680  1.00  0.00     0.278 HD
HETATM    5  H   UNL     1      39.786 -16.301   4.067  1.00  0.00     0.278 HD
BRANCH   3   6
HETATM    6  C   UNL     1      40.465 -14.589   5.041  1.00  0.00     0.274 C 
BRANCH   6   7
HETATM    7  C   UNL     1      41.441 -15.424   5.807  1.00  0.00     0.004 A 
HETATM    8  C   UNL     1      42.721 -14.962   6.076  1.00  0.00     0.113 A 
HETATM    9  C   UNL     1      43.646 -15.716   6.758  1.00  0.00     0.105 A 
HETATM   10  O   UNL     1      43.204 -13.735   5.732  1.00  0.00    -0.322 OA
HETATM   11  O   UNL     1      44.830 -15.070   6.911  1.00  0.00    -0.323 OA
HETATM   12  C   UNL     1      43.351 -16.979   7.220  1.00  0.00     0.040 A 
HETATM   13  C   UNL     1      44.575 -13.843   6.207  1.00  0.00     0.352 A 
HETATM   14  C   UNL     1      42.072 -17.479   6.968  1.00  0.00     0.003 A 
HETATM   15  C   UNL     1      41.123 -16.712   6.265  1.00  0.00     0.012 A 
ENDBRANCH   6   7
ENDBRANCH   3   6
ENDBRANCH   2   3
BRANCH   2  16
HETATM   16  C   UNL     1      41.845 -16.138   2.539  1.00  0.00     0.203 A 
HETATM   17  O   UNL     1      43.069 -15.656   2.204  1.00  0.00    -0.194 OA
HETATM   18  N   UNL     1      43.944 -16.731   2.281  1.00  0.00    -0.106 NA
HETATM   19  C   UNL     1      43.170 -17.767   2.645  1.00  0.00     0.189 A 
HETATM   20  N   UNL     1      41.835 -17.427   2.800  1.00  0.00    -0.202 NA
BRANCH  19  21
HETATM   21  C   UNL     1      43.666 -19.120   2.868  1.00  0.00     0.017 A 
HETATM   22  C   UNL     1      43.537 -20.092   1.868  1.00  0.00     0.057 A 
HETATM   23  C   UNL     1      44.008 -21.383   2.089  1.00  0.00     0.117 A 
HETATM   24  F   UNL     1      43.879 -22.299   1.120  1.00  0.00    -0.206 F 
HETATM   25  C   UNL     1      44.606 -21.736   3.291  1.00  0.00     0.042 A 
HETATM   26  C   UNL     1      44.739 -20.780   4.295  1.00  0.00     0.004 A 
HETATM   27  C   UNL     1      44.273 -19.478   4.084  1.00  0.00     0.016 A 
ENDBRANCH  19  21
ENDBRANCH   2  16
TORSDOF 5
ENDMDL
MODEL 3
REMARK VINA RESULT:      -8.5      3.539      4.949
REMARK  5 active torsions:
REMARK  status: ('A' for Active; 'I' for Inactive)
REMARK    1  A    between atoms: C_2  and  N_3 
REMARK    2  A    between atoms: C_2  and  C_16 
REMARK    3  A    between atoms: N_3  and  C_6 
REMARK    4  A    between atoms: C_6  and  C_7 
REMARK    5  A    between atoms: C_19  and  C_20 
ROOT
HETATM    1  C   UNL     1      44.371 -15.199   6.783  1.00  0.00     0.049 C 
HETATM    2  C   UNL     1      43.179 -15.367   5.846  1.00  0.00     0.260 C 
ENDROOT
BRANCH   2   3
HETATM    3  N   UNL     1      41.933 -15.612   6.662  1.00  0.00    -0.060 N 
HETATM    4  H   UNL     1      42.102 -16.456   7.235  1.00  0.00     0.278 HD
HETATM    5  H   UNL     1      41.824 -14.865   7.360  1.00  0.00     0.278 HD
BRANCH   3   6
HETATM    6  C   UNL     1      40.661 -15.829   5.926  1.00  0.00     0.274 C 
BRANCH   6   7
HETATM    7  C   UNL     1      40.193 -14.584   5.243  1.00  0.00     0.004 A 
HETATM    8  C   UNL     1      40.046 -14.537   3.865  1.00  0.00     0.113 A 
HETATM    9  C   UNL     1      39.640 -13.400   3.207  1.00  0.00     0.105 A 
HETATM   10  O   UNL     1      40.253 -15.582   3.014  1.00  0.00    -0.322 OA
HETATM   11  O   UNL     1      39.561 -13.578   1.864  1.00  0.00    -0.323 OA
HETATM   12  C   UNL     1      39.350 -12.237   3.885  1.00  0.00     0.040 A 
HETATM   13  C   UNL     1      40.011 -14.938   1.732  1.00  0.00     0.352 A 
HETATM   14  C   UNL     1      39.487 -12.245   5.274  1.00  0.00     0.003 A 
HETATM   15  C   UNL     1      39.908 -13.406   5.950  1.00  0.00     0.012 A 
ENDBRANCH   6   7
ENDBRANCH   3   6
ENDBRANCH   2   3
BRANCH   2  16
HETATM   16  C   UNL     1      43.409 -16.502   4.904  1.00  0.00     0.203 A 
HETATM   17  O   UNL     1      43.381 -16.232   3.575  1.00  0.00    -0.194 OA
HETATM   18  N   UNL     1      43.642 -17.433   2.929  1.00  0.00    -0.106 NA
HETATM   19  C   UNL     1      43.794 -18.321   3.925  1.00  0.00     0.189 A 
HETATM   20  N   UNL     1      43.637 -17.766   5.186  1.00  0.00    -0.202 NA
BRANCH  19  21
HETATM   21  C   UNL     1      44.102 -19.733   3.723  1.00  0.00     0.017 A 
HETATM   22  C   UNL     1      43.945 -20.314   2.458  1.00  0.00     0.057 A 
HETATM   23  C   UNL     1      44.236 -21.662   2.271  1.00  0.00     0.117 A 
HETATM   24  F   UNL     1      44.082 -22.200   1.055  1.00  0.00    -0.206 F 
HETATM   25  C   UNL     1      44.680 -22.455   3.321  1.00  0.00     0.042 A 
HETATM   26  C   UNL     1      44.839 -21.891   4.584  1.00  0.00     0.004 A 
HETATM   27  C   UNL     1      44.553 -20.536   4.783  1.00  0.00     0.016 A 
ENDBRANCH  19  21
ENDBRANCH   2  16
TORSDOF 5
ENDMDL
MODEL 4
REMARK VINA RESULT:      -8.4      4.856      7.038
REMARK  5 active torsions:
REMARK  status: ('A' for Active; 'I' for Inactive)
REMARK    1  A    between atoms: C_2  and  N_3 
REMARK    2  A    between atoms: C_2  and  C_16 
REMARK    3  A    between atoms: N_3  and  C_6 
REMARK    4  A    between atoms: C_6  and  C_7 
REMARK    5  A    between atoms: C_19  and  C_20 
ROOT
HETATM    1  C   UNL     1      42.556 -15.089   5.167  1.00  0.00     0.049 C 
HETATM    2  C   UNL     1      42.935 -14.925   3.698  1.00  0.00     0.260 C 
ENDROOT
BRANCH   2   3
HETATM    3  N   UNL     1      41.753 -14.374   2.938  1.00  0.00    -0.060 N 
HETATM    4  H   UNL     1      41.359 -13.601   3.500  1.00  0.00     0.278 HD
HETATM    5  H   UNL     1      42.079 -13.906   2.082  1.00  0.00     0.278 HD
BRANCH   3   6
HETATM    6  C   UNL     1      40.637 -15.306   2.632  1.00  0.00     0.274 C 
BRANCH   6   7
HETATM    7  C   UNL     1      39.773 -14.796   1.523  1.00  0.00     0.004 A 
HETATM    8  C   UNL     1      40.315 -14.448   0.295  1.00  0.00     0.113 A 
HETATM    9  C   UNL     1      39.549 -13.955  -0.734  1.00  0.00     0.105 A 
HETATM   10  O   UNL     1      41.629 -14.568  -0.048  1.00  0.00    -0.322 OA
HETATM   11  O   UNL     1      40.283 -13.684  -1.843  1.00  0.00    -0.323 OA
HETATM   12  C   UNL     1      38.189 -13.783  -0.604  1.00  0.00     0.040 A 
HETATM   13  C   UNL     1      41.609 -14.009  -1.391  1.00  0.00     0.352 A 
HETATM   14  C   UNL     1      37.606 -14.121   0.618  1.00  0.00     0.003 A 
HETATM   15  C   UNL     1      38.388 -14.621   1.676  1.00  0.00     0.012 A 
ENDBRANCH   6   7
ENDBRANCH   3   6
ENDBRANCH   2   3
BRANCH   2  16
HETATM   16  C   UNL     1      43.357 -16.232   3.117  1.00  0.00     0.203 A 
HETATM   17  O   UNL     1      43.813 -16.235   1.839  1.00  0.00    -0.194 OA
HETATM   18  N   UNL     1      44.156 -17.549   1.551  1.00  0.00    -0.106 NA
HETATM   19  C   UNL     1      43.868 -18.223   2.677  1.00  0.00     0.189 A 
HETATM   20  N   UNL     1      43.347 -17.420   3.680  1.00  0.00    -0.202 NA
BRANCH  19  21
HETATM   21  C   UNL     1      44.084 -19.655   2.850  1.00  0.00     0.017 A 
HETATM   22  C   UNL     1      44.590 -20.150   4.059  1.00  0.00     0.057 A 
HETATM   23  C   UNL     1      44.800 -21.517   4.216  1.00  0.00     0.117 A 
HETATM   24  F   UNL     1      45.282 -21.973   5.379  1.00  0.00    -0.206 F 
HETATM   25  C   UNL     1      44.518 -22.412   3.192  1.00  0.00     0.042 A 
HETATM   26  C   UNL     1      44.016 -21.933   1.985  1.00  0.00     0.004 A 
HETATM   27  C   UNL     1      43.798 -20.562   1.816  1.00  0.00     0.016 A 
ENDBRANCH  19  21
ENDBRANCH   2  16
TORSDOF 5
ENDMDL
MODEL 5
REMARK VINA RESULT:      -8.4      5.444      7.818
REMARK  5 active torsions:
REMARK  status: ('A' for Active; 'I' for Inactive)
REMARK    1  A    between atoms: C_2  and  N_3 
REMARK    2  A    between atoms: C_2  and  C_16 
REMARK    3  A    between atoms: N_3  and  C_6 
REMARK    4  A    between atoms: C_6  and  C_7 
REMARK    5  A    between atoms: C_19  and  C_20 
ROOT
HETATM    1  C   UNL     1      40.028 -15.775   1.937  1.00  0.00     0.049 C 
HETATM    2  C   UNL     1      41.391 -15.244   2.373  1.00  0.00     0.260 C 
ENDROOT
BRANCH   2   3
HETATM    3  N   UNL     1      42.043 -14.532   1.213  1.00  0.00    -0.060 N 
HETATM    4  H   UNL     1      43.018 -14.328   1.487  1.00  0.00     0.278 HD
HETATM    5  H   UNL     1      42.147 -15.182   0.422  1.00  0.00     0.278 HD
BRANCH   3   6
HETATM    6  C   UNL     1      41.437 -13.253   0.763  1.00  0.00     0.274 C 
BRANCH   6   7
HETATM    7  C   UNL     1      41.766 -12.952  -0.665  1.00  0.00     0.004 A 
HETATM    8  C   UNL     1      41.448 -13.846  -1.676  1.00  0.00     0.113 A 
HETATM    9  C   UNL     1      41.759 -13.607  -2.993  1.00  0.00     0.105 A 
HETATM   10  O   UNL     1      40.789 -15.027  -1.505  1.00  0.00    -0.322 OA
HETATM   11  O   UNL     1      41.354 -14.611  -3.812  1.00  0.00    -0.323 OA
HETATM   12  C   UNL     1      42.402 -12.455  -3.387  1.00  0.00     0.040 A 
HETATM   13  C   UNL     1      40.798 -15.540  -2.866  1.00  0.00     0.352 A 
HETATM   14  C   UNL     1      42.740 -11.530  -2.397  1.00  0.00     0.003 A 
HETATM   15  C   UNL     1      42.428 -11.775  -1.046  1.00  0.00     0.012 A 
ENDBRANCH   6   7
ENDBRANCH   3   6
ENDBRANCH   2   3
BRANCH   2  16
HETATM   16  C   UNL     1      42.260 -16.360   2.848  1.00  0.00     0.203 A 
HETATM   17  O   UNL     1      43.065 -16.122   3.914  1.00  0.00    -0.194 OA
HETATM   18  N   UNL     1      43.741 -17.308   4.163  1.00  0.00    -0.106 NA
HETATM   19  C   UNL     1      43.292 -18.153   3.220  1.00  0.00     0.189 A 
HETATM   20  N   UNL     1      42.365 -17.578   2.363  1.00  0.00    -0.202 NA
BRANCH  19  21
HETATM   21  C   UNL     1      43.716 -19.543   3.098  1.00  0.00     0.017 A 
HETATM   22  C   UNL     1      44.396 -20.167   4.152  1.00  0.00     0.057 A 
HETATM   23  C   UNL     1      44.804 -21.492   4.028  1.00  0.00     0.117 A 
HETATM   24  F   UNL     1      45.451 -22.073   5.046  1.00  0.00    -0.206 F 
HETATM   25  C   UNL     1      44.554 -22.218   2.871  1.00  0.00     0.042 A 
HETATM   26  C   UNL     1      43.880 -21.609   1.815  1.00  0.00     0.004 A 
HETATM   27  C   UNL     1      43.462 -20.279   1.929  1.00  0.00     0.016 A 
ENDBRANCH  19  21
ENDBRANCH   2  16
TORSDOF 5
ENDMDL
MODEL 6
REMARK VINA RESULT:      -8.4      4.163      6.191
REMARK  5 active torsions:
REMARK  status: ('A' for Active; 'I' for Inactive)
REMARK    1  A    between atoms: C_2  and  N_3 
REMARK    2  A    between atoms: C_2  and  C_16 
REMARK    3  A    between atoms: N_3  and  C_6 
REMARK    4  A    between atoms: C_6  and  C_7 
REMARK    5  A    between atoms: C_19  and  C_20 
ROOT
HETATM    1  C   UNL     1      40.686 -16.563   6.300  1.00  0.00     0.049 C 
HETATM    2  C   UNL     1      42.092 -16.019   6.065  1.00  0.00     0.260 C 
ENDROOT
BRANCH   2   3
HETATM    3  N   UNL     1      42.064 -15.045   4.912  1.00  0.00    -0.060 N 
HETATM    4  H   UNL     1      42.206 -14.100   5.304  1.00  0.00     0.278 HD
HETATM    5  H   UNL     1      42.893 -15.187   4.319  1.00  0.00     0.278 HD
BRANCH   3   6
HETATM    6  C   UNL     1      40.832 -14.996   4.084  1.00  0.00     0.274 C 
BRANCH   6   7
HETATM    7  C   UNL     1      41.058 -15.551   2.714  1.00  0.00     0.004 A 
HETATM    8  C   UNL     1      41.364 -14.719   1.647  1.00  0.00     0.113 A 
HETATM    9  C   UNL     1      41.555 -15.197   0.373  1.00  0.00     0.105 A 
HETATM   10  O   UNL     1      41.534 -13.368   1.725  1.00  0.00    -0.322 OA
HETATM   11  O   UNL     1      41.847 -14.212  -0.513  1.00  0.00    -0.323 OA
HETATM   12  C   UNL     1      41.457 -16.540   0.083  1.00  0.00     0.040 A 
HETATM   13  C   UNL     1      41.770 -13.046   0.326  1.00  0.00     0.352 A 
HETATM   14  C   UNL     1      41.149 -17.410   1.130  1.00  0.00     0.003 A 
HETATM   15  C   UNL     1      40.948 -16.922   2.436  1.00  0.00     0.012 A 
ENDBRANCH   6   7
ENDBRANCH   3   6
ENDBRANCH   2   3
BRANCH   2  16
HETATM   16  C   UNL     1      43.043 -17.132   5.777  1.00  0.00     0.203 A 
HETATM   17  O   UNL     1      44.299 -17.034   6.280  1.00  0.00    -0.194 OA
HETATM   18  N   UNL     1      44.965 -18.189   5.894  1.00  0.00    -0.106 NA
HETATM   19  C   UNL     1      44.054 -18.877   5.184  1.00  0.00     0.189 A 
HETATM   20  N   UNL     1      42.834 -18.227   5.080  1.00  0.00    -0.202 NA
BRANCH  19  21
HETATM   21  C   UNL     1      44.302 -20.183   4.584  1.00  0.00     0.017 A 
HETATM   22  C   UNL     1      44.195 -20.353   3.198  1.00  0.00     0.057 A 
HETATM   23  C   UNL     1      44.427 -21.603   2.631  1.00  0.00     0.117 A 
HETATM   24  F   UNL     1      44.323 -21.747   1.304  1.00  0.00    -0.206 F 
HETATM   25  C   UNL     1      44.763 -22.699   3.415  1.00  0.00     0.042 A 
HETATM   26  C   UNL     1      44.872 -22.544   4.795  1.00  0.00     0.004 A 
HETATM   27  C   UNL     1      44.644 -21.292   5.376  1.00  0.00     0.016 A 
ENDBRANCH  19  21
ENDBRANCH   2  16
TORSDOF 5
ENDMDL
MODEL 7
REMARK VINA RESULT:      -8.3      6.548      9.107
REMARK  5 active torsions:
REMARK  status: ('A' for Active; 'I' for Inactive)
REMARK    1  A    between atoms: C_2  and  N_3 
REMARK    2  A    between atoms: C_2  and  C_16 
REMARK    3  A    between atoms: N_3  and  C_6 
REMARK    4  A    between atoms: C_6  and  C_7 
REMARK    5  A    between atoms: C_19  and  C_20 
ROOT
HETATM    1  C   UNL     1      39.176 -15.335   1.772  1.00  0.00     0.049 C 
HETATM    2  C   UNL     1      40.642 -15.306   1.351  1.00  0.00     0.260 C 
ENDROOT
BRANCH   2   3
HETATM    3  N   UNL     1      40.744 -15.625  -0.121  1.00  0.00    -0.060 N 
HETATM    4  H   UNL     1      41.525 -16.291  -0.238  1.00  0.00     0.278 HD
HETATM    5  H   UNL     1      39.920 -16.166  -0.416  1.00  0.00     0.278 HD
BRANCH   3   6
HETATM    6  C   UNL     1      40.988 -14.495  -1.054  1.00  0.00     0.274 C 
BRANCH   6   7
HETATM    7  C   UNL     1      39.748 -14.100  -1.789  1.00  0.00     0.004 A 
HETATM    8  C   UNL     1      39.262 -14.868  -2.837  1.00  0.00     0.113 A 
HETATM    9  C   UNL     1      38.138 -14.519  -3.546  1.00  0.00     0.105 A 
HETATM   10  O   UNL     1      39.805 -16.041  -3.271  1.00  0.00    -0.322 OA
HETATM   11  O   UNL     1      37.842 -15.412  -4.524  1.00  0.00    -0.323 OA
HETATM   12  C   UNL     1      37.421 -13.381  -3.249  1.00  0.00     0.040 A 
HETATM   13  C   UNL     1      38.932 -16.342  -4.395  1.00  0.00     0.352 A 
HETATM   14  C   UNL     1      37.879 -12.580  -2.201  1.00  0.00     0.003 A 
HETATM   15  C   UNL     1      39.034 -12.933  -1.476  1.00  0.00     0.012 A 
ENDBRANCH   6   7
ENDBRANCH   3   6
ENDBRANCH   2   3
BRANCH   2  16
HETATM   16  C   UNL     1      41.435 -16.288   2.147  1.00  0.00     0.203 A 
HETATM   17  O   UNL     1      41.602 -16.037   3.470  1.00  0.00    -0.194 OA
HETATM   18  N   UNL     1      42.345 -17.094   3.976  1.00  0.00    -0.106 NA
HETATM   19  C   UNL     1      42.568 -17.884   2.911  1.00  0.00     0.189 A 
HETATM   20  N   UNL     1      42.018 -17.393   1.737  1.00  0.00    -0.202 NA
BRANCH  19  21
HETATM   21  C   UNL     1      43.305 -19.142   2.967  1.00  0.00     0.017 A 
HETATM   22  C   UNL     1      43.182 -20.076   1.931  1.00  0.00     0.057 A 
HETATM   23  C   UNL     1      43.883 -21.277   1.991  1.00  0.00     0.117 A 
HETATM   24  F   UNL     1      43.756 -22.158   0.991  1.00  0.00    -0.206 F 
HETATM   25  C   UNL     1      44.708 -21.577   3.068  1.00  0.00     0.042 A 
HETATM   26  C   UNL     1      44.838 -20.657   4.106  1.00  0.00     0.004 A 
HETATM   27  C   UNL     1      44.141 -19.445   4.054  1.00  0.00     0.016 A 
ENDBRANCH  19  21
ENDBRANCH   2  16
TORSDOF 5
ENDMDL
MODEL 8
REMARK VINA RESULT:      -8.3      3.027      4.552
REMARK  5 active torsions:
REMARK  status: ('A' for Active; 'I' for Inactive)
REMARK    1  A    between atoms: C_2  and  N_3 
REMARK    2  A    between atoms: C_2  and  C_16 
REMARK    3  A    between atoms: N_3  and  C_6 
REMARK    4  A    between atoms: C_6  and  C_7 
REMARK    5  A    between atoms: C_19  and  C_20 
ROOT
HETATM    1  C   UNL     1      44.301 -15.396   6.965  1.00  0.00     0.049 C 
HETATM    2  C   UNL     1      43.241 -15.377   5.868  1.00  0.00     0.260 C 
ENDROOT
BRANCH   2   3
HETATM    3  N   UNL     1      41.871 -15.460   6.497  1.00  0.00    -0.060 N 
HETATM    4  H   UNL     1      41.917 -16.178   7.239  1.00  0.00     0.278 HD
HETATM    5  H   UNL     1      41.674 -14.592   7.013  1.00  0.00     0.278 HD
BRANCH   3   6
HETATM    6  C   UNL     1      40.730 -15.815   5.615  1.00  0.00     0.274 C 
BRANCH   6   7
HETATM    7  C   UNL     1      40.240 -14.635   4.837  1.00  0.00     0.004 A 
HETATM    8  C   UNL     1      39.848 -13.469   5.476  1.00  0.00     0.113 A 
HETATM    9  C   UNL     1      39.373 -12.377   4.790  1.00  0.00     0.105 A 
HETATM   10  O   UNL     1      39.905 -13.251   6.821  1.00  0.00    -0.322 OA
HETATM   11  O   UNL     1      39.051 -11.346   5.611  1.00  0.00    -0.323 OA
HETATM   12  C   UNL     1      39.262 -12.379   3.417  1.00  0.00     0.040 A 
HETATM   13  C   UNL     1      39.325 -11.919   6.902  1.00  0.00     0.352 A 
HETATM   14  C   UNL     1      39.646 -13.536   2.736  1.00  0.00     0.003 A 
HETATM   15  C   UNL     1      40.128 -14.658   3.437  1.00  0.00     0.012 A 
ENDBRANCH   6   7
ENDBRANCH   3   6
ENDBRANCH   2   3
BRANCH   2  16
HETATM   16  C   UNL     1      43.444 -16.514   4.923  1.00  0.00     0.203 A 
HETATM   17  O   UNL     1      43.380 -16.248   3.594  1.00  0.00    -0.194 OA
HETATM   18  N   UNL     1      43.621 -17.451   2.945  1.00  0.00    -0.106 NA
HETATM   19  C   UNL     1      43.800 -18.337   3.939  1.00  0.00     0.189 A 
HETATM   20  N   UNL     1      43.678 -17.778   5.202  1.00  0.00    -0.202 NA
BRANCH  19  21
HETATM   21  C   UNL     1      44.101 -19.749   3.732  1.00  0.00     0.017 A 
HETATM   22  C   UNL     1      43.927 -20.328   2.468  1.00  0.00     0.057 A 
HETATM   23  C   UNL     1      44.211 -21.677   2.277  1.00  0.00     0.117 A 
HETATM   24  F   UNL     1      44.042 -22.214   1.063  1.00  0.00    -0.206 F 
HETATM   25  C   UNL     1      44.665 -22.473   3.321  1.00  0.00     0.042 A 
HETATM   26  C   UNL     1      44.841 -21.910   4.583  1.00  0.00     0.004 A 
HETATM   27  C   UNL     1      44.562 -20.555   4.786  1.00  0.00     0.016 A 
ENDBRANCH  19  21
ENDBRANCH   2  16
TORSDOF 5
ENDMDL
MODEL 9
REMARK VINA RESULT:      -8.1      4.671      9.228
REMARK  5 active torsions:
REMARK  status: ('A' for Active; 'I' for Inactive)
REMARK    1  A    between atoms: C_2  and  N_3 
REMARK    2  A    between atoms: C_2  and  C_16 
REMARK    3  A    between atoms: N_3  and  C_6 
REMARK    4  A    between atoms: C_6  and  C_7 
REMARK    5  A    between atoms: C_19  and  C_20 
ROOT
HETATM    1  C   UNL     1      46.960 -12.229   7.546  1.00  0.00     0.049 C 
HETATM    2  C   UNL     1      45.834 -12.878   8.346  1.00  0.00     0.260 C 
ENDROOT
BRANCH   2   3
HETATM    3  N   UNL     1      44.751 -13.337   7.400  1.00  0.00    -0.060 N 
HETATM    4  H   UNL     1      43.872 -13.387   7.941  1.00  0.00     0.278 HD
HETATM    5  H   UNL     1      44.565 -12.604   6.704  1.00  0.00     0.278 HD
BRANCH   3   6
HETATM    6  C   UNL     1      44.932 -14.654   6.737  1.00  0.00     0.274 C 
BRANCH   6   7
HETATM    7  C   UNL     1      43.643 -15.404   6.627  1.00  0.00     0.004 A 
HETATM    8  C   UNL     1      42.559 -14.867   5.948  1.00  0.00     0.113 A 
HETATM    9  C   UNL     1      41.355 -15.523   5.850  1.00  0.00     0.105 A 
HETATM   10  O   UNL     1      42.554 -13.672   5.293  1.00  0.00    -0.322 OA
HETATM   11  O   UNL     1      40.437 -14.818   5.141  1.00  0.00    -0.323 OA
HETATM   12  C   UNL     1      41.158 -16.761   6.419  1.00  0.00     0.040 A 
HETATM   13  C   UNL     1      41.171 -13.618   4.843  1.00  0.00     0.352 A 
HETATM   14  C   UNL     1      42.225 -17.335   7.112  1.00  0.00     0.003 A 
HETATM   15  C   UNL     1      43.458 -16.663   7.219  1.00  0.00     0.012 A 
ENDBRANCH   6   7
ENDBRANCH   3   6
ENDBRANCH   2   3
BRANCH   2  16
HETATM   16  C   UNL     1      45.276 -11.915   9.340  1.00  0.00     0.203 A 
HETATM   17  O   UNL     1      45.674 -10.620   9.255  1.00  0.00    -0.194 OA
HETATM   18  N   UNL     1      45.004  -9.940  10.263  1.00  0.00    -0.106 NA
HETATM   19  C   UNL     1      44.269 -10.887  10.872  1.00  0.00     0.189 A 
HETATM   20  N   UNL     1      44.432 -12.148  10.321  1.00  0.00    -0.202 NA
BRANCH  19  21
HETATM   21  C   UNL     1      43.375 -10.630  11.996  1.00  0.00     0.017 A 
HETATM   22  C   UNL     1      42.172 -11.336  12.115  1.00  0.00     0.057 A 
HETATM   23  C   UNL     1      41.321 -11.084  13.187  1.00  0.00     0.117 A 
HETATM   24  F   UNL     1      40.175 -11.770  13.286  1.00  0.00    -0.206 F 
HETATM   25  C   UNL     1      41.638 -10.136  14.151  1.00  0.00     0.042 A 
HETATM   26  C   UNL     1      42.831  -9.426  14.044  1.00  0.00     0.004 A 
HETATM   27  C   UNL     1      43.696  -9.673  12.973  1.00  0.00     0.016 A 
ENDBRANCH  19  21
ENDBRANCH   2  16
TORSDOF 5
ENDMDL
MODEL 10
REMARK VINA RESULT:      -8.1      5.995      8.818
REMARK  5 active torsions:
REMARK  status: ('A' for Active; 'I' for Inactive)
REMARK    1  A    between atoms: C_2  and  N_3 
REMARK    2  A    between atoms: C_2  and  C_16 
REMARK    3  A    between atoms: N_3  and  C_6 
REMARK    4  A    between atoms: C_6  and  C_7 
REMARK    5  A    between atoms: C_19  and  C_20 
ROOT
HETATM    1  C   UNL     1      41.122 -14.353   1.762  1.00  0.00     0.049 C 
HETATM    2  C   UNL     1      41.978 -15.263   0.888  1.00  0.00     0.260 C 
ENDROOT
BRANCH   2   3
HETATM    3  N   UNL     1      41.117 -15.872  -0.192  1.00  0.00    -0.060 N 
HETATM    4  H   UNL     1      41.193 -16.899  -0.103  1.00  0.00     0.278 HD
HETATM    5  H   UNL     1      40.126 -15.686   0.010  1.00  0.00     0.278 HD
BRANCH   3   6
HETATM    6  C   UNL     1      41.437 -15.530  -1.602  1.00  0.00     0.274 C 
BRANCH   6   7
HETATM    7  C   UNL     1      40.202 -15.347  -2.425  1.00  0.00     0.004 A 
HETATM    8  C   UNL     1      39.320 -14.308  -2.170  1.00  0.00     0.113 A 
HETATM    9  C   UNL     1      38.166 -14.129  -2.895  1.00  0.00     0.105 A 
HETATM   10  O   UNL     1      39.487 -13.349  -1.216  1.00  0.00    -0.322 OA
HETATM   11  O   UNL     1      37.454 -13.052  -2.478  1.00  0.00    -0.323 OA
HETATM   12  C   UNL     1      37.822 -14.974  -3.927  1.00  0.00     0.040 A 
HETATM   13  C   UNL     1      38.253 -12.594  -1.374  1.00  0.00     0.352 A 
HETATM   14  C   UNL     1      38.685 -16.033  -4.214  1.00  0.00     0.003 A 
HETATM   15  C   UNL     1      39.865 -16.223  -3.469  1.00  0.00     0.012 A 
ENDBRANCH   6   7
ENDBRANCH   3   6
ENDBRANCH   2   3
BRANCH   2  16
HETATM   16  C   UNL     1      42.610 -16.336   1.710  1.00  0.00     0.203 A 
HETATM   17  O   UNL     1      43.071 -15.997   2.940  1.00  0.00    -0.194 OA
HETATM   18  N   UNL     1      43.583 -17.161   3.498  1.00  0.00    -0.106 NA
HETATM   19  C   UNL     1      43.394 -18.096   2.551  1.00  0.00     0.189 A 
HETATM   20  N   UNL     1      42.795 -17.601   1.402  1.00  0.00    -0.202 NA
BRANCH  19  21
HETATM   21  C   UNL     1      43.767 -19.498   2.700  1.00  0.00     0.017 A 
HETATM   22  C   UNL     1      44.421 -19.933   3.860  1.00  0.00     0.057 A 
HETATM   23  C   UNL     1      44.779 -21.272   3.994  1.00  0.00     0.117 A 
HETATM   24  F   UNL     1      45.402 -21.671   5.110  1.00  0.00    -0.206 F 
HETATM   25  C   UNL     1      44.503 -22.196   2.995  1.00  0.00     0.042 A 
HETATM   26  C   UNL     1      43.854 -21.776   1.837  1.00  0.00     0.004 A 
HETATM   27  C   UNL     1      43.486 -20.434   1.691  1.00  0.00     0.016 A 
ENDBRANCH  19  21
ENDBRANCH   2  16
TORSDOF 5
ENDMDL
