MODEL 1
REMARK VINA RESULT:      -9.2      0.000      0.000
REMARK  4 active torsions:
REMARK  status: ('A' for Active; 'I' for Inactive)
REMARK    1  A    between atoms: C_10  and  C_11 
REMARK    2  A    between atoms: N_14  and  C_16 
REMARK    3  A    between atoms: C_16  and  C_17 
REMARK    4  A    between atoms: C_22  and  C_23 
ROOT
HETATM    1  C   UNL     1      43.223 -18.012   1.575  1.00  0.00     0.024 C 
HETATM    2  C   UNL     1      43.802 -16.584   1.545  1.00  0.00     0.037 C 
HETATM    3  C   UNL     1      43.411 -15.810   2.797  1.00  0.00     0.236 C 
HETATM    4  N   UNL     1      41.906 -15.726   2.907  1.00  0.00    -0.066 N 
HETATM    5  H   UNL     1      41.597 -15.081   2.162  1.00  0.00     0.280 HD
HETATM    6  C   UNL     1      41.201 -17.047   2.783  1.00  0.00     0.236 C 
HETATM    7  C   UNL     1      41.701 -17.857   1.594  1.00  0.00     0.037 C 
ENDROOT
BRANCH   4   8
HETATM    8  C   UNL     1      41.476 -15.030   4.199  1.00  0.00     0.294 C 
BRANCH   8   9
HETATM    9  C   UNL     1      42.575 -14.924   5.238  1.00  0.00     0.075 A 
HETATM   10  N   UNL     1      43.437 -13.878   5.074  1.00  0.00    -0.263 NA
HETATM   11  C   UNL     1      44.433 -13.747   5.983  1.00  0.00     0.117 A 
HETATM   12  C   UNL     1      44.611 -14.604   7.054  1.00  0.00     0.020 A 
HETATM   13  C   UNL     1      43.712 -15.652   7.219  1.00  0.00     0.020 A 
HETATM   14  C   UNL     1      42.664 -15.822   6.309  1.00  0.00     0.074 A 
BRANCH  14  15
HETATM   15  C   UNL     1      41.678 -16.948   6.458  1.00  0.00     0.419 C 
HETATM   16  F   UNL     1      41.887 -17.640   7.614  1.00  0.00    -0.166 F 
HETATM   17  F   UNL     1      40.403 -16.482   6.543  1.00  0.00    -0.166 F 
HETATM   18  F   UNL     1      41.701 -17.854   5.454  1.00  0.00    -0.166 F 
ENDBRANCH  14  15
ENDBRANCH   8   9
ENDBRANCH   4   8
BRANCH   1  19
HETATM   19  C   UNL     1      43.839 -18.839   2.696  1.00  0.00    -0.024 A 
HETATM   20  C   UNL     1      44.148 -20.249   2.783  1.00  0.00     0.018 A 
HETATM   21  C   UNL     1      44.580 -20.489   4.086  1.00  0.00     0.138 A 
HETATM   22  C   UNL     1      44.107 -21.378   1.940  1.00  0.00     0.017 A 
HETATM   23  N   UNL     1      44.900 -21.665   4.653  1.00  0.00    -0.242 NA
HETATM   24  N   UNL     1      44.656 -19.299   4.742  1.00  0.00    -0.350 N 
HETATM   25  C   UNL     1      44.813 -22.709   3.807  1.00  0.00     0.119 A 
HETATM   26  C   UNL     1      44.442 -22.626   2.475  1.00  0.00     0.020 A 
HETATM   27  H   UNL     1      44.989 -19.206   5.691  1.00  0.00     0.166 HD
HETATM   28  C   UNL     1      44.231 -18.296   3.916  1.00  0.00     0.098 A 
ENDBRANCH   1  19
TORSDOF 4
ENDMDL
MODEL 2
REMARK VINA RESULT:      -9.1      2.278      5.887
REMARK  4 active torsions:
REMARK  status: ('A' for Active; 'I' for Inactive)
REMARK    1  A    between atoms: C_10  and  C_11 
REMARK    2  A    between atoms: N_14  and  C_16 
REMARK    3  A    between atoms: C_16  and  C_17 
REMARK    4  A    between atoms: C_22  and  C_23 
ROOT
HETATM    1  C   UNL     1      42.275 -15.828   6.248  1.00  0.00     0.024 C 
HETATM    2  C   UNL     1      43.627 -15.783   6.988  1.00  0.00     0.037 C 
HETATM    3  C   UNL     1      44.625 -16.748   6.362  1.00  0.00     0.236 C 
HETATM    4  N   UNL     1      44.084 -18.159   6.415  1.00  0.00    -0.066 N 
HETATM    5  H   UNL     1      44.118 -18.444   7.407  1.00  0.00     0.280 HD
HETATM    6  C   UNL     1      42.693 -18.310   5.871  1.00  0.00     0.236 C 
HETATM    7  C   UNL     1      41.742 -17.253   6.417  1.00  0.00     0.037 C 
ENDROOT
BRANCH   4   8
HETATM    8  C   UNL     1      45.023 -19.145   5.717  1.00  0.00     0.294 C 
BRANCH   8   9
HETATM    9  C   UNL     1      44.556 -19.572   4.339  1.00  0.00     0.075 A 
HETATM   10  N   UNL     1      44.328 -18.555   3.457  1.00  0.00    -0.263 NA
HETATM   11  C   UNL     1      43.911 -18.894   2.214  1.00  0.00     0.117 A 
HETATM   12  C   UNL     1      43.714 -20.199   1.800  1.00  0.00     0.020 A 
HETATM   13  C   UNL     1      43.969 -21.224   2.705  1.00  0.00     0.020 A 
HETATM   14  C   UNL     1      44.409 -20.922   3.997  1.00  0.00     0.074 A 
BRANCH  14  15
HETATM   15  C   UNL     1      44.691 -22.008   4.998  1.00  0.00     0.419 C 
HETATM   16  F   UNL     1      44.074 -21.758   6.187  1.00  0.00    -0.166 F 
HETATM   17  F   UNL     1      44.199 -23.205   4.581  1.00  0.00    -0.166 F 
HETATM   18  F   UNL     1      46.002 -22.195   5.274  1.00  0.00    -0.166 F 
ENDBRANCH  14  15
ENDBRANCH   8   9
ENDBRANCH   4   8
BRANCH   1  19
HETATM   19  C   UNL     1      42.404 -15.312   4.821  1.00  0.00    -0.024 A 
HETATM   20  C   UNL     1      41.836 -15.788   3.580  1.00  0.00     0.018 A 
HETATM   21  C   UNL     1      42.389 -15.016   2.559  1.00  0.00     0.138 A 
HETATM   22  C   UNL     1      40.934 -16.788   3.162  1.00  0.00     0.017 A 
HETATM   23  N   UNL     1      42.219 -15.146   1.233  1.00  0.00    -0.242 NA
HETATM   24  N   UNL     1      43.156 -14.043   3.121  1.00  0.00    -0.350 N 
HETATM   25  C   UNL     1      41.371 -16.136   0.895  1.00  0.00     0.119 A 
HETATM   26  C   UNL     1      40.711 -16.960   1.793  1.00  0.00     0.020 A 
HETATM   27  H   UNL     1      43.628 -13.326   2.588  1.00  0.00     0.166 HD
HETATM   28  C   UNL     1      43.161 -14.196   4.480  1.00  0.00     0.098 A 
ENDBRANCH   1  19
TORSDOF 4
ENDMDL
MODEL 3
REMARK VINA RESULT:      -8.8      4.193      6.757
REMARK  4 active torsions:
REMARK  status: ('A' for Active; 'I' for Inactive)
REMARK    1  A    between atoms: C_10  and  C_11 
REMARK    2  A    between atoms: N_14  and  C_16 
REMARK    3  A    between atoms: C_16  and  C_17 
REMARK    4  A    between atoms: C_22  and  C_23 
ROOT
HETATM    1  C   UNL     1      40.228 -13.414   0.495  1.00  0.00     0.024 C 
HETATM    2  C   UNL     1      41.507 -13.501   1.351  1.00  0.00     0.037 C 
HETATM    3  C   UNL     1      41.890 -14.951   1.617  1.00  0.00     0.236 C 
HETATM    4  N   UNL     1      40.767 -15.659   2.340  1.00  0.00    -0.066 N 
HETATM    5  H   UNL     1      40.751 -15.273   3.298  1.00  0.00     0.280 HD
HETATM    6  C   UNL     1      39.421 -15.512   1.690  1.00  0.00     0.236 C 
HETATM    7  C   UNL     1      39.116 -14.066   1.319  1.00  0.00     0.037 C 
ENDROOT
BRANCH   4   8
HETATM    8  C   UNL     1      41.081 -17.142   2.547  1.00  0.00     0.294 C 
BRANCH   8   9
HETATM    9  C   UNL     1      42.079 -17.413   3.657  1.00  0.00     0.075 A 
HETATM   10  N   UNL     1      41.782 -16.844   4.862  1.00  0.00    -0.263 NA
HETATM   11  C   UNL     1      42.648 -17.063   5.880  1.00  0.00     0.117 A 
HETATM   12  C   UNL     1      43.794 -17.827   5.761  1.00  0.00     0.020 A 
HETATM   13  C   UNL     1      44.072 -18.416   4.532  1.00  0.00     0.020 A 
HETATM   14  C   UNL     1      43.202 -18.224   3.454  1.00  0.00     0.074 A 
BRANCH  14  15
HETATM   15  C   UNL     1      43.477 -18.844   2.113  1.00  0.00     0.419 C 
HETATM   16  F   UNL     1      44.598 -19.618   2.144  1.00  0.00    -0.166 F 
HETATM   17  F   UNL     1      42.471 -19.681   1.739  1.00  0.00    -0.166 F 
HETATM   18  F   UNL     1      43.646 -17.957   1.105  1.00  0.00    -0.166 F 
ENDBRANCH  14  15
ENDBRANCH   8   9
ENDBRANCH   4   8
BRANCH   1  19
HETATM   19  C   UNL     1      40.456 -13.971  -0.904  1.00  0.00    -0.024 A 
HETATM   20  C   UNL     1      39.525 -14.389  -1.928  1.00  0.00     0.018 A 
HETATM   21  C   UNL     1      40.281 -14.938  -2.963  1.00  0.00     0.138 A 
HETATM   22  C   UNL     1      38.129 -14.400  -2.125  1.00  0.00     0.017 A 
HETATM   23  N   UNL     1      39.846 -15.527  -4.089  1.00  0.00    -0.242 NA
HETATM   24  N   UNL     1      41.599 -14.768  -2.672  1.00  0.00    -0.350 N 
HETATM   25  C   UNL     1      38.504 -15.534  -4.207  1.00  0.00     0.119 A 
HETATM   26  C   UNL     1      37.622 -14.992  -3.286  1.00  0.00     0.020 A 
HETATM   27  H   UNL     1      42.348 -15.043  -3.292  1.00  0.00     0.166 HD
HETATM   28  C   UNL     1      41.722 -14.174  -1.446  1.00  0.00     0.098 A 
ENDBRANCH   1  19
TORSDOF 4
ENDMDL
MODEL 4
REMARK VINA RESULT:      -8.8      2.478      6.507
REMARK  4 active torsions:
REMARK  status: ('A' for Active; 'I' for Inactive)
REMARK    1  A    between atoms: C_10  and  C_11 
REMARK    2  A    between atoms: N_14  and  C_16 
REMARK    3  A    between atoms: C_16  and  C_17 
REMARK    4  A    between atoms: C_22  and  C_23 
ROOT
HETATM    1  C   UNL     1      40.744 -15.832   1.483  1.00  0.00     0.024 C 
HETATM    2  C   UNL     1      40.452 -16.948   2.507  1.00  0.00     0.037 C 
HETATM    3  C   UNL     1      41.725 -17.379   3.223  1.00  0.00     0.236 C 
HETATM    4  N   UNL     1      42.738 -17.885   2.221  1.00  0.00    -0.066 N 
HETATM    5  H   UNL     1      42.378 -18.791   1.880  1.00  0.00     0.280 HD
HETATM    6  C   UNL     1      42.992 -16.952   1.072  1.00  0.00     0.236 C 
HETATM    7  C   UNL     1      41.700 -16.435   0.452  1.00  0.00     0.037 C 
ENDROOT
BRANCH   4   8
HETATM    8  C   UNL     1      44.062 -18.246   2.897  1.00  0.00     0.294 C 
BRANCH   8   9
HETATM    9  C   UNL     1      44.240 -19.731   3.151  1.00  0.00     0.075 A 
HETATM   10  N   UNL     1      44.228 -20.520   2.038  1.00  0.00    -0.263 NA
HETATM   11  C   UNL     1      44.386 -21.853   2.221  1.00  0.00     0.117 A 
HETATM   12  C   UNL     1      44.563 -22.441   3.460  1.00  0.00     0.020 A 
HETATM   13  C   UNL     1      44.592 -21.620   4.583  1.00  0.00     0.020 A 
HETATM   14  C   UNL     1      44.441 -20.238   4.441  1.00  0.00     0.074 A 
BRANCH  14  15
HETATM   15  C   UNL     1      44.466 -19.325   5.635  1.00  0.00     0.419 C 
HETATM   16  F   UNL     1      44.482 -20.032   6.800  1.00  0.00    -0.166 F 
HETATM   17  F   UNL     1      45.596 -18.568   5.658  1.00  0.00    -0.166 F 
HETATM   18  F   UNL     1      43.418 -18.472   5.715  1.00  0.00    -0.166 F 
ENDBRANCH  14  15
ENDBRANCH   8   9
ENDBRANCH   4   8
BRANCH   1  19
HETATM   19  C   UNL     1      41.202 -14.552   2.171  1.00  0.00    -0.024 A 
HETATM   20  C   UNL     1      40.821 -13.960   3.434  1.00  0.00     0.018 A 
HETATM   21  C   UNL     1      41.456 -12.720   3.507  1.00  0.00     0.138 A 
HETATM   22  C   UNL     1      40.003 -14.288   4.534  1.00  0.00     0.017 A 
HETATM   23  N   UNL     1      41.338 -11.781   4.461  1.00  0.00    -0.242 NA
HETATM   24  N   UNL     1      42.276 -12.591   2.429  1.00  0.00    -0.350 N 
HETATM   25  C   UNL     1      40.521 -12.140   5.470  1.00  0.00     0.119 A 
HETATM   26  C   UNL     1      39.853 -13.350   5.561  1.00  0.00     0.020 A 
HETATM   27  H   UNL     1      42.880 -11.795   2.280  1.00  0.00     0.166 HD
HETATM   28  C   UNL     1      42.147 -13.690   1.626  1.00  0.00     0.098 A 
ENDBRANCH   1  19
TORSDOF 4
ENDMDL
MODEL 5
REMARK VINA RESULT:      -8.8      1.859      2.328
REMARK  4 active torsions:
REMARK  status: ('A' for Active; 'I' for Inactive)
REMARK    1  A    between atoms: C_10  and  C_11 
REMARK    2  A    between atoms: N_14  and  C_16 
REMARK    3  A    between atoms: C_16  and  C_17 
REMARK    4  A    between atoms: C_22  and  C_23 
ROOT
HETATM    1  C   UNL     1      43.200 -17.889   1.748  1.00  0.00     0.024 C 
HETATM    2  C   UNL     1      43.824 -16.480   1.778  1.00  0.00     0.037 C 
HETATM    3  C   UNL     1      43.495 -15.764   3.081  1.00  0.00     0.236 C 
HETATM    4  N   UNL     1      41.997 -15.640   3.241  1.00  0.00    -0.066 N 
HETATM    5  H   UNL     1      41.688 -14.945   2.543  1.00  0.00     0.280 HD
HETATM    6  C   UNL     1      41.247 -16.930   3.069  1.00  0.00     0.236 C 
HETATM    7  C   UNL     1      41.685 -17.689   1.823  1.00  0.00     0.037 C 
ENDROOT
BRANCH   4   8
HETATM    8  C   UNL     1      41.628 -15.003   4.582  1.00  0.00     0.294 C 
BRANCH   8   9
HETATM    9  C   UNL     1      42.239 -15.696   5.784  1.00  0.00     0.075 A 
HETATM   10  N   UNL     1      41.721 -16.924   6.078  1.00  0.00    -0.263 NA
HETATM   11  C   UNL     1      42.240 -17.577   7.145  1.00  0.00     0.117 A 
HETATM   12  C   UNL     1      43.258 -17.070   7.933  1.00  0.00     0.020 A 
HETATM   13  C   UNL     1      43.788 -15.826   7.609  1.00  0.00     0.020 A 
HETATM   14  C   UNL     1      43.288 -15.119   6.511  1.00  0.00     0.074 A 
BRANCH  14  15
HETATM   15  C   UNL     1      43.838 -13.771   6.138  1.00  0.00     0.419 C 
HETATM   16  F   UNL     1      42.911 -12.788   6.322  1.00  0.00    -0.166 F 
HETATM   17  F   UNL     1      44.889 -13.428   6.930  1.00  0.00    -0.166 F 
HETATM   18  F   UNL     1      44.260 -13.669   4.856  1.00  0.00    -0.166 F 
ENDBRANCH  14  15
ENDBRANCH   8   9
ENDBRANCH   4   8
BRANCH   1  19
HETATM   19  C   UNL     1      43.821 -18.795   2.804  1.00  0.00    -0.024 A 
HETATM   20  C   UNL     1      44.142 -20.204   2.782  1.00  0.00     0.018 A 
HETATM   21  C   UNL     1      44.574 -20.541   4.065  1.00  0.00     0.138 A 
HETATM   22  C   UNL     1      44.113 -21.265   1.855  1.00  0.00     0.017 A 
HETATM   23  N   UNL     1      44.904 -21.754   4.539  1.00  0.00    -0.242 NA
HETATM   24  N   UNL     1      44.639 -19.405   4.810  1.00  0.00    -0.350 N 
HETATM   25  C   UNL     1      44.827 -22.731   3.615  1.00  0.00     0.119 A 
HETATM   26  C   UNL     1      44.457 -22.548   2.293  1.00  0.00     0.020 A 
HETATM   27  H   UNL     1      44.969 -19.382   5.765  1.00  0.00     0.166 HD
HETATM   28  C   UNL     1      44.206 -18.345   4.063  1.00  0.00     0.098 A 
ENDBRANCH   1  19
TORSDOF 4
ENDMDL
MODEL 6
REMARK VINA RESULT:      -8.7      2.747      6.542
REMARK  4 active torsions:
REMARK  status: ('A' for Active; 'I' for Inactive)
REMARK    1  A    between atoms: C_10  and  C_11 
REMARK    2  A    between atoms: N_14  and  C_16 
REMARK    3  A    between atoms: C_16  and  C_17 
REMARK    4  A    between atoms: C_22  and  C_23 
ROOT
HETATM    1  C   UNL     1      40.269 -15.389   2.998  1.00  0.00     0.024 C 
HETATM    2  C   UNL     1      40.869 -15.812   4.354  1.00  0.00     0.037 C 
HETATM    3  C   UNL     1      42.310 -16.278   4.192  1.00  0.00     0.236 C 
HETATM    4  N   UNL     1      42.372 -17.451   3.241  1.00  0.00    -0.066 N 
HETATM    5  H   UNL     1      41.953 -18.252   3.741  1.00  0.00     0.280 HD
HETATM    6  C   UNL     1      41.673 -17.225   1.931  1.00  0.00     0.236 C 
HETATM    7  C   UNL     1      40.279 -16.639   2.116  1.00  0.00     0.037 C 
ENDROOT
BRANCH   4   8
HETATM    8  C   UNL     1      43.815 -17.891   2.987  1.00  0.00     0.294 C 
BRANCH   8   9
HETATM    9  C   UNL     1      44.008 -19.396   2.969  1.00  0.00     0.075 A 
HETATM   10  N   UNL     1      43.885 -19.986   1.744  1.00  0.00    -0.263 NA
HETATM   11  C   UNL     1      44.052 -21.329   1.683  1.00  0.00     0.117 A 
HETATM   12  C   UNL     1      44.341 -22.116   2.784  1.00  0.00     0.020 A 
HETATM   13  C   UNL     1      44.481 -21.497   4.021  1.00  0.00     0.020 A 
HETATM   14  C   UNL     1      44.326 -20.111   4.130  1.00  0.00     0.074 A 
BRANCH  14  15
HETATM   15  C   UNL     1      44.468 -19.413   5.453  1.00  0.00     0.419 C 
HETATM   16  F   UNL     1      43.300 -18.823   5.831  1.00  0.00    -0.166 F 
HETATM   17  F   UNL     1      44.765 -20.293   6.448  1.00  0.00    -0.166 F 
HETATM   18  F   UNL     1      45.417 -18.449   5.484  1.00  0.00    -0.166 F 
ENDBRANCH  14  15
ENDBRANCH   8   9
ENDBRANCH   4   8
BRANCH   1  19
HETATM   19  C   UNL     1      40.969 -14.156   2.441  1.00  0.00    -0.024 A 
HETATM   20  C   UNL     1      41.256 -13.753   1.082  1.00  0.00     0.018 A 
HETATM   21  C   UNL     1      42.033 -12.598   1.157  1.00  0.00     0.138 A 
HETATM   22  C   UNL     1      40.983 -14.217  -0.221  1.00  0.00     0.017 A 
HETATM   23  N   UNL     1      42.600 -11.911   0.152  1.00  0.00    -0.242 NA
HETATM   24  N   UNL     1      42.127 -12.226   2.462  1.00  0.00    -0.350 N 
HETATM   25  C   UNL     1      42.329 -12.418  -1.066  1.00  0.00     0.119 A 
HETATM   26  C   UNL     1      41.541 -13.533  -1.306  1.00  0.00     0.020 A 
HETATM   27  H   UNL     1      42.603 -11.389   2.771  1.00  0.00     0.166 HD
HETATM   28  C   UNL     1      41.480 -13.141   3.245  1.00  0.00     0.098 A 
ENDBRANCH   1  19
TORSDOF 4
ENDMDL
MODEL 7
REMARK VINA RESULT:      -8.6      3.733      6.669
REMARK  4 active torsions:
REMARK  status: ('A' for Active; 'I' for Inactive)
REMARK    1  A    between atoms: C_10  and  C_11 
REMARK    2  A    between atoms: N_14  and  C_16 
REMARK    3  A    between atoms: C_16  and  C_17 
REMARK    4  A    between atoms: C_22  and  C_23 
ROOT
HETATM    1  C   UNL     1      40.949 -13.265   1.930  1.00  0.00     0.024 C 
HETATM    2  C   UNL     1      42.411 -13.744   2.034  1.00  0.00     0.037 C 
HETATM    3  C   UNL     1      42.489 -15.265   2.042  1.00  0.00     0.236 C 
HETATM    4  N   UNL     1      41.707 -15.818   3.211  1.00  0.00    -0.066 N 
HETATM    5  H   UNL     1      42.248 -15.581   4.058  1.00  0.00     0.280 HD
HETATM    6  C   UNL     1      40.303 -15.296   3.321  1.00  0.00     0.236 C 
HETATM    7  C   UNL     1      40.239 -13.781   3.183  1.00  0.00     0.037 C 
ENDROOT
BRANCH   4   8
HETATM    8  C   UNL     1      41.691 -17.348   3.201  1.00  0.00     0.294 C 
BRANCH   8   9
HETATM    9  C   UNL     1      42.605 -17.982   4.233  1.00  0.00     0.075 A 
HETATM   10  N   UNL     1      42.356 -17.631   5.528  1.00  0.00    -0.263 NA
HETATM   11  C   UNL     1      43.150 -18.177   6.481  1.00  0.00     0.117 A 
HETATM   12  C   UNL     1      44.178 -19.062   6.209  1.00  0.00     0.020 A 
HETATM   13  C   UNL     1      44.405 -19.423   4.885  1.00  0.00     0.020 A 
HETATM   14  C   UNL     1      43.606 -18.891   3.869  1.00  0.00     0.074 A 
BRANCH  14  15
HETATM   15  C   UNL     1      43.829 -19.260   2.429  1.00  0.00     0.419 C 
HETATM   16  F   UNL     1      44.795 -20.213   2.305  1.00  0.00    -0.166 F 
HETATM   17  F   UNL     1      42.711 -19.805   1.878  1.00  0.00    -0.166 F 
HETATM   18  F   UNL     1      44.198 -18.229   1.633  1.00  0.00    -0.166 F 
ENDBRANCH  14  15
ENDBRANCH   8   9
ENDBRANCH   4   8
BRANCH   1  19
HETATM   19  C   UNL     1      40.333 -13.648   0.590  1.00  0.00    -0.024 A 
HETATM   20  C   UNL     1      40.862 -13.590  -0.754  1.00  0.00     0.018 A 
HETATM   21  C   UNL     1      39.822 -13.942  -1.614  1.00  0.00     0.138 A 
HETATM   22  C   UNL     1      42.083 -13.267  -1.380  1.00  0.00     0.017 A 
HETATM   23  N   UNL     1      39.821 -13.952  -2.957  1.00  0.00    -0.242 NA
HETATM   24  N   UNL     1      38.750 -14.315  -0.864  1.00  0.00    -0.350 N 
HETATM   25  C   UNL     1      41.005 -13.607  -3.498  1.00  0.00     0.119 A 
HETATM   26  C   UNL     1      42.141 -13.273  -2.778  1.00  0.00     0.020 A 
HETATM   27  H   UNL     1      37.885 -14.657  -1.258  1.00  0.00     0.166 HD
HETATM   28  C   UNL     1      39.046 -14.160   0.462  1.00  0.00     0.098 A 
ENDBRANCH   1  19
TORSDOF 4
ENDMDL
MODEL 8
REMARK VINA RESULT:      -8.6      3.358      6.599
REMARK  4 active torsions:
REMARK  status: ('A' for Active; 'I' for Inactive)
REMARK    1  A    between atoms: C_10  and  C_11 
REMARK    2  A    between atoms: N_14  and  C_16 
REMARK    3  A    between atoms: C_16  and  C_17 
REMARK    4  A    between atoms: C_22  and  C_23 
ROOT
HETATM    1  C   UNL     1      40.057 -14.705   2.077  1.00  0.00     0.024 C 
HETATM    2  C   UNL     1      40.218 -14.935   3.594  1.00  0.00     0.037 C 
HETATM    3  C   UNL     1      41.666 -15.252   3.947  1.00  0.00     0.236 C 
HETATM    4  N   UNL     1      42.120 -16.491   3.211  1.00  0.00    -0.066 N 
HETATM    5  H   UNL     1      41.625 -17.285   3.648  1.00  0.00     0.280 HD
HETATM    6  C   UNL     1      41.865 -16.462   1.731  1.00  0.00     0.236 C 
HETATM    7  C   UNL     1      40.445 -16.020   1.400  1.00  0.00     0.037 C 
ENDROOT
BRANCH   4   8
HETATM    8  C   UNL     1      43.597 -16.790   3.476  1.00  0.00     0.294 C 
BRANCH   8   9
HETATM    9  C   UNL     1      43.832 -17.957   4.415  1.00  0.00     0.075 A 
HETATM   10  N   UNL     1      43.814 -17.651   5.745  1.00  0.00    -0.263 NA
HETATM   11  C   UNL     1      44.019 -18.667   6.618  1.00  0.00     0.117 A 
HETATM   12  C   UNL     1      44.236 -19.977   6.232  1.00  0.00     0.020 A 
HETATM   13  C   UNL     1      44.233 -20.275   4.874  1.00  0.00     0.020 A 
HETATM   14  C   UNL     1      44.017 -19.260   3.936  1.00  0.00     0.074 A 
BRANCH  14  15
HETATM   15  C   UNL     1      44.011 -19.551   2.461  1.00  0.00     0.419 C 
HETATM   16  F   UNL     1      44.684 -18.593   1.764  1.00  0.00    -0.166 F 
HETATM   17  F   UNL     1      44.654 -20.717   2.184  1.00  0.00    -0.166 F 
HETATM   18  F   UNL     1      42.779 -19.639   1.909  1.00  0.00    -0.166 F 
ENDBRANCH  14  15
ENDBRANCH   8   9
ENDBRANCH   4   8
BRANCH   1  19
HETATM   19  C   UNL     1      40.803 -13.457   1.623  1.00  0.00    -0.024 A 
HETATM   20  C   UNL     1      41.415 -13.120   0.357  1.00  0.00     0.018 A 
HETATM   21  C   UNL     1      42.071 -11.902   0.536  1.00  0.00     0.138 A 
HETATM   22  C   UNL     1      41.527 -13.685  -0.929  1.00  0.00     0.017 A 
HETATM   23  N   UNL     1      42.842 -11.237  -0.340  1.00  0.00    -0.242 NA
HETATM   24  N   UNL     1      41.792 -11.442   1.785  1.00  0.00    -0.350 N 
HETATM   25  C   UNL     1      42.936 -11.841  -1.540  1.00  0.00     0.119 A 
HETATM   26  C   UNL     1      42.310 -13.029  -1.884  1.00  0.00     0.020 A 
HETATM   27  H   UNL     1      42.117 -10.552   2.137  1.00  0.00     0.166 HD
HETATM   28  C   UNL     1      41.018 -12.355   2.445  1.00  0.00     0.098 A 
ENDBRANCH   1  19
TORSDOF 4
ENDMDL
MODEL 9
REMARK VINA RESULT:      -8.5      3.828      5.833
REMARK  4 active torsions:
REMARK  status: ('A' for Active; 'I' for Inactive)
REMARK    1  A    between atoms: C_10  and  C_11 
REMARK    2  A    between atoms: N_14  and  C_16 
REMARK    3  A    between atoms: C_16  and  C_17 
REMARK    4  A    between atoms: C_22  and  C_23 
ROOT
HETATM    1  C   UNL     1      42.921 -18.129   2.490  1.00  0.00     0.024 C 
HETATM    2  C   UNL     1      43.852 -17.037   1.924  1.00  0.00     0.037 C 
HETATM    3  C   UNL     1      43.139 -15.693   1.859  1.00  0.00     0.236 C 
HETATM    4  N   UNL     1      41.914 -15.797   0.979  1.00  0.00    -0.066 N 
HETATM    5  H   UNL     1      42.261 -15.893   0.011  1.00  0.00     0.280 HD
HETATM    6  C   UNL     1      40.999 -16.936   1.325  1.00  0.00     0.236 C 
HETATM    7  C   UNL     1      41.753 -18.247   1.509  1.00  0.00     0.037 C 
ENDROOT
BRANCH   4   8
HETATM    8  C   UNL     1      41.126 -14.487   0.960  1.00  0.00     0.294 C 
BRANCH   8   9
HETATM    9  C   UNL     1      40.306 -14.278  -0.299  1.00  0.00     0.075 A 
HETATM   10  N   UNL     1      41.010 -14.316  -1.469  1.00  0.00    -0.263 NA
HETATM   11  C   UNL     1      40.314 -14.136  -2.617  1.00  0.00     0.117 A 
HETATM   12  C   UNL     1      38.948 -13.924  -2.661  1.00  0.00     0.020 A 
HETATM   13  C   UNL     1      38.243 -13.908  -1.462  1.00  0.00     0.020 A 
HETATM   14  C   UNL     1      38.918 -14.098  -0.252  1.00  0.00     0.074 A 
BRANCH  14  15
HETATM   15  C   UNL     1      38.184 -14.083   1.060  1.00  0.00     0.419 C 
HETATM   16  F   UNL     1      36.845 -13.909   0.877  1.00  0.00    -0.166 F 
HETATM   17  F   UNL     1      38.308 -15.271   1.710  1.00  0.00    -0.166 F 
HETATM   18  F   UNL     1      38.587 -13.118   1.920  1.00  0.00    -0.166 F 
ENDBRANCH  14  15
ENDBRANCH   8   9
ENDBRANCH   4   8
BRANCH   1  19
HETATM   19  C   UNL     1      42.566 -17.857   3.946  1.00  0.00    -0.024 A 
HETATM   20  C   UNL     1      43.356 -17.946   5.153  1.00  0.00     0.018 A 
HETATM   21  C   UNL     1      42.492 -17.709   6.221  1.00  0.00     0.138 A 
HETATM   22  C   UNL     1      44.694 -18.217   5.505  1.00  0.00     0.017 A 
HETATM   23  N   UNL     1      42.760 -17.766   7.537  1.00  0.00    -0.242 NA
HETATM   24  N   UNL     1      41.272 -17.373   5.722  1.00  0.00    -0.350 N 
HETATM   25  C   UNL     1      44.046 -18.058   7.810  1.00  0.00     0.119 A 
HETATM   26  C   UNL     1      45.032 -18.277   6.861  1.00  0.00     0.020 A 
HETATM   27  H   UNL     1      40.486 -17.110   6.300  1.00  0.00     0.166 HD
HETATM   28  C   UNL     1      41.304 -17.440   4.357  1.00  0.00     0.098 A 
ENDBRANCH   1  19
TORSDOF 4
ENDMDL
MODEL 10
REMARK VINA RESULT:      -8.5      2.813      4.318
REMARK  4 active torsions:
REMARK  status: ('A' for Active; 'I' for Inactive)
REMARK    1  A    between atoms: C_10  and  C_11 
REMARK    2  A    between atoms: N_14  and  C_16 
REMARK    3  A    between atoms: C_16  and  C_17 
REMARK    4  A    between atoms: C_22  and  C_23 
ROOT
HETATM    1  C   UNL     1      43.927 -16.989   6.501  1.00  0.00     0.024 C 
HETATM    2  C   UNL     1      42.698 -17.300   7.380  1.00  0.00     0.037 C 
HETATM    3  C   UNL     1      41.405 -16.959   6.652  1.00  0.00     0.236 C 
HETATM    4  N   UNL     1      41.388 -15.492   6.285  1.00  0.00    -0.066 N 
HETATM    5  H   UNL     1      41.267 -14.974   7.170  1.00  0.00     0.280 HD
HETATM    6  C   UNL     1      42.617 -15.020   5.562  1.00  0.00     0.236 C 
HETATM    7  C   UNL     1      43.899 -15.482   6.243  1.00  0.00     0.037 C 
ENDROOT
BRANCH   4   8
HETATM    8  C   UNL     1      40.141 -15.132   5.475  1.00  0.00     0.294 C 
BRANCH   8   9
HETATM    9  C   UNL     1      39.895 -13.641   5.351  1.00  0.00     0.075 A 
HETATM   10  N   UNL     1      39.806 -12.962   6.532  1.00  0.00    -0.263 NA
HETATM   11  C   UNL     1      39.589 -11.627   6.465  1.00  0.00     0.117 A 
HETATM   12  C   UNL     1      39.460 -10.930   5.277  1.00  0.00     0.020 A 
HETATM   13  C   UNL     1      39.572 -11.633   4.082  1.00  0.00     0.020 A 
HETATM   14  C   UNL     1      39.805 -13.012   4.103  1.00  0.00     0.074 A 
BRANCH  14  15
HETATM   15  C   UNL     1      39.927 -13.800   2.829  1.00  0.00     0.419 C 
HETATM   16  F   UNL     1      39.709 -13.015   1.737  1.00  0.00    -0.166 F 
HETATM   17  F   UNL     1      41.185 -14.295   2.672  1.00  0.00    -0.166 F 
HETATM   18  F   UNL     1      39.076 -14.847   2.729  1.00  0.00    -0.166 F 
ENDBRANCH  14  15
ENDBRANCH   8   9
ENDBRANCH   4   8
BRANCH   1  19
HETATM   19  C   UNL     1      43.975 -17.891   5.275  1.00  0.00    -0.024 A 
HETATM   20  C   UNL     1      44.181 -19.317   5.147  1.00  0.00     0.018 A 
HETATM   21  C   UNL     1      44.258 -19.593   3.782  1.00  0.00     0.138 A 
HETATM   22  C   UNL     1      44.336 -20.428   6.000  1.00  0.00     0.017 A 
HETATM   23  N   UNL     1      44.520 -20.769   3.186  1.00  0.00    -0.242 NA
HETATM   24  N   UNL     1      43.996 -18.449   3.094  1.00  0.00    -0.350 N 
HETATM   25  C   UNL     1      44.688 -21.785   4.053  1.00  0.00     0.119 A 
HETATM   26  C   UNL     1      44.601 -21.678   5.432  1.00  0.00     0.020 A 
HETATM   27  H   UNL     1      43.948 -18.403   2.086  1.00  0.00     0.166 HD
HETATM   28  C   UNL     1      43.807 -17.421   3.976  1.00  0.00     0.098 A 
ENDBRANCH   1  19
TORSDOF 4
ENDMDL
