MODEL 1
REMARK VINA RESULT:     -10.8      0.000      0.000
REMARK  4 active torsions:
REMARK  status: ('A' for Active; 'I' for Inactive)
REMARK    1  A    between atoms: C_2  and  C_3 
REMARK    2  A    between atoms: C_11  and  N_12 
REMARK       I    between atoms: N_12  and  C_13 
REMARK    3  A    between atoms: C_13  and  C_14 
REMARK    4  A    between atoms: C_16  and  C_17 
ROOT
HETATM    1  C   UNL     1      44.138 -13.992   7.030  1.00  0.00     0.032 A 
HETATM    2  C   UNL     1      44.296 -15.387   7.010  1.00  0.00     0.029 A 
HETATM    3  C   UNL     1      43.630 -16.188   6.064  1.00  0.00    -0.024 A 
HETATM    4  C   UNL     1      42.794 -15.539   5.137  1.00  0.00     0.012 A 
HETATM    5  C   UNL     1      42.633 -14.150   5.150  1.00  0.00     0.002 A 
HETATM    6  C   UNL     1      43.309 -13.375   6.091  1.00  0.00     0.017 A 
ENDROOT
BRANCH   1   7
HETATM    7  C   UNL     1      44.919 -13.211   8.030  1.00  0.00     0.252 C 
HETATM    8  N   UNL     1      44.265 -12.874   9.199  1.00  0.00    -0.352 N 
HETATM    9  H   UNL     1      43.411 -13.366   9.425  1.00  0.00     0.163 HD
HETATM   10  O   UNL     1      46.086 -12.915   7.797  1.00  0.00    -0.268 OA
BRANCH   8  11
HETATM   11  C   UNL     1      44.947 -12.161  10.273  1.00  0.00     0.084 C 
HETATM   12  C   UNL     1      44.886 -10.652  10.048  1.00  0.00     0.026 C 
HETATM   13  C   UNL     1      43.491 -10.065  10.275  1.00  0.00     0.016 C 
HETATM   14  C   UNL     1      42.842 -10.419  11.646  1.00  0.00    -0.017 C 
HETATM   15  C   UNL     1      43.577  -9.664  12.777  1.00  0.00     0.020 C 
HETATM   16  C   UNL     1      42.972 -11.957  11.868  1.00  0.00     0.016 C 
HETATM   17  C   UNL     1      44.375 -12.525  11.642  1.00  0.00     0.026 C 
BRANCH  14  18
HETATM   18  C   UNL     1      41.359  -9.969  11.705  1.00  0.00    -0.050 A 
HETATM   19  C   UNL     1      40.461 -10.244  10.656  1.00  0.00     0.008 A 
HETATM   20  C   UNL     1      39.129  -9.817  10.701  1.00  0.00     0.001 A 
HETATM   21  C   UNL     1      38.663  -9.090  11.791  1.00  0.00     0.000 A 
HETATM   22  C   UNL     1      39.534  -8.783  12.830  1.00  0.00     0.001 A 
HETATM   23  C   UNL     1      40.865  -9.210  12.783  1.00  0.00     0.008 A 
ENDBRANCH  14  18
ENDBRANCH   8  11
ENDBRANCH   1   7
BRANCH   3  24
HETATM   24  C   UNL     1      43.819 -17.652   6.034  1.00  0.00    -0.006 A 
HETATM   25  C   UNL     1      43.712 -18.437   7.208  1.00  0.00     0.131 A 
HETATM   26  N   UNL     1      43.856 -19.790   7.283  1.00  0.00    -0.240 NA
HETATM   27  C   UNL     1      44.134 -20.361   6.113  1.00  0.00     0.158 A 
HETATM   28  C   UNL     1      44.271 -19.696   4.900  1.00  0.00     0.085 A 
HETATM   29  N   UNL     1      44.335 -21.712   5.882  1.00  0.00    -0.291 N 
HETATM   30  N   UNL     1      44.567 -20.643   3.916  1.00  0.00    -0.300 N 
HETATM   31  C   UNL     1      44.112 -18.331   4.836  1.00  0.00     0.047 A 
HETATM   32  C   UNL     1      44.789 -20.364   2.528  1.00  0.00     0.161 C 
HETATM   33  C   UNL     1      44.607 -21.913   4.524  1.00  0.00     0.328 A 
HETATM   34  O   UNL     1      44.830 -22.988   3.993  1.00  0.00    -0.247 OA
HETATM   35  H   UNL     1      44.293 -22.430   6.583  1.00  0.00     0.172 HD
ENDBRANCH   3  24
TORSDOF 4
ENDMDL
MODEL 2
REMARK VINA RESULT:     -10.1      5.722      9.761
REMARK  4 active torsions:
REMARK  status: ('A' for Active; 'I' for Inactive)
REMARK    1  A    between atoms: C_2  and  C_3 
REMARK    2  A    between atoms: C_11  and  N_12 
REMARK       I    between atoms: N_12  and  C_13 
REMARK    3  A    between atoms: C_13  and  C_14 
REMARK    4  A    between atoms: C_16  and  C_17 
ROOT
HETATM    1  C   UNL     1      40.762 -12.662   3.595  1.00  0.00     0.032 A 
HETATM    2  C   UNL     1      40.690 -13.515   2.482  1.00  0.00     0.029 A 
HETATM    3  C   UNL     1      40.469 -13.015   1.186  1.00  0.00    -0.024 A 
HETATM    4  C   UNL     1      40.318 -11.624   1.043  1.00  0.00     0.012 A 
HETATM    5  C   UNL     1      40.391 -10.768   2.147  1.00  0.00     0.002 A 
HETATM    6  C   UNL     1      40.619 -11.284   3.421  1.00  0.00     0.017 A 
ENDROOT
BRANCH   1   7
HETATM    7  C   UNL     1      41.051 -13.266   4.926  1.00  0.00     0.252 C 
HETATM    8  N   UNL     1      41.220 -14.636   4.959  1.00  0.00    -0.352 N 
HETATM    9  H   UNL     1      41.387 -15.116   4.085  1.00  0.00     0.163 HD
HETATM   10  O   UNL     1      41.141 -12.547   5.916  1.00  0.00    -0.268 OA
BRANCH   8  11
HETATM   11  C   UNL     1      41.564 -15.329   6.196  1.00  0.00     0.084 C 
HETATM   12  C   UNL     1      40.836 -16.669   6.289  1.00  0.00     0.026 C 
HETATM   13  C   UNL     1      41.379 -17.718   5.315  1.00  0.00     0.016 C 
HETATM   14  C   UNL     1      42.919 -17.949   5.387  1.00  0.00    -0.017 C 
HETATM   15  C   UNL     1      43.272 -18.678   6.704  1.00  0.00     0.020 C 
HETATM   16  C   UNL     1      43.626 -16.560   5.347  1.00  0.00     0.016 C 
HETATM   17  C   UNL     1      43.072 -15.526   6.331  1.00  0.00     0.026 C 
BRANCH  14  18
HETATM   18  C   UNL     1      43.410 -18.860   4.232  1.00  0.00    -0.050 A 
HETATM   19  C   UNL     1      42.887 -18.749   2.930  1.00  0.00     0.008 A 
HETATM   20  C   UNL     1      43.315 -19.588   1.894  1.00  0.00     0.001 A 
HETATM   21  C   UNL     1      44.268 -20.570   2.138  1.00  0.00     0.000 A 
HETATM   22  C   UNL     1      44.785 -20.718   3.420  1.00  0.00     0.001 A 
HETATM   23  C   UNL     1      44.355 -19.880   4.454  1.00  0.00     0.008 A 
ENDBRANCH  14  18
ENDBRANCH   8  11
ENDBRANCH   1   7
BRANCH   3  24
HETATM   24  C   UNL     1      40.417 -13.917   0.018  1.00  0.00    -0.006 A 
HETATM   25  C   UNL     1      41.311 -15.007  -0.117  1.00  0.00     0.131 A 
HETATM   26  N   UNL     1      41.336 -15.899  -1.146  1.00  0.00    -0.240 NA
HETATM   27  C   UNL     1      40.419 -15.660  -2.081  1.00  0.00     0.158 A 
HETATM   28  C   UNL     1      39.497 -14.620  -2.062  1.00  0.00     0.085 A 
HETATM   29  N   UNL     1      40.209 -16.393  -3.238  1.00  0.00    -0.291 N 
HETATM   30  N   UNL     1      38.718 -14.708  -3.220  1.00  0.00    -0.300 N 
HETATM   31  C   UNL     1      39.475 -13.731  -1.012  1.00  0.00     0.047 A 
HETATM   32  C   UNL     1      37.655 -13.817  -3.581  1.00  0.00     0.161 C 
HETATM   33  C   UNL     1      39.158 -15.821  -3.963  1.00  0.00     0.328 A 
HETATM   34  O   UNL     1      38.723 -16.226  -5.027  1.00  0.00    -0.247 OA
HETATM   35  H   UNL     1      40.733 -17.205  -3.509  1.00  0.00     0.172 HD
ENDBRANCH   3  24
TORSDOF 4
ENDMDL
MODEL 3
REMARK VINA RESULT:     -10.1      8.780     12.711
REMARK  4 active torsions:
REMARK  status: ('A' for Active; 'I' for Inactive)
REMARK    1  A    between atoms: C_2  and  C_3 
REMARK    2  A    between atoms: C_11  and  N_12 
REMARK       I    between atoms: N_12  and  C_13 
REMARK    3  A    between atoms: C_13  and  C_14 
REMARK    4  A    between atoms: C_16  and  C_17 
ROOT
HETATM    1  C   UNL     1      40.306 -14.590  -0.878  1.00  0.00     0.032 A 
HETATM    2  C   UNL     1      39.133 -14.131  -1.497  1.00  0.00     0.029 A 
HETATM    3  C   UNL     1      38.874 -14.379  -2.858  1.00  0.00    -0.024 A 
HETATM    4  C   UNL     1      39.839 -15.103  -3.581  1.00  0.00     0.012 A 
HETATM    5  C   UNL     1      41.009 -15.567  -2.970  1.00  0.00     0.002 A 
HETATM    6  C   UNL     1      41.241 -15.317  -1.618  1.00  0.00     0.017 A 
ENDROOT
BRANCH   1   7
HETATM    7  C   UNL     1      40.479 -14.331   0.579  1.00  0.00     0.252 C 
HETATM    8  N   UNL     1      41.401 -15.118   1.241  1.00  0.00    -0.352 N 
HETATM    9  H   UNL     1      42.071 -15.635   0.687  1.00  0.00     0.163 HD
HETATM   10  O   UNL     1      39.827 -13.446   1.123  1.00  0.00    -0.268 OA
BRANCH   8  11
HETATM   11  C   UNL     1      41.696 -14.915   2.655  1.00  0.00     0.084 C 
HETATM   12  C   UNL     1      40.947 -15.929   3.518  1.00  0.00     0.026 C 
HETATM   13  C   UNL     1      41.505 -17.349   3.400  1.00  0.00     0.016 C 
HETATM   14  C   UNL     1      43.038 -17.478   3.648  1.00  0.00    -0.017 C 
HETATM   15  C   UNL     1      43.339 -17.254   5.148  1.00  0.00     0.020 C 
HETATM   16  C   UNL     1      43.765 -16.393   2.797  1.00  0.00     0.016 C 
HETATM   17  C   UNL     1      43.196 -14.978   2.932  1.00  0.00     0.026 C 
BRANCH  14  18
HETATM   18  C   UNL     1      43.552 -18.899   3.301  1.00  0.00    -0.050 A 
HETATM   19  C   UNL     1      43.184 -19.546   2.105  1.00  0.00     0.008 A 
HETATM   20  C   UNL     1      43.631 -20.838   1.804  1.00  0.00     0.001 A 
HETATM   21  C   UNL     1      44.447 -21.522   2.698  1.00  0.00     0.000 A 
HETATM   22  C   UNL     1      44.806 -20.917   3.897  1.00  0.00     0.001 A 
HETATM   23  C   UNL     1      44.358 -19.627   4.197  1.00  0.00     0.008 A 
ENDBRANCH  14  18
ENDBRANCH   8  11
ENDBRANCH   1   7
BRANCH   3  24
HETATM   24  C   UNL     1      37.628 -13.911  -3.497  1.00  0.00    -0.006 A 
HETATM   25  C   UNL     1      36.840 -14.770  -4.302  1.00  0.00     0.131 A 
HETATM   26  N   UNL     1      35.673 -14.439  -4.923  1.00  0.00    -0.240 NA
HETATM   27  C   UNL     1      35.303 -13.176  -4.721  1.00  0.00     0.158 A 
HETATM   28  C   UNL     1      35.996 -12.242  -3.960  1.00  0.00     0.085 A 
HETATM   29  N   UNL     1      34.170 -12.559  -5.225  1.00  0.00    -0.291 N 
HETATM   30  N   UNL     1      35.288 -11.037  -4.002  1.00  0.00    -0.300 N 
HETATM   31  C   UNL     1      37.168 -12.591  -3.331  1.00  0.00     0.047 A 
HETATM   32  C   UNL     1      35.671  -9.820  -3.348  1.00  0.00     0.161 C 
HETATM   33  C   UNL     1      34.138 -11.228  -4.792  1.00  0.00     0.328 A 
HETATM   34  O   UNL     1      33.272 -10.413  -5.059  1.00  0.00    -0.247 OA
HETATM   35  H   UNL     1      33.483 -13.001  -5.809  1.00  0.00     0.172 HD
ENDBRANCH   3  24
TORSDOF 4
ENDMDL
MODEL 4
REMARK VINA RESULT:      -9.8      2.095      3.565
REMARK  4 active torsions:
REMARK  status: ('A' for Active; 'I' for Inactive)
REMARK    1  A    between atoms: C_2  and  C_3 
REMARK    2  A    between atoms: C_11  and  N_12 
REMARK       I    between atoms: N_12  and  C_13 
REMARK    3  A    between atoms: C_13  and  C_14 
REMARK    4  A    between atoms: C_16  and  C_17 
ROOT
HETATM    1  C   UNL     1      42.839 -13.877   5.992  1.00  0.00     0.032 A 
HETATM    2  C   UNL     1      42.765 -14.948   5.086  1.00  0.00     0.029 A 
HETATM    3  C   UNL     1      43.624 -16.058   5.188  1.00  0.00    -0.024 A 
HETATM    4  C   UNL     1      44.567 -16.055   6.232  1.00  0.00     0.012 A 
HETATM    5  C   UNL     1      44.646 -14.993   7.139  1.00  0.00     0.002 A 
HETATM    6  C   UNL     1      43.779 -13.908   7.025  1.00  0.00     0.017 A 
ENDROOT
BRANCH   1   7
HETATM    7  C   UNL     1      41.858 -12.765   5.847  1.00  0.00     0.252 C 
HETATM    8  N   UNL     1      41.390 -12.198   7.015  1.00  0.00    -0.352 N 
HETATM    9  H   UNL     1      41.900 -12.378   7.870  1.00  0.00     0.163 HD
HETATM   10  O   UNL     1      41.521 -12.391   4.728  1.00  0.00    -0.268 OA
BRANCH   8  11
HETATM   11  C   UNL     1      40.472 -11.064   6.995  1.00  0.00     0.084 C 
HETATM   12  C   UNL     1      39.453 -11.170   8.127  1.00  0.00     0.026 C 
HETATM   13  C   UNL     1      40.058 -10.911   9.509  1.00  0.00     0.016 C 
HETATM   14  C   UNL     1      40.854  -9.577   9.640  1.00  0.00    -0.017 C 
HETATM   15  C   UNL     1      39.872  -8.384   9.610  1.00  0.00     0.020 C 
HETATM   16  C   UNL     1      41.843  -9.476   8.439  1.00  0.00     0.016 C 
HETATM   17  C   UNL     1      41.218  -9.734   7.066  1.00  0.00     0.026 C 
BRANCH  14  18
HETATM   18  C   UNL     1      41.607  -9.496  10.993  1.00  0.00    -0.050 A 
HETATM   19  C   UNL     1      42.948  -9.906  11.118  1.00  0.00     0.008 A 
HETATM   20  C   UNL     1      43.619  -9.854  12.346  1.00  0.00     0.001 A 
HETATM   21  C   UNL     1      42.961  -9.404  13.484  1.00  0.00     0.000 A 
HETATM   22  C   UNL     1      41.629  -9.016  13.396  1.00  0.00     0.001 A 
HETATM   23  C   UNL     1      40.960  -9.069  12.169  1.00  0.00     0.008 A 
ENDBRANCH  14  18
ENDBRANCH   8  11
ENDBRANCH   1   7
BRANCH   3  24
HETATM   24  C   UNL     1      43.524 -17.190   4.246  1.00  0.00    -0.006 A 
HETATM   25  C   UNL     1      42.822 -17.076   3.022  1.00  0.00     0.131 A 
HETATM   26  N   UNL     1      42.682 -18.054   2.083  1.00  0.00    -0.240 NA
HETATM   27  C   UNL     1      43.276 -19.199   2.417  1.00  0.00     0.158 A 
HETATM   28  C   UNL     1      43.983 -19.431   3.590  1.00  0.00     0.085 A 
HETATM   29  N   UNL     1      43.301 -20.363   1.667  1.00  0.00    -0.291 N 
HETATM   30  N   UNL     1      44.441 -20.752   3.566  1.00  0.00    -0.300 N 
HETATM   31  C   UNL     1      44.125 -18.432   4.525  1.00  0.00     0.047 A 
HETATM   32  C   UNL     1      45.211 -21.388   4.595  1.00  0.00     0.161 C 
HETATM   33  C   UNL     1      44.019 -21.343   2.359  1.00  0.00     0.328 A 
HETATM   34  O   UNL     1      44.227 -22.481   1.974  1.00  0.00    -0.247 OA
HETATM   35  H   UNL     1      42.869 -20.480   0.768  1.00  0.00     0.172 HD
ENDBRANCH   3  24
TORSDOF 4
ENDMDL
MODEL 5
REMARK VINA RESULT:      -9.8      7.031     11.280
REMARK  4 active torsions:
REMARK  status: ('A' for Active; 'I' for Inactive)
REMARK    1  A    between atoms: C_2  and  C_3 
REMARK    2  A    between atoms: C_11  and  N_12 
REMARK       I    between atoms: N_12  and  C_13 
REMARK    3  A    between atoms: C_13  and  C_14 
REMARK    4  A    between atoms: C_16  and  C_17 
ROOT
HETATM    1  C   UNL     1      39.866 -13.902   1.905  1.00  0.00     0.032 A 
HETATM    2  C   UNL     1      40.573 -13.431   0.787  1.00  0.00     0.029 A 
HETATM    3  C   UNL     1      39.964 -13.321  -0.476  1.00  0.00    -0.024 A 
HETATM    4  C   UNL     1      38.615 -13.705  -0.581  1.00  0.00     0.012 A 
HETATM    5  C   UNL     1      37.902 -14.172   0.528  1.00  0.00     0.002 A 
HETATM    6  C   UNL     1      38.524 -14.266   1.772  1.00  0.00     0.017 A 
ENDROOT
BRANCH   1   7
HETATM    7  C   UNL     1      40.569 -13.939   3.218  1.00  0.00     0.252 C 
HETATM    8  N   UNL     1      40.820 -15.189   3.749  1.00  0.00    -0.352 N 
HETATM    9  H   UNL     1      40.749 -15.990   3.136  1.00  0.00     0.163 HD
HETATM   10  O   UNL     1      40.905 -12.891   3.760  1.00  0.00    -0.268 OA
BRANCH   8  11
HETATM   11  C   UNL     1      41.552 -15.349   5.001  1.00  0.00     0.084 C 
HETATM   12  C   UNL     1      41.145 -16.640   5.708  1.00  0.00     0.026 C 
HETATM   13  C   UNL     1      41.665 -17.899   5.010  1.00  0.00     0.016 C 
HETATM   14  C   UNL     1      43.199 -17.912   4.732  1.00  0.00    -0.017 C 
HETATM   15  C   UNL     1      43.964 -18.076   6.065  1.00  0.00     0.020 C 
HETATM   16  C   UNL     1      43.588 -16.559   4.063  1.00  0.00     0.016 C 
HETATM   17  C   UNL     1      43.063 -15.312   4.777  1.00  0.00     0.026 C 
BRANCH  14  18
HETATM   18  C   UNL     1      43.603 -19.114   3.840  1.00  0.00    -0.050 A 
HETATM   19  C   UNL     1      43.082 -19.279   2.542  1.00  0.00     0.008 A 
HETATM   20  C   UNL     1      43.431 -20.378   1.747  1.00  0.00     0.001 A 
HETATM   21  C   UNL     1      44.299 -21.348   2.235  1.00  0.00     0.000 A 
HETATM   22  C   UNL     1      44.809 -21.223   3.522  1.00  0.00     0.001 A 
HETATM   23  C   UNL     1      44.459 -20.126   4.316  1.00  0.00     0.008 A 
ENDBRANCH  14  18
ENDBRANCH   8  11
ENDBRANCH   1   7
BRANCH   3  24
HETATM   24  C   UNL     1      40.708 -12.803  -1.641  1.00  0.00    -0.006 A 
HETATM   25  C   UNL     1      42.077 -13.107  -1.841  1.00  0.00     0.131 A 
HETATM   26  N   UNL     1      42.846 -12.690  -2.885  1.00  0.00    -0.240 NA
HETATM   27  C   UNL     1      42.192 -11.921  -3.753  1.00  0.00     0.158 A 
HETATM   28  C   UNL     1      40.857 -11.549  -3.659  1.00  0.00     0.085 A 
HETATM   29  N   UNL     1      42.712 -11.351  -4.904  1.00  0.00    -0.291 N 
HETATM   30  N   UNL     1      40.553 -10.737  -4.756  1.00  0.00    -0.300 N 
HETATM   31  C   UNL     1      40.088 -11.985  -2.605  1.00  0.00     0.047 A 
HETATM   32  C   UNL     1      39.277 -10.142  -5.027  1.00  0.00     0.161 C 
HETATM   33  C   UNL     1      41.713 -10.611  -5.545  1.00  0.00     0.328 A 
HETATM   34  O   UNL     1      41.843  -9.986  -6.583  1.00  0.00    -0.247 OA
HETATM   35  H   UNL     1      43.658 -11.456  -5.223  1.00  0.00     0.172 HD
ENDBRANCH   3  24
TORSDOF 4
ENDMDL
MODEL 6
REMARK VINA RESULT:      -9.6      5.125      9.130
REMARK  4 active torsions:
REMARK  status: ('A' for Active; 'I' for Inactive)
REMARK    1  A    between atoms: C_2  and  C_3 
REMARK    2  A    between atoms: C_11  and  N_12 
REMARK       I    between atoms: N_12  and  C_13 
REMARK    3  A    between atoms: C_13  and  C_14 
REMARK    4  A    between atoms: C_16  and  C_17 
ROOT
HETATM    1  C   UNL     1      41.777 -13.782   4.594  1.00  0.00     0.032 A 
HETATM    2  C   UNL     1      41.942 -14.992   3.900  1.00  0.00     0.029 A 
HETATM    3  C   UNL     1      42.870 -15.961   4.324  1.00  0.00    -0.024 A 
HETATM    4  C   UNL     1      43.634 -15.672   5.469  1.00  0.00     0.012 A 
HETATM    5  C   UNL     1      43.474 -14.470   6.166  1.00  0.00     0.002 A 
HETATM    6  C   UNL     1      42.542 -13.527   5.734  1.00  0.00     0.017 A 
ENDROOT
BRANCH   1   7
HETATM    7  C   UNL     1      40.736 -12.832   4.111  1.00  0.00     0.252 C 
HETATM    8  N   UNL     1      40.634 -12.670   2.744  1.00  0.00    -0.352 N 
HETATM    9  H   UNL     1      41.073 -13.360   2.148  1.00  0.00     0.163 HD
HETATM   10  O   UNL     1      40.016 -12.254   4.918  1.00  0.00    -0.268 OA
BRANCH   8  11
HETATM   11  C   UNL     1      39.613 -11.810   2.154  1.00  0.00     0.084 C 
HETATM   12  C   UNL     1      40.138 -11.129   0.893  1.00  0.00     0.026 C 
HETATM   13  C   UNL     1      40.296 -12.088  -0.289  1.00  0.00     0.016 C 
HETATM   14  C   UNL     1      39.026 -12.925  -0.632  1.00  0.00    -0.017 C 
HETATM   15  C   UNL     1      37.950 -12.003  -1.249  1.00  0.00     0.020 C 
HETATM   16  C   UNL     1      38.486 -13.559   0.686  1.00  0.00     0.016 C 
HETATM   17  C   UNL     1      38.331 -12.583   1.854  1.00  0.00     0.026 C 
BRANCH  14  18
HETATM   18  C   UNL     1      39.334 -14.015  -1.691  1.00  0.00    -0.050 A 
HETATM   19  C   UNL     1      38.403 -14.360  -2.689  1.00  0.00     0.008 A 
HETATM   20  C   UNL     1      38.673 -15.360  -3.630  1.00  0.00     0.001 A 
HETATM   21  C   UNL     1      39.879 -16.051  -3.589  1.00  0.00     0.000 A 
HETATM   22  C   UNL     1      40.808 -15.748  -2.601  1.00  0.00     0.001 A 
HETATM   23  C   UNL     1      40.535 -14.750  -1.660  1.00  0.00     0.008 A 
ENDBRANCH  14  18
ENDBRANCH   8  11
ENDBRANCH   1   7
BRANCH   3  24
HETATM   24  C   UNL     1      43.022 -17.240   3.602  1.00  0.00    -0.006 A 
HETATM   25  C   UNL     1      42.445 -17.444   2.325  1.00  0.00     0.131 A 
HETATM   26  N   UNL     1      42.536 -18.579   1.577  1.00  0.00    -0.240 NA
HETATM   27  C   UNL     1      43.236 -19.548   2.163  1.00  0.00     0.158 A 
HETATM   28  C   UNL     1      43.839 -19.468   3.413  1.00  0.00     0.085 A 
HETATM   29  N   UNL     1      43.494 -20.807   1.646  1.00  0.00    -0.291 N 
HETATM   30  N   UNL     1      44.467 -20.690   3.671  1.00  0.00    -0.300 N 
HETATM   31  C   UNL     1      43.748 -18.313   4.155  1.00  0.00     0.047 A 
HETATM   32  C   UNL     1      45.200 -21.018   4.859  1.00  0.00     0.161 C 
HETATM   33  C   UNL     1      44.257 -21.536   2.565  1.00  0.00     0.328 A 
HETATM   34  O   UNL     1      44.653 -22.679   2.414  1.00  0.00    -0.247 OA
HETATM   35  H   UNL     1      43.179 -21.140   0.753  1.00  0.00     0.172 HD
ENDBRANCH   3  24
TORSDOF 4
ENDMDL
MODEL 7
REMARK VINA RESULT:      -9.5      8.603     12.468
REMARK  4 active torsions:
REMARK  status: ('A' for Active; 'I' for Inactive)
REMARK    1  A    between atoms: C_2  and  C_3 
REMARK    2  A    between atoms: C_11  and  N_12 
REMARK       I    between atoms: N_12  and  C_13 
REMARK    3  A    between atoms: C_13  and  C_14 
REMARK    4  A    between atoms: C_16  and  C_17 
ROOT
HETATM    1  C   UNL     1      40.823 -14.551  -0.586  1.00  0.00     0.032 A 
HETATM    2  C   UNL     1      39.725 -13.803  -1.040  1.00  0.00     0.029 A 
HETATM    3  C   UNL     1      39.119 -14.064  -2.283  1.00  0.00    -0.024 A 
HETATM    4  C   UNL     1      39.658 -15.104  -3.061  1.00  0.00     0.012 A 
HETATM    5  C   UNL     1      40.750 -15.856  -2.616  1.00  0.00     0.002 A 
HETATM    6  C   UNL     1      41.329 -15.586  -1.377  1.00  0.00     0.017 A 
ENDROOT
BRANCH   1   7
HETATM    7  C   UNL     1      41.372 -14.246   0.764  1.00  0.00     0.252 C 
HETATM    8  N   UNL     1      41.237 -15.230   1.723  1.00  0.00    -0.352 N 
HETATM    9  H   UNL     1      41.013 -16.168   1.415  1.00  0.00     0.163 HD
HETATM   10  O   UNL     1      41.922 -13.169   0.970  1.00  0.00    -0.268 OA
BRANCH   8  11
HETATM   11  C   UNL     1      41.788 -15.066   3.064  1.00  0.00     0.084 C 
HETATM   12  C   UNL     1      41.178 -16.078   4.031  1.00  0.00     0.026 C 
HETATM   13  C   UNL     1      41.664 -17.510   3.790  1.00  0.00     0.016 C 
HETATM   14  C   UNL     1      43.213 -17.682   3.755  1.00  0.00    -0.017 C 
HETATM   15  C   UNL     1      43.785 -17.499   5.180  1.00  0.00     0.020 C 
HETATM   16  C   UNL     1      43.806 -16.598   2.805  1.00  0.00     0.016 C 
HETATM   17  C   UNL     1      43.311 -15.173   3.064  1.00  0.00     0.026 C 
BRANCH  14  18
HETATM   18  C   UNL     1      43.614 -19.108   3.298  1.00  0.00    -0.050 A 
HETATM   19  C   UNL     1      43.125 -19.665   2.101  1.00  0.00     0.008 A 
HETATM   20  C   UNL     1      43.471 -20.961   1.701  1.00  0.00     0.001 A 
HETATM   21  C   UNL     1      44.304 -21.740   2.495  1.00  0.00     0.000 A 
HETATM   22  C   UNL     1      44.783 -21.225   3.694  1.00  0.00     0.001 A 
HETATM   23  C   UNL     1      44.436 -19.930   4.093  1.00  0.00     0.008 A 
ENDBRANCH  14  18
ENDBRANCH   8  11
ENDBRANCH   1   7
BRANCH   3  24
HETATM   24  C   UNL     1      37.951 -13.287  -2.742  1.00  0.00    -0.006 A 
HETATM   25  C   UNL     1      37.454 -12.188  -2.000  1.00  0.00     0.131 A 
HETATM   26  N   UNL     1      36.394 -11.404  -2.343  1.00  0.00    -0.240 NA
HETATM   27  C   UNL     1      35.811 -11.766  -3.485  1.00  0.00     0.158 A 
HETATM   28  C   UNL     1      36.203 -12.827  -4.291  1.00  0.00     0.085 A 
HETATM   29  N   UNL     1      34.717 -11.161  -4.080  1.00  0.00    -0.291 N 
HETATM   30  N   UNL     1      35.339 -12.882  -5.389  1.00  0.00    -0.300 N 
HETATM   31  C   UNL     1      37.282 -13.606  -3.939  1.00  0.00     0.047 A 
HETATM   32  C   UNL     1      35.401 -13.838  -6.455  1.00  0.00     0.161 C 
HETATM   33  C   UNL     1      34.403 -11.836  -5.265  1.00  0.00     0.328 A 
HETATM   34  O   UNL     1      33.494 -11.555  -6.026  1.00  0.00    -0.247 OA
HETATM   35  H   UNL     1      34.228 -10.363  -3.714  1.00  0.00     0.172 HD
ENDBRANCH   3  24
TORSDOF 4
ENDMDL
MODEL 8
REMARK VINA RESULT:      -9.4      6.402      9.974
REMARK  4 active torsions:
REMARK  status: ('A' for Active; 'I' for Inactive)
REMARK    1  A    between atoms: C_2  and  C_3 
REMARK    2  A    between atoms: C_11  and  N_12 
REMARK       I    between atoms: N_12  and  C_13 
REMARK    3  A    between atoms: C_13  and  C_14 
REMARK    4  A    between atoms: C_16  and  C_17 
ROOT
HETATM    1  C   UNL     1      40.744 -15.083   1.029  1.00  0.00     0.032 A 
HETATM    2  C   UNL     1      41.462 -16.034   1.771  1.00  0.00     0.029 A 
HETATM    3  C   UNL     1      41.376 -16.090   3.174  1.00  0.00    -0.024 A 
HETATM    4  C   UNL     1      40.544 -15.153   3.811  1.00  0.00     0.012 A 
HETATM    5  C   UNL     1      39.823 -14.203   3.079  1.00  0.00     0.002 A 
HETATM    6  C   UNL     1      39.917 -14.171   1.689  1.00  0.00     0.017 A 
ENDROOT
BRANCH   1   7
HETATM    7  C   UNL     1      40.850 -15.124  -0.457  1.00  0.00     0.252 C 
HETATM    8  N   UNL     1      40.557 -13.955  -1.129  1.00  0.00    -0.352 N 
HETATM    9  H   UNL     1      40.535 -13.093  -0.600  1.00  0.00     0.163 HD
HETATM   10  O   UNL     1      41.196 -16.160  -1.015  1.00  0.00    -0.268 OA
BRANCH   8  11
HETATM   11  C   UNL     1      40.682 -13.860  -2.580  1.00  0.00     0.084 C 
HETATM   12  C   UNL     1      39.900 -12.664  -3.117  1.00  0.00     0.026 C 
HETATM   13  C   UNL     1      40.546 -11.319  -2.774  1.00  0.00     0.016 C 
HETATM   14  C   UNL     1      42.048 -11.189  -3.173  1.00  0.00    -0.017 C 
HETATM   15  C   UNL     1      42.168 -11.097  -4.711  1.00  0.00     0.020 C 
HETATM   16  C   UNL     1      42.803 -12.452  -2.659  1.00  0.00     0.016 C 
HETATM   17  C   UNL     1      42.144 -13.787  -3.015  1.00  0.00     0.026 C 
BRANCH  14  18
HETATM   18  C   UNL     1      42.676  -9.891  -2.602  1.00  0.00    -0.050 A 
HETATM   19  C   UNL     1      42.415  -8.631  -3.173  1.00  0.00     0.008 A 
HETATM   20  C   UNL     1      43.001  -7.463  -2.670  1.00  0.00     0.001 A 
HETATM   21  C   UNL     1      43.875  -7.528  -1.591  1.00  0.00     0.000 A 
HETATM   22  C   UNL     1      44.170  -8.761  -1.023  1.00  0.00     0.001 A 
HETATM   23  C   UNL     1      43.584  -9.927  -1.527  1.00  0.00     0.008 A 
ENDBRANCH  14  18
ENDBRANCH   8  11
ENDBRANCH   1   7
BRANCH   3  24
HETATM   24  C   UNL     1      42.117 -17.109   3.945  1.00  0.00    -0.006 A 
HETATM   25  C   UNL     1      42.182 -17.066   5.359  1.00  0.00     0.131 A 
HETATM   26  N   UNL     1      42.827 -17.960   6.159  1.00  0.00    -0.240 NA
HETATM   27  C   UNL     1      43.441 -18.931   5.484  1.00  0.00     0.158 A 
HETATM   28  C   UNL     1      43.454 -19.072   4.102  1.00  0.00     0.085 A 
HETATM   29  N   UNL     1      44.174 -19.974   6.025  1.00  0.00    -0.291 N 
HETATM   30  N   UNL     1      44.208 -20.206   3.788  1.00  0.00    -0.300 N 
HETATM   31  C   UNL     1      42.790 -18.167   3.305  1.00  0.00     0.047 A 
HETATM   32  C   UNL     1      44.468 -20.697   2.466  1.00  0.00     0.161 C 
HETATM   33  C   UNL     1      44.661 -20.781   4.991  1.00  0.00     0.328 A 
HETATM   34  O   UNL     1      45.344 -21.782   5.129  1.00  0.00    -0.247 OA
HETATM   35  H   UNL     1      44.329 -20.123   7.006  1.00  0.00     0.172 HD
ENDBRANCH   3  24
TORSDOF 4
ENDMDL
MODEL 9
REMARK VINA RESULT:      -9.1      5.569     10.095
REMARK  4 active torsions:
REMARK  status: ('A' for Active; 'I' for Inactive)
REMARK    1  A    between atoms: C_2  and  C_3 
REMARK    2  A    between atoms: C_11  and  N_12 
REMARK       I    between atoms: N_12  and  C_13 
REMARK    3  A    between atoms: C_13  and  C_14 
REMARK    4  A    between atoms: C_16  and  C_17 
ROOT
HETATM    1  C   UNL     1      40.704 -13.069   4.353  1.00  0.00     0.032 A 
HETATM    2  C   UNL     1      41.148 -13.225   3.031  1.00  0.00     0.029 A 
HETATM    3  C   UNL     1      40.412 -12.720   1.943  1.00  0.00    -0.024 A 
HETATM    4  C   UNL     1      39.206 -12.054   2.229  1.00  0.00     0.012 A 
HETATM    5  C   UNL     1      38.758 -11.893   3.544  1.00  0.00     0.002 A 
HETATM    6  C   UNL     1      39.508 -12.394   4.607  1.00  0.00     0.017 A 
ENDROOT
BRANCH   1   7
HETATM    7  C   UNL     1      41.568 -13.587   5.451  1.00  0.00     0.252 C 
HETATM    8  N   UNL     1      41.688 -14.959   5.547  1.00  0.00    -0.352 N 
HETATM    9  H   UNL     1      41.407 -15.519   4.753  1.00  0.00     0.163 HD
HETATM   10  O   UNL     1      42.139 -12.801   6.200  1.00  0.00    -0.268 OA
BRANCH   8  11
HETATM   11  C   UNL     1      42.553 -15.577   6.546  1.00  0.00     0.084 C 
HETATM   12  C   UNL     1      42.022 -16.951   6.950  1.00  0.00     0.026 C 
HETATM   13  C   UNL     1      42.193 -18.009   5.857  1.00  0.00     0.016 C 
HETATM   14  C   UNL     1      43.640 -18.148   5.296  1.00  0.00    -0.017 C 
HETATM   15  C   UNL     1      44.548 -18.798   6.365  1.00  0.00     0.020 C 
HETATM   16  C   UNL     1      44.171 -16.725   4.948  1.00  0.00     0.016 C 
HETATM   17  C   UNL     1      43.995 -15.682   6.055  1.00  0.00     0.026 C 
BRANCH  14  18
HETATM   18  C   UNL     1      43.680 -19.079   4.057  1.00  0.00    -0.050 A 
HETATM   19  C   UNL     1      44.511 -20.215   4.012  1.00  0.00     0.008 A 
HETATM   20  C   UNL     1      44.563 -21.041   2.883  1.00  0.00     0.001 A 
HETATM   21  C   UNL     1      43.795 -20.744   1.763  1.00  0.00     0.000 A 
HETATM   22  C   UNL     1      42.984 -19.616   1.770  1.00  0.00     0.001 A 
HETATM   23  C   UNL     1      42.934 -18.791   2.898  1.00  0.00     0.008 A 
ENDBRANCH  14  18
ENDBRANCH   8  11
ENDBRANCH   1   7
BRANCH   3  24
HETATM   24  C   UNL     1      40.898 -12.867   0.557  1.00  0.00    -0.006 A 
HETATM   25  C   UNL     1      41.196 -14.138   0.007  1.00  0.00     0.131 A 
HETATM   26  N   UNL     1      41.637 -14.380  -1.259  1.00  0.00    -0.240 NA
HETATM   27  C   UNL     1      41.790 -13.276  -1.989  1.00  0.00     0.158 A 
HETATM   28  C   UNL     1      41.538 -11.979  -1.557  1.00  0.00     0.085 A 
HETATM   29  N   UNL     1      42.224 -13.210  -3.302  1.00  0.00    -0.291 N 
HETATM   30  N   UNL     1      41.827 -11.107  -2.611  1.00  0.00    -0.300 N 
HETATM   31  C   UNL     1      41.084 -11.749  -0.279  1.00  0.00     0.047 A 
HETATM   32  C   UNL     1      41.703  -9.679  -2.571  1.00  0.00     0.161 C 
HETATM   33  C   UNL     1      42.256 -11.873  -3.712  1.00  0.00     0.328 A 
HETATM   34  O   UNL     1      42.592 -11.472  -4.813  1.00  0.00    -0.247 OA
HETATM   35  H   UNL     1      42.476 -14.001  -3.867  1.00  0.00     0.172 HD
ENDBRANCH   3  24
TORSDOF 4
ENDMDL
MODEL 10
REMARK VINA RESULT:      -9.1      4.595      8.389
REMARK  4 active torsions:
REMARK  status: ('A' for Active; 'I' for Inactive)
REMARK    1  A    between atoms: C_2  and  C_3 
REMARK    2  A    between atoms: C_11  and  N_12 
REMARK       I    between atoms: N_12  and  C_13 
REMARK    3  A    between atoms: C_13  and  C_14 
REMARK    4  A    between atoms: C_16  and  C_17 
ROOT
HETATM    1  C   UNL     1      41.955 -14.501   5.400  1.00  0.00     0.032 A 
HETATM    2  C   UNL     1      42.280 -15.860   5.261  1.00  0.00     0.029 A 
HETATM    3  C   UNL     1      43.484 -16.384   5.767  1.00  0.00    -0.024 A 
HETATM    4  C   UNL     1      44.357 -15.493   6.417  1.00  0.00     0.012 A 
HETATM    5  C   UNL     1      44.040 -14.138   6.562  1.00  0.00     0.002 A 
HETATM    6  C   UNL     1      42.837 -13.642   6.060  1.00  0.00     0.017 A 
ENDROOT
BRANCH   1   7
HETATM    7  C   UNL     1      40.637 -14.037   4.882  1.00  0.00     0.252 C 
HETATM    8  N   UNL     1      40.393 -14.246   3.540  1.00  0.00    -0.352 N 
HETATM    9  H   UNL     1      40.982 -14.902   3.045  1.00  0.00     0.163 HD
HETATM   10  O   UNL     1      39.832 -13.513   5.645  1.00  0.00    -0.268 OA
BRANCH   8  11
HETATM   11  C   UNL     1      39.115 -13.885   2.935  1.00  0.00     0.084 C 
HETATM   12  C   UNL     1      39.111 -12.419   2.506  1.00  0.00     0.026 C 
HETATM   13  C   UNL     1      39.993 -12.146   1.285  1.00  0.00     0.016 C 
HETATM   14  C   UNL     1      39.711 -13.056   0.052  1.00  0.00    -0.017 C 
HETATM   15  C   UNL     1      38.352 -12.669  -0.576  1.00  0.00     0.020 C 
HETATM   16  C   UNL     1      39.666 -14.537   0.535  1.00  0.00     0.016 C 
HETATM   17  C   UNL     1      38.775 -14.791   1.754  1.00  0.00     0.026 C 
BRANCH  14  18
HETATM   18  C   UNL     1      40.780 -12.860  -1.054  1.00  0.00    -0.050 A 
HETATM   19  C   UNL     1      40.761 -13.616  -2.242  1.00  0.00     0.008 A 
HETATM   20  C   UNL     1      41.741 -13.454  -3.229  1.00  0.00     0.001 A 
HETATM   21  C   UNL     1      42.774 -12.542  -3.046  1.00  0.00     0.000 A 
HETATM   22  C   UNL     1      42.831 -11.800  -1.872  1.00  0.00     0.001 A 
HETATM   23  C   UNL     1      41.852 -11.963  -0.887  1.00  0.00     0.008 A 
ENDBRANCH  14  18
ENDBRANCH   8  11
ENDBRANCH   1   7
BRANCH   3  24
HETATM   24  C   UNL     1      43.807 -17.819   5.637  1.00  0.00    -0.006 A 
HETATM   25  C   UNL     1      44.096 -18.619   6.769  1.00  0.00     0.131 A 
HETATM   26  N   UNL     1      44.394 -19.948   6.755  1.00  0.00    -0.240 NA
HETATM   27  C   UNL     1      44.408 -20.478   5.533  1.00  0.00     0.158 A 
HETATM   28  C   UNL     1      44.149 -19.793   4.352  1.00  0.00     0.085 A 
HETATM   29  N   UNL     1      44.678 -21.797   5.209  1.00  0.00    -0.291 N 
HETATM   30  N   UNL     1      44.269 -20.695   3.291  1.00  0.00    -0.300 N 
HETATM   31  C   UNL     1      43.840 -18.452   4.380  1.00  0.00     0.047 A 
HETATM   32  C   UNL     1      44.085 -20.384   1.904  1.00  0.00     0.161 C 
HETATM   33  C   UNL     1      44.599 -21.958   3.822  1.00  0.00     0.328 A 
HETATM   34  O   UNL     1      44.782 -22.998   3.213  1.00  0.00    -0.247 OA
HETATM   35  H   UNL     1      44.897 -22.520   5.870  1.00  0.00     0.172 HD
ENDBRANCH   3  24
TORSDOF 4
ENDMDL
