MODEL 1
REMARK VINA RESULT:      -8.5      0.000      0.000
REMARK  3 active torsions:
REMARK  status: ('A' for Active; 'I' for Inactive)
REMARK    1  A    between atoms: C_6  and  N_7 
REMARK       I    between atoms: N_7  and  C_8 
REMARK    2  A    between atoms: C_8  and  C_9 
REMARK    3  A    between atoms: C_9  and  C_10 
ROOT
HETATM    1  C   UNL     1      41.410 -16.566   3.038  1.00  0.00     0.286 C 
HETATM    2  N   UNL     1      40.520 -15.723   3.946  1.00  0.00    -0.056 N 
HETATM    3  H   UNL     1      39.805 -16.386   4.316  1.00  0.00     0.278 HD
HETATM    4  H   UNL     1      41.037 -15.384   4.765  1.00  0.00     0.278 HD
HETATM    5  C   UNL     1      39.790 -14.605   3.256  1.00  0.00     0.209 C 
HETATM    6  C   UNL     1      39.024 -15.163   2.030  1.00  0.00     0.115 C 
HETATM    7  N   UNL     1      39.848 -16.025   1.183  1.00  0.00    -0.353 N 
HETATM    8  C   UNL     1      40.744 -16.932   1.697  1.00  0.00     0.249 C 
HETATM    9  O   UNL     1      41.059 -17.921   1.045  1.00  0.00    -0.271 OA
HETATM   10  C   UNL     1      40.767 -13.481   2.906  1.00  0.00     0.035 C 
HETATM   11  C   UNL     1      40.072 -12.374   2.119  1.00  0.00     0.002 C 
HETATM   12  C   UNL     1      39.395 -12.926   0.868  1.00  0.00     0.002 C 
HETATM   13  C   UNL     1      38.396 -14.031   1.209  1.00  0.00     0.027 C 
HETATM   14  H   UNL     1      39.435 -16.355   0.311  1.00  0.00     0.163 HD
ENDROOT
BRANCH   1  15
HETATM   15  C   UNL     1      41.939 -17.813   3.764  1.00  0.00     0.146 C 
BRANCH  15  16
HETATM   16  C   UNL     1      43.287 -17.563   4.387  1.00  0.00     0.224 C 
HETATM   17  N   UNL     1      44.254 -18.513   4.459  1.00  0.00    -0.327 N 
HETATM   18  H   UNL     1      45.082 -18.157   4.930  1.00  0.00     0.169 HD
HETATM   19  O   UNL     1      43.551 -16.418   4.782  1.00  0.00    -0.273 OA
BRANCH  17  20
HETATM   20  C   UNL     1      44.357 -19.852   4.027  1.00  0.00     0.037 A 
HETATM   21  C   UNL     1      44.196 -20.308   2.721  1.00  0.00     0.071 A 
HETATM   22  C   UNL     1      44.329 -21.668   2.431  1.00  0.00     0.118 A 
HETATM   23  C   UNL     1      44.631 -22.595   3.417  1.00  0.00     0.042 A 
HETATM   24  F   UNL     1      44.163 -22.079   1.167  1.00  0.00    -0.206 F 
HETATM   25  C   UNL     1      44.806 -22.156   4.722  1.00  0.00     0.005 A 
HETATM   26  C   UNL     1      44.670 -20.796   5.022  1.00  0.00     0.029 A 
ENDBRANCH  17  20
ENDBRANCH  15  16
ENDBRANCH   1  15
TORSDOF 3
ENDMDL
MODEL 2
REMARK VINA RESULT:      -8.5      1.901      2.677
REMARK  3 active torsions:
REMARK  status: ('A' for Active; 'I' for Inactive)
REMARK    1  A    between atoms: C_6  and  N_7 
REMARK       I    between atoms: N_7  and  C_8 
REMARK    2  A    between atoms: C_8  and  C_9 
REMARK    3  A    between atoms: C_9  and  C_10 
ROOT
HETATM    1  C   UNL     1      42.098 -17.726   5.039  1.00  0.00     0.286 C 
HETATM    2  N   UNL     1      43.036 -17.009   4.073  1.00  0.00    -0.056 N 
HETATM    3  H   UNL     1      43.598 -16.365   4.670  1.00  0.00     0.278 HD
HETATM    4  H   UNL     1      43.709 -17.660   3.653  1.00  0.00     0.278 HD
HETATM    5  C   UNL     1      42.351 -16.177   3.025  1.00  0.00     0.209 C 
HETATM    6  C   UNL     1      41.348 -15.210   3.703  1.00  0.00     0.115 C 
HETATM    7  N   UNL     1      40.483 -15.872   4.679  1.00  0.00    -0.353 N 
HETATM    8  C   UNL     1      40.943 -16.838   5.542  1.00  0.00     0.249 C 
HETATM    9  O   UNL     1      40.370 -17.032   6.609  1.00  0.00    -0.271 OA
HETATM   10  C   UNL     1      41.708 -17.086   1.975  1.00  0.00     0.035 C 
HETATM   11  C   UNL     1      40.924 -16.272   0.951  1.00  0.00     0.002 C 
HETATM   12  C   UNL     1      39.881 -15.388   1.628  1.00  0.00     0.002 C 
HETATM   13  C   UNL     1      40.516 -14.456   2.660  1.00  0.00     0.027 C 
HETATM   14  H   UNL     1      39.740 -15.315   5.099  1.00  0.00     0.163 HD
ENDROOT
BRANCH   1  15
HETATM   15  C   UNL     1      42.867 -18.366   6.205  1.00  0.00     0.146 C 
BRANCH  15  16
HETATM   16  C   UNL     1      44.354 -18.177   6.061  1.00  0.00     0.224 C 
HETATM   17  N   UNL     1      45.138 -19.019   5.341  1.00  0.00    -0.327 N 
HETATM   18  H   UNL     1      46.114 -18.733   5.379  1.00  0.00     0.169 HD
HETATM   19  O   UNL     1      44.871 -17.166   6.560  1.00  0.00    -0.273 OA
BRANCH  17  20
HETATM   20  C   UNL     1      44.897 -20.171   4.565  1.00  0.00     0.037 A 
HETATM   21  C   UNL     1      44.611 -20.198   3.202  1.00  0.00     0.071 A 
HETATM   22  C   UNL     1      44.394 -21.417   2.554  1.00  0.00     0.118 A 
HETATM   23  C   UNL     1      44.465 -22.623   3.233  1.00  0.00     0.042 A 
HETATM   24  F   UNL     1      44.114 -21.412   1.244  1.00  0.00    -0.206 F 
HETATM   25  C   UNL     1      44.761 -22.616   4.589  1.00  0.00     0.005 A 
HETATM   26  C   UNL     1      44.975 -21.399   5.247  1.00  0.00     0.029 A 
ENDBRANCH  17  20
ENDBRANCH  15  16
ENDBRANCH   1  15
TORSDOF 3
ENDMDL
MODEL 3
REMARK VINA RESULT:      -8.4      1.754      2.345
REMARK  3 active torsions:
REMARK  status: ('A' for Active; 'I' for Inactive)
REMARK    1  A    between atoms: C_6  and  N_7 
REMARK       I    between atoms: N_7  and  C_8 
REMARK    2  A    between atoms: C_8  and  C_9 
REMARK    3  A    between atoms: C_9  and  C_10 
ROOT
HETATM    1  C   UNL     1      41.632 -17.132   3.375  1.00  0.00     0.286 C 
HETATM    2  N   UNL     1      42.761 -17.024   2.355  1.00  0.00    -0.056 N 
HETATM    3  H   UNL     1      43.586 -16.689   2.900  1.00  0.00     0.278 HD
HETATM    4  H   UNL     1      43.023 -17.946   1.989  1.00  0.00     0.278 HD
HETATM    5  C   UNL     1      42.519 -16.041   1.245  1.00  0.00     0.209 C 
HETATM    6  C   UNL     1      42.128 -14.666   1.843  1.00  0.00     0.115 C 
HETATM    7  N   UNL     1      41.090 -14.761   2.868  1.00  0.00    -0.353 N 
HETATM    8  C   UNL     1      41.063 -15.766   3.806  1.00  0.00     0.249 C 
HETATM    9  O   UNL     1      40.508 -15.586   4.884  1.00  0.00    -0.271 OA
HETATM   10  C   UNL     1      41.480 -16.600   0.270  1.00  0.00     0.035 C 
HETATM   11  C   UNL     1      41.144 -15.583  -0.816  1.00  0.00     0.002 C 
HETATM   12  C   UNL     1      40.678 -14.262  -0.212  1.00  0.00     0.002 C 
HETATM   13  C   UNL     1      41.721 -13.681   0.742  1.00  0.00     0.027 C 
HETATM   14  H   UNL     1      40.721 -13.887   3.242  1.00  0.00     0.163 HD
ENDROOT
BRANCH   1  15
HETATM   15  C   UNL     1      42.044 -17.980   4.589  1.00  0.00     0.146 C 
BRANCH  15  16
HETATM   16  C   UNL     1      43.481 -17.741   4.972  1.00  0.00     0.224 C 
HETATM   17  N   UNL     1      44.454 -18.672   4.800  1.00  0.00    -0.327 N 
HETATM   18  H   UNL     1      45.352 -18.329   5.135  1.00  0.00     0.169 HD
HETATM   19  O   UNL     1      43.801 -16.619   5.391  1.00  0.00    -0.273 OA
BRANCH  17  20
HETATM   20  C   UNL     1      44.491 -19.976   4.264  1.00  0.00     0.037 A 
HETATM   21  C   UNL     1      44.340 -20.316   2.922  1.00  0.00     0.071 A 
HETATM   22  C   UNL     1      44.400 -21.655   2.527  1.00  0.00     0.118 A 
HETATM   23  C   UNL     1      44.618 -22.674   3.441  1.00  0.00     0.042 A 
HETATM   24  F   UNL     1      44.247 -21.954   1.230  1.00  0.00    -0.206 F 
HETATM   25  C   UNL     1      44.782 -22.351   4.782  1.00  0.00     0.005 A 
HETATM   26  C   UNL     1      44.718 -21.013   5.187  1.00  0.00     0.029 A 
ENDBRANCH  17  20
ENDBRANCH  15  16
ENDBRANCH   1  15
TORSDOF 3
ENDMDL
MODEL 4
REMARK VINA RESULT:      -7.9      3.645      7.188
REMARK  3 active torsions:
REMARK  status: ('A' for Active; 'I' for Inactive)
REMARK    1  A    between atoms: C_6  and  N_7 
REMARK       I    between atoms: N_7  and  C_8 
REMARK    2  A    between atoms: C_8  and  C_9 
REMARK    3  A    between atoms: C_9  and  C_10 
ROOT
HETATM    1  C   UNL     1      42.586 -18.294   6.029  1.00  0.00     0.286 C 
HETATM    2  N   UNL     1      44.092 -18.473   6.191  1.00  0.00    -0.056 N 
HETATM    3  H   UNL     1      44.499 -17.532   5.995  1.00  0.00     0.278 HD
HETATM    4  H   UNL     1      44.341 -18.688   7.162  1.00  0.00     0.278 HD
HETATM    5  C   UNL     1      44.720 -19.447   5.234  1.00  0.00     0.209 C 
HETATM    6  C   UNL     1      44.320 -19.082   3.782  1.00  0.00     0.115 C 
HETATM    7  N   UNL     1      42.886 -18.846   3.625  1.00  0.00    -0.353 N 
HETATM    8  C   UNL     1      42.139 -18.168   4.559  1.00  0.00     0.249 C 
HETATM    9  O   UNL     1      41.110 -17.592   4.223  1.00  0.00    -0.271 OA
HETATM   10  C   UNL     1      44.349 -20.878   5.629  1.00  0.00     0.035 C 
HETATM   11  C   UNL     1      44.894 -21.884   4.620  1.00  0.00     0.002 C 
HETATM   12  C   UNL     1      44.421 -21.562   3.206  1.00  0.00     0.002 C 
HETATM   13  C   UNL     1      44.811 -20.143   2.791  1.00  0.00     0.027 C 
HETATM   14  H   UNL     1      42.539 -18.688   2.679  1.00  0.00     0.163 HD
ENDROOT
BRANCH   1  15
HETATM   15  C   UNL     1      42.060 -17.127   6.880  1.00  0.00     0.146 C 
BRANCH  15  16
HETATM   16  C   UNL     1      43.183 -16.294   7.438  1.00  0.00     0.224 C 
HETATM   17  N   UNL     1      43.598 -15.137   6.864  1.00  0.00    -0.327 N 
HETATM   18  H   UNL     1      44.377 -14.732   7.378  1.00  0.00     0.169 HD
HETATM   19  O   UNL     1      43.700 -16.644   8.510  1.00  0.00    -0.273 OA
BRANCH  17  20
HETATM   20  C   UNL     1      43.187 -14.387   5.742  1.00  0.00     0.037 A 
HETATM   21  C   UNL     1      42.426 -13.221   5.768  1.00  0.00     0.071 A 
HETATM   22  C   UNL     1      42.090 -12.577   4.574  1.00  0.00     0.118 A 
HETATM   23  C   UNL     1      42.504 -13.063   3.344  1.00  0.00     0.042 A 
HETATM   24  F   UNL     1      41.353 -11.459   4.628  1.00  0.00    -0.206 F 
HETATM   25  C   UNL     1      43.273 -14.218   3.301  1.00  0.00     0.005 A 
HETATM   26  C   UNL     1      43.609 -14.873   4.491  1.00  0.00     0.029 A 
ENDBRANCH  17  20
ENDBRANCH  15  16
ENDBRANCH   1  15
TORSDOF 3
ENDMDL
MODEL 5
REMARK VINA RESULT:      -7.8      3.087      4.198
REMARK  3 active torsions:
REMARK  status: ('A' for Active; 'I' for Inactive)
REMARK    1  A    between atoms: C_6  and  N_7 
REMARK       I    between atoms: N_7  and  C_8 
REMARK    2  A    between atoms: C_8  and  C_9 
REMARK    3  A    between atoms: C_9  and  C_10 
ROOT
HETATM    1  C   UNL     1      40.546 -14.925   1.007  1.00  0.00     0.286 C 
HETATM    2  N   UNL     1      41.476 -14.275  -0.014  1.00  0.00    -0.056 N 
HETATM    3  H   UNL     1      41.578 -13.287   0.305  1.00  0.00     0.278 HD
HETATM    4  H   UNL     1      42.417 -14.682   0.027  1.00  0.00     0.278 HD
HETATM    5  C   UNL     1      40.949 -14.248  -1.421  1.00  0.00     0.209 C 
HETATM    6  C   UNL     1      39.530 -13.626  -1.434  1.00  0.00     0.115 C 
HETATM    7  N   UNL     1      38.645 -14.195  -0.418  1.00  0.00    -0.353 N 
HETATM    8  C   UNL     1      39.073 -14.496   0.854  1.00  0.00     0.249 C 
HETATM    9  O   UNL     1      38.273 -14.519   1.782  1.00  0.00    -0.271 OA
HETATM   10  C   UNL     1      41.006 -15.652  -2.027  1.00  0.00     0.035 C 
HETATM   11  C   UNL     1      40.390 -15.673  -3.422  1.00  0.00     0.002 C 
HETATM   12  C   UNL     1      38.961 -15.138  -3.404  1.00  0.00     0.002 C 
HETATM   13  C   UNL     1      38.896 -13.724  -2.826  1.00  0.00     0.027 C 
HETATM   14  H   UNL     1      37.671 -13.897  -0.426  1.00  0.00     0.163 HD
ENDROOT
BRANCH   1  15
HETATM   15  C   UNL     1      41.048 -14.714   2.444  1.00  0.00     0.146 C 
BRANCH  15  16
HETATM   16  C   UNL     1      42.502 -14.322   2.474  1.00  0.00     0.224 C 
HETATM   17  N   UNL     1      43.506 -15.222   2.626  1.00  0.00    -0.327 N 
HETATM   18  H   UNL     1      44.412 -14.761   2.638  1.00  0.00     0.169 HD
HETATM   19  O   UNL     1      42.795 -13.134   2.275  1.00  0.00    -0.273 OA
BRANCH  17  20
HETATM   20  C   UNL     1      43.563 -16.625   2.758  1.00  0.00     0.037 A 
HETATM   21  C   UNL     1      43.475 -17.342   3.950  1.00  0.00     0.071 A 
HETATM   22  C   UNL     1      43.545 -18.737   3.936  1.00  0.00     0.118 A 
HETATM   23  C   UNL     1      43.692 -19.446   2.754  1.00  0.00     0.042 A 
HETATM   24  F   UNL     1      43.463 -19.400   5.097  1.00  0.00    -0.206 F 
HETATM   25  C   UNL     1      43.769 -18.748   1.556  1.00  0.00     0.005 A 
HETATM   26  C   UNL     1      43.706 -17.350   1.561  1.00  0.00     0.029 A 
ENDBRANCH  17  20
ENDBRANCH  15  16
ENDBRANCH   1  15
TORSDOF 3
ENDMDL
MODEL 6
REMARK VINA RESULT:      -7.7      2.543      3.170
REMARK  3 active torsions:
REMARK  status: ('A' for Active; 'I' for Inactive)
REMARK    1  A    between atoms: C_6  and  N_7 
REMARK       I    between atoms: N_7  and  C_8 
REMARK    2  A    between atoms: C_8  and  C_9 
REMARK    3  A    between atoms: C_9  and  C_10 
ROOT
HETATM    1  C   UNL     1      42.246 -15.739   5.044  1.00  0.00     0.286 C 
HETATM    2  N   UNL     1      41.690 -14.350   4.749  1.00  0.00    -0.056 N 
HETATM    3  H   UNL     1      40.902 -14.225   5.421  1.00  0.00     0.278 HD
HETATM    4  H   UNL     1      42.372 -13.618   4.978  1.00  0.00     0.278 HD
HETATM    5  C   UNL     1      41.139 -14.170   3.362  1.00  0.00     0.209 C 
HETATM    6  C   UNL     1      40.115 -15.294   3.060  1.00  0.00     0.115 C 
HETATM    7  N   UNL     1      40.611 -16.628   3.397  1.00  0.00    -0.353 N 
HETATM    8  C   UNL     1      41.346 -16.881   4.531  1.00  0.00     0.249 C 
HETATM    9  O   UNL     1      41.348 -18.003   5.025  1.00  0.00    -0.271 OA
HETATM   10  C   UNL     1      42.284 -14.100   2.350  1.00  0.00     0.035 C 
HETATM   11  C   UNL     1      41.751 -14.014   0.923  1.00  0.00     0.002 C 
HETATM   12  C   UNL     1      40.812 -15.175   0.612  1.00  0.00     0.002 C 
HETATM   13  C   UNL     1      39.648 -15.238   1.601  1.00  0.00     0.027 C 
HETATM   14  H   UNL     1      40.026 -17.422   3.143  1.00  0.00     0.163 HD
ENDROOT
BRANCH   1  15
HETATM   15  C   UNL     1      42.580 -15.910   6.534  1.00  0.00     0.146 C 
BRANCH  15  16
HETATM   16  C   UNL     1      44.066 -15.892   6.777  1.00  0.00     0.224 C 
HETATM   17  N   UNL     1      44.827 -17.015   6.780  1.00  0.00    -0.327 N 
HETATM   18  H   UNL     1      45.801 -16.797   6.979  1.00  0.00     0.169 HD
HETATM   19  O   UNL     1      44.628 -14.794   6.905  1.00  0.00    -0.273 OA
BRANCH  17  20
HETATM   20  C   UNL     1      44.568 -18.384   6.563  1.00  0.00     0.037 A 
HETATM   21  C   UNL     1      43.967 -19.259   7.465  1.00  0.00     0.071 A 
HETATM   22  C   UNL     1      43.768 -20.598   7.117  1.00  0.00     0.118 A 
HETATM   23  C   UNL     1      44.146 -21.091   5.878  1.00  0.00     0.042 A 
HETATM   24  F   UNL     1      43.193 -21.418   8.006  1.00  0.00    -0.206 F 
HETATM   25  C   UNL     1      44.736 -20.230   4.963  1.00  0.00     0.005 A 
HETATM   26  C   UNL     1      44.945 -18.889   5.305  1.00  0.00     0.029 A 
ENDBRANCH  17  20
ENDBRANCH  15  16
ENDBRANCH   1  15
TORSDOF 3
ENDMDL
MODEL 7
REMARK VINA RESULT:      -7.6      3.805      7.426
REMARK  3 active torsions:
REMARK  status: ('A' for Active; 'I' for Inactive)
REMARK    1  A    between atoms: C_6  and  N_7 
REMARK       I    between atoms: N_7  and  C_8 
REMARK    2  A    between atoms: C_8  and  C_9 
REMARK    3  A    between atoms: C_9  and  C_10 
ROOT
HETATM    1  C   UNL     1      40.182 -15.229   1.794  1.00  0.00     0.286 C 
HETATM    2  N   UNL     1      40.224 -16.630   1.192  1.00  0.00    -0.056 N 
HETATM    3  H   UNL     1      39.347 -17.091   1.519  1.00  0.00     0.278 HD
HETATM    4  H   UNL     1      40.159 -16.598   0.168  1.00  0.00     0.278 HD
HETATM    5  C   UNL     1      41.380 -17.478   1.643  1.00  0.00     0.209 C 
HETATM    6  C   UNL     1      41.438 -17.497   3.192  1.00  0.00     0.115 C 
HETATM    7  N   UNL     1      41.335 -16.165   3.786  1.00  0.00    -0.353 N 
HETATM    8  C   UNL     1      40.478 -15.203   3.306  1.00  0.00     0.249 C 
HETATM    9  O   UNL     1      40.072 -14.316   4.049  1.00  0.00    -0.271 OA
HETATM   10  C   UNL     1      42.674 -16.988   0.990  1.00  0.00     0.035 C 
HETATM   11  C   UNL     1      43.878 -17.769   1.503  1.00  0.00     0.002 C 
HETATM   12  C   UNL     1      43.971 -17.708   3.025  1.00  0.00     0.002 C 
HETATM   13  C   UNL     1      42.694 -18.222   3.688  1.00  0.00     0.027 C 
HETATM   14  H   UNL     1      41.455 -16.093   4.795  1.00  0.00     0.163 HD
ENDROOT
BRANCH   1  15
HETATM   15  C   UNL     1      38.864 -14.510   1.464  1.00  0.00     0.146 C 
BRANCH  15  16
HETATM   16  C   UNL     1      39.106 -13.188   0.786  1.00  0.00     0.224 C 
HETATM   17  N   UNL     1      39.270 -13.066  -0.556  1.00  0.00    -0.327 N 
HETATM   18  H   UNL     1      39.439 -12.097  -0.817  1.00  0.00     0.169 HD
HETATM   19  O   UNL     1      39.077 -12.158   1.476  1.00  0.00    -0.273 OA
BRANCH  17  20
HETATM   20  C   UNL     1      39.250 -13.968  -1.639  1.00  0.00     0.037 A 
HETATM   21  C   UNL     1      38.162 -14.230  -2.470  1.00  0.00     0.071 A 
HETATM   22  C   UNL     1      38.282 -15.152  -3.512  1.00  0.00     0.118 A 
HETATM   23  C   UNL     1      39.471 -15.821  -3.759  1.00  0.00     0.042 A 
HETATM   24  F   UNL     1      37.219 -15.389  -4.292  1.00  0.00    -0.206 F 
HETATM   25  C   UNL     1      40.569 -15.563  -2.948  1.00  0.00     0.005 A 
HETATM   26  C   UNL     1      40.456 -14.645  -1.898  1.00  0.00     0.029 A 
ENDBRANCH  17  20
ENDBRANCH  15  16
ENDBRANCH   1  15
TORSDOF 3
ENDMDL
MODEL 8
REMARK VINA RESULT:      -7.5      4.873      8.533
REMARK  3 active torsions:
REMARK  status: ('A' for Active; 'I' for Inactive)
REMARK    1  A    between atoms: C_6  and  N_7 
REMARK       I    between atoms: N_7  and  C_8 
REMARK    2  A    between atoms: C_8  and  C_9 
REMARK    3  A    between atoms: C_9  and  C_10 
ROOT
HETATM    1  C   UNL     1      41.381 -15.107  -0.308  1.00  0.00     0.286 C 
HETATM    2  N   UNL     1      41.090 -16.601  -0.211  1.00  0.00    -0.056 N 
HETATM    3  H   UNL     1      40.050 -16.672  -0.174  1.00  0.00     0.278 HD
HETATM    4  H   UNL     1      41.374 -17.093  -1.065  1.00  0.00     0.278 HD
HETATM    5  C   UNL     1      41.636 -17.274   1.017  1.00  0.00     0.209 C 
HETATM    6  C   UNL     1      41.182 -16.500   2.280  1.00  0.00     0.115 C 
HETATM    7  N   UNL     1      41.397 -15.057   2.177  1.00  0.00    -0.353 N 
HETATM    8  C   UNL     1      41.162 -14.353   1.019  1.00  0.00     0.249 C 
HETATM    9  O   UNL     1      40.899 -13.157   1.069  1.00  0.00    -0.271 OA
HETATM   10  C   UNL     1      43.155 -17.417   0.902  1.00  0.00     0.035 C 
HETATM   11  C   UNL     1      43.749 -18.010   2.176  1.00  0.00     0.002 C 
HETATM   12  C   UNL     1      43.364 -17.188   3.401  1.00  0.00     0.002 C 
HETATM   13  C   UNL     1      41.847 -17.062   3.541  1.00  0.00     0.027 C 
HETATM   14  H   UNL     1      41.203 -14.495   3.004  1.00  0.00     0.163 HD
ENDROOT
BRANCH   1  15
HETATM   15  C   UNL     1      40.606 -14.453  -1.463  1.00  0.00     0.146 C 
BRANCH  15  16
HETATM   16  C   UNL     1      41.286 -14.678  -2.787  1.00  0.00     0.224 C 
HETATM   17  N   UNL     1      42.002 -13.716  -3.422  1.00  0.00    -0.327 N 
HETATM   18  H   UNL     1      42.367 -14.057  -4.309  1.00  0.00     0.169 HD
HETATM   19  O   UNL     1      41.252 -15.816  -3.281  1.00  0.00    -0.273 OA
BRANCH  17  20
HETATM   20  C   UNL     1      42.348 -12.382  -3.122  1.00  0.00     0.037 A 
HETATM   21  C   UNL     1      42.202 -11.286  -3.968  1.00  0.00     0.071 A 
HETATM   22  C   UNL     1      42.586 -10.013  -3.539  1.00  0.00     0.118 A 
HETATM   23  C   UNL     1      43.109  -9.799  -2.273  1.00  0.00     0.042 A 
HETATM   24  F   UNL     1      42.439  -8.977  -4.375  1.00  0.00    -0.206 F 
HETATM   25  C   UNL     1      43.251 -10.880  -1.412  1.00  0.00     0.005 A 
HETATM   26  C   UNL     1      42.874 -12.159  -1.836  1.00  0.00     0.029 A 
ENDBRANCH  17  20
ENDBRANCH  15  16
ENDBRANCH   1  15
TORSDOF 3
ENDMDL
MODEL 9
REMARK VINA RESULT:      -7.4      7.648      9.163
REMARK  3 active torsions:
REMARK  status: ('A' for Active; 'I' for Inactive)
REMARK    1  A    between atoms: C_6  and  N_7 
REMARK       I    between atoms: N_7  and  C_8 
REMARK    2  A    between atoms: C_8  and  C_9 
REMARK    3  A    between atoms: C_9  and  C_10 
ROOT
HETATM    1  C   UNL     1      43.042 -11.061   9.643  1.00  0.00     0.286 C 
HETATM    2  N   UNL     1      43.441 -11.899  10.854  1.00  0.00    -0.056 N 
HETATM    3  H   UNL     1      43.009 -12.834  10.689  1.00  0.00     0.278 HD
HETATM    4  H   UNL     1      44.454 -12.059  10.879  1.00  0.00     0.278 HD
HETATM    5  C   UNL     1      42.933 -11.388  12.172  1.00  0.00     0.209 C 
HETATM    6  C   UNL     1      41.402 -11.163  12.088  1.00  0.00     0.115 C 
HETATM    7  N   UNL     1      40.997 -10.414  10.899  1.00  0.00    -0.353 N 
HETATM    8  C   UNL     1      41.565 -10.621   9.663  1.00  0.00     0.249 C 
HETATM    9  O   UNL     1      40.935 -10.355   8.645  1.00  0.00    -0.271 OA
HETATM   10  C   UNL     1      43.712 -10.137  12.583  1.00  0.00     0.035 C 
HETATM   11  C   UNL     1      43.154  -9.541  13.871  1.00  0.00     0.002 C 
HETATM   12  C   UNL     1      41.663  -9.244  13.744  1.00  0.00     0.002 C 
HETATM   13  C   UNL     1      40.871 -10.494  13.361  1.00  0.00     0.027 C 
HETATM   14  H   UNL     1      40.015 -10.152  10.823  1.00  0.00     0.163 HD
ENDROOT
BRANCH   1  15
HETATM   15  C   UNL     1      43.403 -11.763   8.324  1.00  0.00     0.146 C 
BRANCH  15  16
HETATM   16  C   UNL     1      44.760 -12.412   8.393  1.00  0.00     0.224 C 
HETATM   17  N   UNL     1      45.050 -13.583   7.772  1.00  0.00    -0.327 N 
HETATM   18  H   UNL     1      46.011 -13.865   7.952  1.00  0.00     0.169 HD
HETATM   19  O   UNL     1      45.672 -11.810   8.980  1.00  0.00    -0.273 OA
BRANCH  17  20
HETATM   20  C   UNL     1      44.327 -14.468   6.945  1.00  0.00     0.037 A 
HETATM   21  C   UNL     1      43.875 -15.738   7.298  1.00  0.00     0.071 A 
HETATM   22  C   UNL     1      43.166 -16.511   6.376  1.00  0.00     0.118 A 
HETATM   23  C   UNL     1      42.883 -16.045   5.101  1.00  0.00     0.042 A 
HETATM   24  F   UNL     1      42.748 -17.730   6.740  1.00  0.00    -0.206 F 
HETATM   25  C   UNL     1      43.316 -14.777   4.737  1.00  0.00     0.005 A 
HETATM   26  C   UNL     1      44.032 -13.998   5.653  1.00  0.00     0.029 A 
ENDBRANCH  17  20
ENDBRANCH  15  16
ENDBRANCH   1  15
TORSDOF 3
ENDMDL
MODEL 10
REMARK VINA RESULT:      -7.3      3.008      6.079
REMARK  3 active torsions:
REMARK  status: ('A' for Active; 'I' for Inactive)
REMARK    1  A    between atoms: C_6  and  N_7 
REMARK       I    between atoms: N_7  and  C_8 
REMARK    2  A    between atoms: C_8  and  C_9 
REMARK    3  A    between atoms: C_9  and  C_10 
ROOT
HETATM    1  C   UNL     1      42.174 -16.855   2.918  1.00  0.00     0.286 C 
HETATM    2  N   UNL     1      43.686 -16.852   3.122  1.00  0.00    -0.056 N 
HETATM    3  H   UNL     1      44.069 -16.347   2.293  1.00  0.00     0.278 HD
HETATM    4  H   UNL     1      43.951 -16.292   3.939  1.00  0.00     0.278 HD
HETATM    5  C   UNL     1      44.322 -18.213   3.159  1.00  0.00     0.209 C 
HETATM    6  C   UNL     1      43.895 -19.022   1.907  1.00  0.00     0.115 C 
HETATM    7  N   UNL     1      42.454 -18.982   1.663  1.00  0.00    -0.353 N 
HETATM    8  C   UNL     1      41.704 -17.841   1.830  1.00  0.00     0.249 C 
HETATM    9  O   UNL     1      40.659 -17.695   1.206  1.00  0.00    -0.271 OA
HETATM   10  C   UNL     1      43.987 -18.910   4.479  1.00  0.00     0.035 C 
HETATM   11  C   UNL     1      44.540 -20.332   4.505  1.00  0.00     0.002 C 
HETATM   12  C   UNL     1      44.041 -21.142   3.313  1.00  0.00     0.002 C 
HETATM   13  C   UNL     1      44.395 -20.468   1.987  1.00  0.00     0.027 C 
HETATM   14  H   UNL     1      42.091 -19.563   0.909  1.00  0.00     0.163 HD
ENDROOT
BRANCH   1  15
HETATM   15  C   UNL     1      41.634 -15.438   2.667  1.00  0.00     0.146 C 
BRANCH  15  16
HETATM   16  C   UNL     1      40.548 -15.075   3.645  1.00  0.00     0.224 C 
HETATM   17  N   UNL     1      40.700 -15.184   4.989  1.00  0.00    -0.327 N 
HETATM   18  H   UNL     1      39.851 -14.908   5.477  1.00  0.00     0.169 HD
HETATM   19  O   UNL     1      39.498 -14.584   3.204  1.00  0.00    -0.273 OA
BRANCH  17  20
HETATM   20  C   UNL     1      41.757 -15.579   5.835  1.00  0.00     0.037 A 
HETATM   21  C   UNL     1      42.950 -14.889   6.037  1.00  0.00     0.071 A 
HETATM   22  C   UNL     1      43.915 -15.397   6.909  1.00  0.00     0.118 A 
HETATM   23  C   UNL     1      43.719 -16.581   7.601  1.00  0.00     0.042 A 
HETATM   24  F   UNL     1      45.056 -14.714   7.079  1.00  0.00    -0.206 F 
HETATM   25  C   UNL     1      42.531 -17.277   7.421  1.00  0.00     0.005 A 
HETATM   26  C   UNL     1      41.560 -16.778   6.545  1.00  0.00     0.029 A 
ENDBRANCH  17  20
ENDBRANCH  15  16
ENDBRANCH   1  15
TORSDOF 3
ENDMDL
