MODEL 1
REMARK VINA RESULT:      -9.3      0.000      0.000
REMARK  6 active torsions:
REMARK  status: ('A' for Active; 'I' for Inactive)
REMARK    1  A    between atoms: C_2  and  O_3 
REMARK    2  A    between atoms: C_2  and  C_4 
REMARK    3  A    between atoms: C_6  and  N_7 
REMARK       I    between atoms: N_7  and  C_8 
REMARK    4  A    between atoms: C_8  and  C_9 
REMARK    5  A    between atoms: C_14  and  C_15 
REMARK    6  A    between atoms: C_23  and  C_24 
ROOT
HETATM    1  C   UNL     1      42.774 -13.649   5.861  1.00  0.00     0.148 A 
HETATM    2  N   UNL     1      41.630 -14.371   5.785  1.00  0.00    -0.165 NA
HETATM    3  N   UNL     1      41.874 -15.237   4.781  1.00  0.00    -0.240 N 
HETATM    4  C   UNL     1      43.069 -15.031   4.154  1.00  0.00     0.123 A 
HETATM    5  N   UNL     1      43.448 -15.746   3.077  1.00  0.00    -0.366 N 
HETATM    6  C   UNL     1      42.671 -16.862   2.560  1.00  0.00     0.118 C 
HETATM    7  C   UNL     1      41.190 -16.769   2.969  1.00  0.00     0.066 C 
HETATM    8  C   UNL     1      40.916 -16.255   4.397  1.00  0.00     0.221 C 
HETATM    9  C   UNL     1      43.692 -14.029   4.847  1.00  0.00     0.089 A 
HETATM   10  H   UNL     1      44.392 -15.662   2.702  1.00  0.00     0.161 HD
ENDROOT
BRANCH   1  11
HETATM   11  C   UNL     1      42.996 -12.606   6.879  1.00  0.00     0.276 C 
HETATM   12  N   UNL     1      43.906 -12.995   7.842  1.00  0.00    -0.322 N 
HETATM   13  H   UNL     1      44.248 -13.945   7.722  1.00  0.00     0.169 HD
HETATM   14  O   UNL     1      42.397 -11.537   6.826  1.00  0.00    -0.266 OA
BRANCH  12  15
HETATM   15  C   UNL     1      44.380 -12.249   8.936  1.00  0.00     0.035 A 
HETATM   16  C   UNL     1      43.652 -12.053  10.113  1.00  0.00     0.039 A 
HETATM   17  C   UNL     1      44.168 -11.286  11.174  1.00  0.00    -0.028 A 
HETATM   18  C   UNL     1      45.447 -10.732  11.042  1.00  0.00     0.010 A 
HETATM   19  C   UNL     1      46.181 -10.920   9.871  1.00  0.00     0.003 A 
HETATM   20  C   UNL     1      45.647 -11.669   8.821  1.00  0.00     0.029 A 
BRANCH  17  21
HETATM   21  C   UNL     1      43.340 -11.103  12.428  1.00  0.00     0.147 C 
HETATM   22  C   UNL     1      43.227  -9.634  12.817  1.00  0.00     0.044 C 
BRANCH  21  23
HETATM   23  O   UNL     1      42.029 -11.636  12.243  1.00  0.00    -0.391 OA
HETATM   24  H   UNL     1      42.034 -12.531  12.621  1.00  0.00     0.210 HD
ENDBRANCH  21  23
ENDBRANCH  17  21
ENDBRANCH  12  15
ENDBRANCH   1  11
BRANCH   8  25
HETATM   25  C   UNL     1      40.863 -17.353   5.436  1.00  0.00     0.409 C 
HETATM   26  F   UNL     1      39.902 -17.179   6.362  1.00  0.00    -0.169 F 
HETATM   27  F   UNL     1      40.674 -18.570   4.878  1.00  0.00    -0.169 F 
HETATM   28  F   UNL     1      42.047 -17.423   6.099  1.00  0.00    -0.169 F 
ENDBRANCH   8  25
BRANCH   6  29
HETATM   29  C   UNL     1      43.350 -18.194   2.830  1.00  0.00    -0.035 A 
HETATM   30  C   UNL     1      43.259 -19.286   1.949  1.00  0.00     0.012 A 
HETATM   31  C   UNL     1      43.865 -20.508   2.254  1.00  0.00     0.043 A 
HETATM   32  C   UNL     1      44.552 -20.652   3.449  1.00  0.00     0.116 A 
HETATM   33  F   UNL     1      45.119 -21.828   3.749  1.00  0.00    -0.206 F 
HETATM   34  C   UNL     1      44.657 -19.594   4.342  1.00  0.00     0.043 A 
HETATM   35  C   UNL     1      44.064 -18.368   4.031  1.00  0.00     0.012 A 
ENDBRANCH   6  29
TORSDOF 6
ENDMDL
MODEL 2
REMARK VINA RESULT:      -9.0      6.524      9.654
REMARK  6 active torsions:
REMARK  status: ('A' for Active; 'I' for Inactive)
REMARK    1  A    between atoms: C_2  and  O_3 
REMARK    2  A    between atoms: C_2  and  C_4 
REMARK    3  A    between atoms: C_6  and  N_7 
REMARK       I    between atoms: N_7  and  C_8 
REMARK    4  A    between atoms: C_8  and  C_9 
REMARK    5  A    between atoms: C_14  and  C_15 
REMARK    6  A    between atoms: C_23  and  C_24 
ROOT
HETATM    1  C   UNL     1      41.086 -15.728   1.250  1.00  0.00     0.148 A 
HETATM    2  N   UNL     1      40.466 -14.560   1.549  1.00  0.00    -0.165 NA
HETATM    3  N   UNL     1      40.226 -14.016   0.339  1.00  0.00    -0.240 N 
HETATM    4  C   UNL     1      40.752 -14.728  -0.700  1.00  0.00     0.123 A 
HETATM    5  N   UNL     1      40.683 -14.297  -1.975  1.00  0.00    -0.366 N 
HETATM    6  C   UNL     1      39.953 -13.100  -2.362  1.00  0.00     0.118 C 
HETATM    7  C   UNL     1      39.787 -12.122  -1.184  1.00  0.00     0.066 C 
HETATM    8  C   UNL     1      39.510 -12.765   0.190  1.00  0.00     0.221 C 
HETATM    9  C   UNL     1      41.290 -15.859  -0.150  1.00  0.00     0.089 A 
HETATM   10  H   UNL     1      40.970 -14.900  -2.745  1.00  0.00     0.161 HD
ENDROOT
BRANCH   1  11
HETATM   11  C   UNL     1      41.485 -16.707   2.276  1.00  0.00     0.276 C 
HETATM   12  N   UNL     1      42.708 -17.287   2.003  1.00  0.00    -0.322 N 
HETATM   13  H   UNL     1      43.120 -16.980   1.125  1.00  0.00     0.169 HD
HETATM   14  O   UNL     1      40.760 -16.944   3.237  1.00  0.00    -0.266 OA
BRANCH  12  15
HETATM   15  C   UNL     1      43.410 -18.231   2.774  1.00  0.00     0.035 A 
HETATM   16  C   UNL     1      43.716 -19.520   2.330  1.00  0.00     0.039 A 
HETATM   17  C   UNL     1      44.410 -20.432   3.148  1.00  0.00    -0.028 A 
HETATM   18  C   UNL     1      44.815 -20.016   4.421  1.00  0.00     0.010 A 
HETATM   19  C   UNL     1      44.514 -18.732   4.875  1.00  0.00     0.003 A 
HETATM   20  C   UNL     1      43.809 -17.846   4.058  1.00  0.00     0.029 A 
BRANCH  17  21
HETATM   21  C   UNL     1      44.715 -21.817   2.620  1.00  0.00     0.147 C 
HETATM   22  C   UNL     1      44.607 -22.872   3.715  1.00  0.00     0.044 C 
BRANCH  21  23
HETATM   23  O   UNL     1      43.823 -22.156   1.559  1.00  0.00    -0.391 OA
HETATM   24  H   UNL     1      43.761 -21.377   0.984  1.00  0.00     0.210 HD
ENDBRANCH  21  23
ENDBRANCH  17  21
ENDBRANCH  12  15
ENDBRANCH   1  11
BRANCH   8  25
HETATM   25  C   UNL     1      38.038 -12.957   0.483  1.00  0.00     0.409 C 
HETATM   26  F   UNL     1      37.713 -12.773   1.775  1.00  0.00    -0.169 F 
HETATM   27  F   UNL     1      37.262 -12.130  -0.253  1.00  0.00    -0.169 F 
HETATM   28  F   UNL     1      37.660 -14.219   0.153  1.00  0.00    -0.169 F 
ENDBRANCH   8  25
BRANCH   6  29
HETATM   29  C   UNL     1      38.685 -13.436  -3.128  1.00  0.00    -0.035 A 
HETATM   30  C   UNL     1      37.789 -12.453  -3.584  1.00  0.00     0.012 A 
HETATM   31  C   UNL     1      36.612 -12.805  -4.250  1.00  0.00     0.043 A 
HETATM   32  C   UNL     1      36.314 -14.145  -4.450  1.00  0.00     0.116 A 
HETATM   33  F   UNL     1      35.178 -14.484  -5.073  1.00  0.00    -0.206 F 
HETATM   34  C   UNL     1      37.176 -15.140  -4.008  1.00  0.00     0.043 A 
HETATM   35  C   UNL     1      38.360 -14.787  -3.355  1.00  0.00     0.012 A 
ENDBRANCH   6  29
TORSDOF 6
ENDMDL
MODEL 3
REMARK VINA RESULT:      -9.0      6.082      9.183
REMARK  6 active torsions:
REMARK  status: ('A' for Active; 'I' for Inactive)
REMARK    1  A    between atoms: C_2  and  O_3 
REMARK    2  A    between atoms: C_2  and  C_4 
REMARK    3  A    between atoms: C_6  and  N_7 
REMARK       I    between atoms: N_7  and  C_8 
REMARK    4  A    between atoms: C_8  and  C_9 
REMARK    5  A    between atoms: C_14  and  C_15 
REMARK    6  A    between atoms: C_23  and  C_24 
ROOT
HETATM    1  C   UNL     1      41.154 -15.949   1.217  1.00  0.00     0.148 A 
HETATM    2  N   UNL     1      40.544 -14.786   1.551  1.00  0.00    -0.165 NA
HETATM    3  N   UNL     1      40.311 -14.202   0.358  1.00  0.00    -0.240 N 
HETATM    4  C   UNL     1      40.834 -14.886  -0.702  1.00  0.00     0.123 A 
HETATM    5  N   UNL     1      40.772 -14.414  -1.962  1.00  0.00    -0.366 N 
HETATM    6  C   UNL     1      40.054 -13.200  -2.313  1.00  0.00     0.118 C 
HETATM    7  C   UNL     1      39.893 -12.258  -1.106  1.00  0.00     0.066 C 
HETATM    8  C   UNL     1      39.607 -12.940   0.247  1.00  0.00     0.221 C 
HETATM    9  C   UNL     1      41.361 -16.038  -0.185  1.00  0.00     0.089 A 
HETATM   10  H   UNL     1      41.056 -14.996  -2.750  1.00  0.00     0.161 HD
ENDROOT
BRANCH   1  11
HETATM   11  C   UNL     1      41.542 -16.964   2.213  1.00  0.00     0.276 C 
HETATM   12  N   UNL     1      42.628 -17.713   1.806  1.00  0.00    -0.322 N 
HETATM   13  H   UNL     1      42.963 -17.476   0.875  1.00  0.00     0.169 HD
HETATM   14  O   UNL     1      40.919 -17.086   3.263  1.00  0.00    -0.266 OA
BRANCH  12  15
HETATM   15  C   UNL     1      43.285 -18.737   2.511  1.00  0.00     0.035 A 
HETATM   16  C   UNL     1      43.670 -18.632   3.850  1.00  0.00     0.039 A 
HETATM   17  C   UNL     1      44.338 -19.683   4.506  1.00  0.00    -0.028 A 
HETATM   18  C   UNL     1      44.595 -20.860   3.795  1.00  0.00     0.010 A 
HETATM   19  C   UNL     1      44.218 -20.976   2.457  1.00  0.00     0.003 A 
HETATM   20  C   UNL     1      43.572 -19.917   1.817  1.00  0.00     0.029 A 
BRANCH  17  21
HETATM   21  C   UNL     1      44.733 -19.518   5.958  1.00  0.00     0.147 C 
HETATM   22  C   UNL     1      45.123 -18.079   6.273  1.00  0.00     0.044 C 
BRANCH  21  23
HETATM   23  O   UNL     1      43.662 -19.907   6.816  1.00  0.00    -0.391 OA
HETATM   24  H   UNL     1      43.990 -20.640   7.361  1.00  0.00     0.210 HD
ENDBRANCH  21  23
ENDBRANCH  17  21
ENDBRANCH  12  15
ENDBRANCH   1  11
BRANCH   8  25
HETATM   25  C   UNL     1      38.133 -13.129   0.530  1.00  0.00     0.409 C 
HETATM   26  F   UNL     1      37.656 -14.328   0.151  1.00  0.00    -0.169 F 
HETATM   27  F   UNL     1      37.844 -12.973   1.842  1.00  0.00    -0.169 F 
HETATM   28  F   UNL     1      37.409 -12.187  -0.129  1.00  0.00    -0.169 F 
ENDBRANCH   8  25
BRANCH   6  29
HETATM   29  C   UNL     1      38.785 -13.500  -3.092  1.00  0.00    -0.035 A 
HETATM   30  C   UNL     1      37.877 -12.499  -3.482  1.00  0.00     0.012 A 
HETATM   31  C   UNL     1      36.700 -12.821  -4.163  1.00  0.00     0.043 A 
HETATM   32  C   UNL     1      36.414 -14.149  -4.444  1.00  0.00     0.116 A 
HETATM   33  F   UNL     1      35.277 -14.460  -5.082  1.00  0.00    -0.206 F 
HETATM   34  C   UNL     1      37.288 -15.161  -4.069  1.00  0.00     0.043 A 
HETATM   35  C   UNL     1      38.472 -14.837  -3.402  1.00  0.00     0.012 A 
ENDBRANCH   6  29
TORSDOF 6
ENDMDL
MODEL 4
REMARK VINA RESULT:      -8.7      5.024      8.155
REMARK  6 active torsions:
REMARK  status: ('A' for Active; 'I' for Inactive)
REMARK    1  A    between atoms: C_2  and  O_3 
REMARK    2  A    between atoms: C_2  and  C_4 
REMARK    3  A    between atoms: C_6  and  N_7 
REMARK       I    between atoms: N_7  and  C_8 
REMARK    4  A    between atoms: C_8  and  C_9 
REMARK    5  A    between atoms: C_14  and  C_15 
REMARK    6  A    between atoms: C_23  and  C_24 
ROOT
HETATM    1  C   UNL     1      41.038 -13.555   2.291  1.00  0.00     0.148 A 
HETATM    2  N   UNL     1      41.401 -13.362   3.582  1.00  0.00    -0.165 NA
HETATM    3  N   UNL     1      41.375 -14.606   4.102  1.00  0.00    -0.240 N 
HETATM    4  C   UNL     1      40.914 -15.556   3.236  1.00  0.00     0.123 A 
HETATM    5  N   UNL     1      40.740 -16.840   3.604  1.00  0.00    -0.366 N 
HETATM    6  C   UNL     1      41.128 -17.343   4.912  1.00  0.00     0.118 C 
HETATM    7  C   UNL     1      41.195 -16.219   5.963  1.00  0.00     0.066 C 
HETATM    8  C   UNL     1      41.763 -14.872   5.473  1.00  0.00     0.221 C 
HETATM    9  C   UNL     1      40.715 -14.916   2.044  1.00  0.00     0.089 A 
HETATM   10  H   UNL     1      40.516 -17.554   2.912  1.00  0.00     0.161 HD
ENDROOT
BRANCH   1  11
HETATM   11  C   UNL     1      40.991 -12.463   1.302  1.00  0.00     0.276 C 
HETATM   12  N   UNL     1      42.041 -12.516   0.407  1.00  0.00    -0.322 N 
HETATM   13  H   UNL     1      42.699 -13.270   0.593  1.00  0.00     0.169 HD
HETATM   14  O   UNL     1      40.096 -11.624   1.332  1.00  0.00    -0.266 OA
BRANCH  12  15
HETATM   15  C   UNL     1      42.295 -11.664  -0.681  1.00  0.00     0.035 A 
HETATM   16  C   UNL     1      41.932 -11.960  -1.998  1.00  0.00     0.039 A 
HETATM   17  C   UNL     1      42.221 -11.077  -3.055  1.00  0.00    -0.028 A 
HETATM   18  C   UNL     1      42.865  -9.869  -2.762  1.00  0.00     0.010 A 
HETATM   19  C   UNL     1      43.233  -9.563  -1.452  1.00  0.00     0.003 A 
HETATM   20  C   UNL     1      42.955 -10.459  -0.418  1.00  0.00     0.029 A 
BRANCH  17  21
HETATM   21  C   UNL     1      41.807 -11.446  -4.463  1.00  0.00     0.147 C 
HETATM   22  C   UNL     1      40.590 -10.649  -4.918  1.00  0.00     0.044 C 
BRANCH  21  23
HETATM   23  O   UNL     1      42.880 -11.216  -5.376  1.00  0.00    -0.391 OA
HETATM   24  H   UNL     1      43.702 -11.423  -4.902  1.00  0.00     0.210 HD
ENDBRANCH  21  23
ENDBRANCH  17  21
ENDBRANCH  12  15
ENDBRANCH   1  11
BRANCH   8  25
HETATM   25  C   UNL     1      43.262 -14.753   5.633  1.00  0.00     0.409 C 
HETATM   26  F   UNL     1      43.692 -13.490   5.807  1.00  0.00    -0.169 F 
HETATM   27  F   UNL     1      43.721 -15.485   6.673  1.00  0.00    -0.169 F 
HETATM   28  F   UNL     1      43.886 -15.237   4.528  1.00  0.00    -0.169 F 
ENDBRANCH   8  25
BRANCH   6  29
HETATM   29  C   UNL     1      42.346 -18.246   4.832  1.00  0.00    -0.035 A 
HETATM   30  C   UNL     1      43.041 -18.691   5.970  1.00  0.00     0.012 A 
HETATM   31  C   UNL     1      44.182 -19.489   5.851  1.00  0.00     0.043 A 
HETATM   32  C   UNL     1      44.647 -19.835   4.591  1.00  0.00     0.116 A 
HETATM   33  F   UNL     1      45.750 -20.585   4.476  1.00  0.00    -0.206 F 
HETATM   34  C   UNL     1      43.986 -19.408   3.447  1.00  0.00     0.043 A 
HETATM   35  C   UNL     1      42.837 -18.623   3.566  1.00  0.00     0.012 A 
ENDBRANCH   6  29
TORSDOF 6
ENDMDL
MODEL 5
REMARK VINA RESULT:      -8.7      6.052      9.099
REMARK  6 active torsions:
REMARK  status: ('A' for Active; 'I' for Inactive)
REMARK    1  A    between atoms: C_2  and  O_3 
REMARK    2  A    between atoms: C_2  and  C_4 
REMARK    3  A    between atoms: C_6  and  N_7 
REMARK       I    between atoms: N_7  and  C_8 
REMARK    4  A    between atoms: C_8  and  C_9 
REMARK    5  A    between atoms: C_14  and  C_15 
REMARK    6  A    between atoms: C_23  and  C_24 
ROOT
HETATM    1  C   UNL     1      41.700 -15.929   2.898  1.00  0.00     0.148 A 
HETATM    2  N   UNL     1      40.465 -15.464   2.589  1.00  0.00    -0.165 NA
HETATM    3  N   UNL     1      40.700 -14.200   2.184  1.00  0.00    -0.240 N 
HETATM    4  C   UNL     1      42.002 -13.811   2.320  1.00  0.00     0.123 A 
HETATM    5  N   UNL     1      42.409 -12.556   2.043  1.00  0.00    -0.366 N 
HETATM    6  C   UNL     1      41.526 -11.549   1.478  1.00  0.00     0.118 C 
HETATM    7  C   UNL     1      40.045 -11.856   1.766  1.00  0.00     0.066 C 
HETATM    8  C   UNL     1      39.639 -13.342   1.696  1.00  0.00     0.221 C 
HETATM    9  C   UNL     1      42.684 -14.915   2.751  1.00  0.00     0.089 A 
HETATM   10  H   UNL     1      43.401 -12.322   2.031  1.00  0.00     0.161 HD
ENDROOT
BRANCH   1  11
HETATM   11  C   UNL     1      41.947 -17.315   3.334  1.00  0.00     0.276 C 
HETATM   12  N   UNL     1      42.886 -17.954   2.548  1.00  0.00    -0.322 N 
HETATM   13  H   UNL     1      43.228 -17.388   1.775  1.00  0.00     0.169 HD
HETATM   14  O   UNL     1      41.344 -17.792   4.289  1.00  0.00    -0.266 OA
BRANCH  12  15
HETATM   15  C   UNL     1      43.388 -19.259   2.691  1.00  0.00     0.035 A 
HETATM   16  C   UNL     1      43.969 -19.742   3.867  1.00  0.00     0.039 A 
HETATM   17  C   UNL     1      44.469 -21.054   3.953  1.00  0.00    -0.028 A 
HETATM   18  C   UNL     1      44.355 -21.890   2.836  1.00  0.00     0.010 A 
HETATM   19  C   UNL     1      43.779 -21.420   1.657  1.00  0.00     0.003 A 
HETATM   20  C   UNL     1      43.304 -20.109   1.582  1.00  0.00     0.029 A 
BRANCH  17  21
HETATM   21  C   UNL     1      45.090 -21.527   5.251  1.00  0.00     0.147 C 
HETATM   22  C   UNL     1      44.128 -21.372   6.422  1.00  0.00     0.044 C 
BRANCH  21  23
HETATM   23  O   UNL     1      45.480 -22.896   5.149  1.00  0.00    -0.391 OA
HETATM   24  H   UNL     1      45.293 -23.306   6.009  1.00  0.00     0.210 HD
ENDBRANCH  21  23
ENDBRANCH  17  21
ENDBRANCH  12  15
ENDBRANCH   1  11
BRANCH   8  25
HETATM   25  C   UNL     1      39.191 -13.782   0.320  1.00  0.00     0.409 C 
HETATM   26  F   UNL     1      40.102 -14.524  -0.336  1.00  0.00    -0.169 F 
HETATM   27  F   UNL     1      38.043 -14.495   0.364  1.00  0.00    -0.169 F 
HETATM   28  F   UNL     1      38.931 -12.696  -0.454  1.00  0.00    -0.169 F 
ENDBRANCH   8  25
BRANCH   6  29
HETATM   29  C   UNL     1      41.869 -11.247   0.029  1.00  0.00    -0.035 A 
HETATM   30  C   UNL     1      42.428 -12.204  -0.836  1.00  0.00     0.012 A 
HETATM   31  C   UNL     1      42.766 -11.875  -2.151  1.00  0.00     0.043 A 
HETATM   32  C   UNL     1      42.564 -10.581  -2.607  1.00  0.00     0.116 A 
HETATM   33  F   UNL     1      42.904 -10.260  -3.862  1.00  0.00    -0.206 F 
HETATM   34  C   UNL     1      42.017  -9.612  -1.776  1.00  0.00     0.043 A 
HETATM   35  C   UNL     1      41.665  -9.945  -0.466  1.00  0.00     0.012 A 
ENDBRANCH   6  29
TORSDOF 6
ENDMDL
MODEL 6
REMARK VINA RESULT:      -8.6      6.898      9.918
REMARK  6 active torsions:
REMARK  status: ('A' for Active; 'I' for Inactive)
REMARK    1  A    between atoms: C_2  and  O_3 
REMARK    2  A    between atoms: C_2  and  C_4 
REMARK    3  A    between atoms: C_6  and  N_7 
REMARK       I    between atoms: N_7  and  C_8 
REMARK    4  A    between atoms: C_8  and  C_9 
REMARK    5  A    between atoms: C_14  and  C_15 
REMARK    6  A    between atoms: C_23  and  C_24 
ROOT
HETATM    1  C   UNL     1      41.178 -15.737   0.582  1.00  0.00     0.148 A 
HETATM    2  N   UNL     1      40.954 -15.623  -0.750  1.00  0.00    -0.165 NA
HETATM    3  N   UNL     1      40.720 -14.306  -0.915  1.00  0.00    -0.240 N 
HETATM    4  C   UNL     1      40.683 -13.602   0.255  1.00  0.00     0.123 A 
HETATM    5  N   UNL     1      40.381 -12.289   0.294  1.00  0.00    -0.366 N 
HETATM    6  C   UNL     1      40.178 -11.493  -0.905  1.00  0.00     0.118 C 
HETATM    7  C   UNL     1      39.779 -12.362  -2.112  1.00  0.00     0.066 C 
HETATM    8  C   UNL     1      40.488 -13.726  -2.223  1.00  0.00     0.221 C 
HETATM    9  C   UNL     1      41.005 -14.492   1.242  1.00  0.00     0.089 A 
HETATM   10  H   UNL     1      40.481 -11.758   1.158  1.00  0.00     0.161 HD
ENDROOT
BRANCH   1  11
HETATM   11  C   UNL     1      41.547 -17.011   1.224  1.00  0.00     0.276 C 
HETATM   12  N   UNL     1      42.718 -16.916   1.950  1.00  0.00    -0.322 N 
HETATM   13  H   UNL     1      43.160 -16.001   1.896  1.00  0.00     0.169 HD
HETATM   14  O   UNL     1      40.853 -18.013   1.081  1.00  0.00    -0.266 OA
BRANCH  12  15
HETATM   15  C   UNL     1      43.346 -17.915   2.714  1.00  0.00     0.035 A 
HETATM   16  C   UNL     1      43.639 -19.193   2.228  1.00  0.00     0.039 A 
HETATM   17  C   UNL     1      44.257 -20.162   3.040  1.00  0.00    -0.028 A 
HETATM   18  C   UNL     1      44.601 -19.817   4.352  1.00  0.00     0.010 A 
HETATM   19  C   UNL     1      44.313 -18.546   4.848  1.00  0.00     0.003 A 
HETATM   20  C   UNL     1      43.682 -17.602   4.035  1.00  0.00     0.029 A 
BRANCH  17  21
HETATM   21  C   UNL     1      44.552 -21.531   2.465  1.00  0.00     0.147 C 
HETATM   22  C   UNL     1      44.577 -22.602   3.550  1.00  0.00     0.044 C 
BRANCH  21  23
HETATM   23  O   UNL     1      43.574 -21.884   1.488  1.00  0.00    -0.391 OA
HETATM   24  H   UNL     1      43.682 -22.833   1.313  1.00  0.00     0.210 HD
ENDBRANCH  21  23
ENDBRANCH  17  21
ENDBRANCH  12  15
ENDBRANCH   1  11
BRANCH   8  25
HETATM   25  C   UNL     1      41.775 -13.677  -3.017  1.00  0.00     0.409 C 
HETATM   26  F   UNL     1      42.122 -14.856  -3.563  1.00  0.00    -0.169 F 
HETATM   27  F   UNL     1      41.720 -12.767  -4.016  1.00  0.00    -0.169 F 
HETATM   28  F   UNL     1      42.801 -13.292  -2.214  1.00  0.00    -0.169 F 
ENDBRANCH   8  25
BRANCH   6  29
HETATM   29  C   UNL     1      41.323 -10.522  -1.139  1.00  0.00    -0.035 A 
HETATM   30  C   UNL     1      41.551  -9.898  -2.377  1.00  0.00     0.012 A 
HETATM   31  C   UNL     1      42.640  -9.042  -2.562  1.00  0.00     0.043 A 
HETATM   32  C   UNL     1      43.519  -8.817  -1.514  1.00  0.00     0.116 A 
HETATM   33  F   UNL     1      44.573  -8.010  -1.696  1.00  0.00    -0.206 F 
HETATM   34  C   UNL     1      43.324  -9.422  -0.279  1.00  0.00     0.043 A 
HETATM   35  C   UNL     1      42.227 -10.265  -0.090  1.00  0.00     0.012 A 
ENDBRANCH   6  29
TORSDOF 6
ENDMDL
MODEL 7
REMARK VINA RESULT:      -8.6      6.352      9.359
REMARK  6 active torsions:
REMARK  status: ('A' for Active; 'I' for Inactive)
REMARK    1  A    between atoms: C_2  and  O_3 
REMARK    2  A    between atoms: C_2  and  C_4 
REMARK    3  A    between atoms: C_6  and  N_7 
REMARK       I    between atoms: N_7  and  C_8 
REMARK    4  A    between atoms: C_8  and  C_9 
REMARK    5  A    between atoms: C_14  and  C_15 
REMARK    6  A    between atoms: C_23  and  C_24 
ROOT
HETATM    1  C   UNL     1      42.062 -15.010   1.150  1.00  0.00     0.148 A 
HETATM    2  N   UNL     1      41.306 -15.528   0.152  1.00  0.00    -0.165 NA
HETATM    3  N   UNL     1      40.817 -14.435  -0.468  1.00  0.00    -0.240 N 
HETATM    4  C   UNL     1      41.140 -13.261   0.149  1.00  0.00     0.123 A 
HETATM    5  N   UNL     1      40.673 -12.072  -0.280  1.00  0.00    -0.366 N 
HETATM    6  C   UNL     1      39.879 -11.929  -1.490  1.00  0.00     0.118 C 
HETATM    7  C   UNL     1      39.174 -13.242  -1.874  1.00  0.00     0.066 C 
HETATM    8  C   UNL     1      39.989 -14.533  -1.654  1.00  0.00     0.221 C 
HETATM    9  C   UNL     1      41.971 -13.593   1.183  1.00  0.00     0.089 A 
HETATM   10  H   UNL     1      41.024 -11.201   0.116  1.00  0.00     0.161 HD
ENDROOT
BRANCH   1  11
HETATM   11  C   UNL     1      42.858 -15.845   2.067  1.00  0.00     0.276 C 
HETATM   12  N   UNL     1      42.662 -17.195   1.855  1.00  0.00    -0.322 N 
HETATM   13  H   UNL     1      41.975 -17.401   1.132  1.00  0.00     0.169 HD
HETATM   14  O   UNL     1      43.587 -15.335   2.912  1.00  0.00    -0.266 OA
BRANCH  12  15
HETATM   15  C   UNL     1      43.276 -18.273   2.515  1.00  0.00     0.035 A 
HETATM   16  C   UNL     1      43.673 -18.236   3.855  1.00  0.00     0.039 A 
HETATM   17  C   UNL     1      44.296 -19.340   4.466  1.00  0.00    -0.028 A 
HETATM   18  C   UNL     1      44.497 -20.500   3.710  1.00  0.00     0.010 A 
HETATM   19  C   UNL     1      44.107 -20.549   2.372  1.00  0.00     0.003 A 
HETATM   20  C   UNL     1      43.506 -19.438   1.776  1.00  0.00     0.029 A 
BRANCH  17  21
HETATM   21  C   UNL     1      44.707 -19.248   5.920  1.00  0.00     0.147 C 
HETATM   22  C   UNL     1      44.759 -17.801   6.398  1.00  0.00     0.044 C 
BRANCH  21  23
HETATM   23  O   UNL     1      43.799 -19.977   6.744  1.00  0.00    -0.391 OA
HETATM   24  H   UNL     1      43.133 -20.364   6.153  1.00  0.00     0.210 HD
ENDBRANCH  21  23
ENDBRANCH  17  21
ENDBRANCH  12  15
ENDBRANCH   1  11
BRANCH   8  25
HETATM   25  C   UNL     1      40.822 -14.935  -2.851  1.00  0.00     0.409 C 
HETATM   26  F   UNL     1      42.024 -14.334  -2.903  1.00  0.00    -0.169 F 
HETATM   27  F   UNL     1      41.033 -16.270  -2.896  1.00  0.00    -0.169 F 
HETATM   28  F   UNL     1      40.168 -14.618  -3.998  1.00  0.00    -0.169 F 
ENDBRANCH   8  25
BRANCH   6  29
HETATM   29  C   UNL     1      40.661 -11.248  -2.601  1.00  0.00    -0.035 A 
HETATM   30  C   UNL     1      40.247 -11.266  -3.944  1.00  0.00     0.012 A 
HETATM   31  C   UNL     1      41.016 -10.662  -4.942  1.00  0.00     0.043 A 
HETATM   32  C   UNL     1      42.214 -10.050  -4.606  1.00  0.00     0.116 A 
HETATM   33  F   UNL     1      42.960  -9.485  -5.565  1.00  0.00    -0.206 F 
HETATM   34  C   UNL     1      42.653 -10.018  -3.289  1.00  0.00     0.043 A 
HETATM   35  C   UNL     1      41.877 -10.609  -2.289  1.00  0.00     0.012 A 
ENDBRANCH   6  29
TORSDOF 6
ENDMDL
MODEL 8
REMARK VINA RESULT:      -8.5      4.798      7.554
REMARK  6 active torsions:
REMARK  status: ('A' for Active; 'I' for Inactive)
REMARK    1  A    between atoms: C_2  and  O_3 
REMARK    2  A    between atoms: C_2  and  C_4 
REMARK    3  A    between atoms: C_6  and  N_7 
REMARK       I    between atoms: N_7  and  C_8 
REMARK    4  A    between atoms: C_8  and  C_9 
REMARK    5  A    between atoms: C_14  and  C_15 
REMARK    6  A    between atoms: C_23  and  C_24 
ROOT
HETATM    1  C   UNL     1      40.965 -13.756   1.931  1.00  0.00     0.148 A 
HETATM    2  N   UNL     1      41.349 -13.510   3.207  1.00  0.00    -0.165 NA
HETATM    3  N   UNL     1      41.359 -14.735   3.771  1.00  0.00    -0.240 N 
HETATM    4  C   UNL     1      40.903 -15.724   2.948  1.00  0.00     0.123 A 
HETATM    5  N   UNL     1      40.764 -16.998   3.365  1.00  0.00    -0.366 N 
HETATM    6  C   UNL     1      41.186 -17.445   4.683  1.00  0.00     0.118 C 
HETATM    7  C   UNL     1      41.249 -16.284   5.691  1.00  0.00     0.066 C 
HETATM    8  C   UNL     1      41.778 -14.943   5.143  1.00  0.00     0.221 C 
HETATM    9  C   UNL     1      40.667 -15.131   1.738  1.00  0.00     0.089 A 
HETATM   10  H   UNL     1      40.542 -17.741   2.703  1.00  0.00     0.161 HD
ENDROOT
BRANCH   1  11
HETATM   11  C   UNL     1      40.876 -12.702   0.905  1.00  0.00     0.276 C 
HETATM   12  N   UNL     1      42.053 -12.552   0.199  1.00  0.00    -0.322 N 
HETATM   13  H   UNL     1      42.804 -13.159   0.521  1.00  0.00     0.169 HD
HETATM   14  O   UNL     1      39.843 -12.057   0.753  1.00  0.00    -0.266 OA
BRANCH  12  15
HETATM   15  C   UNL     1      42.318 -11.673  -0.866  1.00  0.00     0.035 A 
HETATM   16  C   UNL     1      42.766 -10.360  -0.693  1.00  0.00     0.039 A 
HETATM   17  C   UNL     1      43.003  -9.516  -1.794  1.00  0.00    -0.028 A 
HETATM   18  C   UNL     1      42.803 -10.023  -3.084  1.00  0.00     0.010 A 
HETATM   19  C   UNL     1      42.355 -11.331  -3.268  1.00  0.00     0.003 A 
HETATM   20  C   UNL     1      42.107 -12.149  -2.164  1.00  0.00     0.029 A 
BRANCH  17  21
HETATM   21  C   UNL     1      43.487  -8.102  -1.553  1.00  0.00     0.147 C 
HETATM   22  C   UNL     1      42.661  -7.401  -0.481  1.00  0.00     0.044 C 
BRANCH  21  23
HETATM   23  O   UNL     1      44.857  -8.103  -1.156  1.00  0.00    -0.391 OA
HETATM   24  H   UNL     1      44.910  -7.601  -0.327  1.00  0.00     0.210 HD
ENDBRANCH  21  23
ENDBRANCH  17  21
ENDBRANCH  12  15
ENDBRANCH   1  11
BRANCH   8  25
HETATM   25  C   UNL     1      43.278 -14.787   5.269  1.00  0.00     0.409 C 
HETATM   26  F   UNL     1      43.811 -15.479   6.291  1.00  0.00    -0.169 F 
HETATM   27  F   UNL     1      43.923 -15.165   4.142  1.00  0.00    -0.169 F 
HETATM   28  F   UNL     1      43.594 -13.481   5.463  1.00  0.00    -0.169 F 
ENDBRANCH   8  25
BRANCH   6  29
HETATM   29  C   UNL     1      42.423 -18.325   4.610  1.00  0.00    -0.035 A 
HETATM   30  C   UNL     1      42.982 -18.753   3.393  1.00  0.00     0.012 A 
HETATM   31  C   UNL     1      44.096 -19.595   3.370  1.00  0.00     0.043 A 
HETATM   32  C   UNL     1      44.650 -20.030   4.565  1.00  0.00     0.116 A 
HETATM   33  F   UNL     1      45.709 -20.851   4.544  1.00  0.00    -0.206 F 
HETATM   34  C   UNL     1      44.119 -19.629   5.784  1.00  0.00     0.043 A 
HETATM   35  C   UNL     1      43.014 -18.775   5.807  1.00  0.00     0.012 A 
ENDBRANCH   6  29
TORSDOF 6
ENDMDL
MODEL 9
REMARK VINA RESULT:      -8.4      2.565      3.092
REMARK  6 active torsions:
REMARK  status: ('A' for Active; 'I' for Inactive)
REMARK    1  A    between atoms: C_2  and  O_3 
REMARK    2  A    between atoms: C_2  and  C_4 
REMARK    3  A    between atoms: C_6  and  N_7 
REMARK       I    between atoms: N_7  and  C_8 
REMARK    4  A    between atoms: C_8  and  C_9 
REMARK    5  A    between atoms: C_14  and  C_15 
REMARK    6  A    between atoms: C_23  and  C_24 
ROOT
HETATM    1  C   UNL     1      41.078 -12.414   5.853  1.00  0.00     0.148 A 
HETATM    2  N   UNL     1      40.401 -12.625   4.698  1.00  0.00    -0.165 NA
HETATM    3  N   UNL     1      41.282 -13.308   3.940  1.00  0.00    -0.240 N 
HETATM    4  C   UNL     1      42.513 -13.447   4.515  1.00  0.00     0.123 A 
HETATM    5  N   UNL     1      43.545 -14.029   3.873  1.00  0.00    -0.366 N 
HETATM    6  C   UNL     1      43.408 -14.649   2.565  1.00  0.00     0.118 C 
HETATM    7  C   UNL     1      42.204 -14.089   1.786  1.00  0.00     0.066 C 
HETATM    8  C   UNL     1      40.940 -13.797   2.619  1.00  0.00     0.221 C 
HETATM    9  C   UNL     1      42.408 -12.907   5.768  1.00  0.00     0.089 A 
HETATM   10  H   UNL     1      44.414 -14.234   4.364  1.00  0.00     0.161 HD
ENDROOT
BRANCH   1  11
HETATM   11  C   UNL     1      40.478 -11.749   7.023  1.00  0.00     0.276 C 
HETATM   12  N   UNL     1      41.428 -11.274   7.905  1.00  0.00    -0.322 N 
HETATM   13  H   UNL     1      42.384 -11.490   7.631  1.00  0.00     0.169 HD
HETATM   14  O   UNL     1      39.259 -11.671   7.146  1.00  0.00    -0.266 OA
BRANCH  12  15
HETATM   15  C   UNL     1      41.221 -10.564   9.100  1.00  0.00     0.035 A 
HETATM   16  C   UNL     1      41.361 -11.129  10.371  1.00  0.00     0.039 A 
HETATM   17  C   UNL     1      41.129 -10.376  11.537  1.00  0.00    -0.028 A 
HETATM   18  C   UNL     1      40.772  -9.029  11.406  1.00  0.00     0.010 A 
HETATM   19  C   UNL     1      40.627  -8.455  10.143  1.00  0.00     0.003 A 
HETATM   20  C   UNL     1      40.844  -9.221   8.996  1.00  0.00     0.029 A 
BRANCH  17  21
HETATM   21  C   UNL     1      41.294 -11.035  12.890  1.00  0.00     0.147 C 
HETATM   22  C   UNL     1      41.139 -10.032  14.026  1.00  0.00     0.044 C 
BRANCH  21  23
HETATM   23  O   UNL     1      40.336 -12.079  13.058  1.00  0.00    -0.391 OA
HETATM   24  H   UNL     1      40.572 -12.782  12.431  1.00  0.00     0.210 HD
ENDBRANCH  21  23
ENDBRANCH  17  21
ENDBRANCH  12  15
ENDBRANCH   1  11
BRANCH   8  25
HETATM   25  C   UNL     1      39.995 -14.974   2.718  1.00  0.00     0.409 C 
HETATM   26  F   UNL     1      38.697 -14.642   2.587  1.00  0.00    -0.169 F 
HETATM   27  F   UNL     1      40.266 -15.922   1.792  1.00  0.00    -0.169 F 
HETATM   28  F   UNL     1      40.131 -15.579   3.927  1.00  0.00    -0.169 F 
ENDBRANCH   8  25
BRANCH   6  29
HETATM   29  C   UNL     1      43.496 -16.164   2.647  1.00  0.00    -0.035 A 
HETATM   30  C   UNL     1      43.743 -16.974   1.525  1.00  0.00     0.012 A 
HETATM   31  C   UNL     1      43.776 -18.366   1.635  1.00  0.00     0.043 A 
HETATM   32  C   UNL     1      43.547 -18.960   2.867  1.00  0.00     0.116 A 
HETATM   33  F   UNL     1      43.563 -20.296   2.971  1.00  0.00    -0.206 F 
HETATM   34  C   UNL     1      43.297 -18.189   3.995  1.00  0.00     0.043 A 
HETATM   35  C   UNL     1      43.278 -16.796   3.887  1.00  0.00     0.012 A 
ENDBRANCH   6  29
TORSDOF 6
ENDMDL
MODEL 10
REMARK VINA RESULT:      -8.4      6.268      9.375
REMARK  6 active torsions:
REMARK  status: ('A' for Active; 'I' for Inactive)
REMARK    1  A    between atoms: C_2  and  O_3 
REMARK    2  A    between atoms: C_2  and  C_4 
REMARK    3  A    between atoms: C_6  and  N_7 
REMARK       I    between atoms: N_7  and  C_8 
REMARK    4  A    between atoms: C_8  and  C_9 
REMARK    5  A    between atoms: C_14  and  C_15 
REMARK    6  A    between atoms: C_23  and  C_24 
ROOT
HETATM    1  C   UNL     1      41.193 -15.674   0.609  1.00  0.00     0.148 A 
HETATM    2  N   UNL     1      40.942 -15.555  -0.717  1.00  0.00    -0.165 NA
HETATM    3  N   UNL     1      40.736 -14.232  -0.878  1.00  0.00    -0.240 N 
HETATM    4  C   UNL     1      40.742 -13.528   0.292  1.00  0.00     0.123 A 
HETATM    5  N   UNL     1      40.473 -12.208   0.337  1.00  0.00    -0.366 N 
HETATM    6  C   UNL     1      40.262 -11.407  -0.858  1.00  0.00     0.118 C 
HETATM    7  C   UNL     1      39.816 -12.266  -2.055  1.00  0.00     0.066 C 
HETATM    8  C   UNL     1      40.490 -13.647  -2.181  1.00  0.00     0.221 C 
HETATM    9  C   UNL     1      41.064 -14.425   1.272  1.00  0.00     0.089 A 
HETATM   10  H   UNL     1      40.604 -11.679   1.198  1.00  0.00     0.161 HD
ENDROOT
BRANCH   1  11
HETATM   11  C   UNL     1      41.544 -16.956   1.244  1.00  0.00     0.276 C 
HETATM   12  N   UNL     1      42.764 -16.908   1.891  1.00  0.00    -0.322 N 
HETATM   13  H   UNL     1      43.242 -16.015   1.795  1.00  0.00     0.169 HD
HETATM   14  O   UNL     1      40.798 -17.927   1.161  1.00  0.00    -0.266 OA
BRANCH  12  15
HETATM   15  C   UNL     1      43.395 -17.926   2.626  1.00  0.00     0.035 A 
HETATM   16  C   UNL     1      43.697 -17.825   3.987  1.00  0.00     0.039 A 
HETATM   17  C   UNL     1      44.341 -18.870   4.675  1.00  0.00    -0.028 A 
HETATM   18  C   UNL     1      44.660 -20.038   3.972  1.00  0.00     0.010 A 
HETATM   19  C   UNL     1      44.365 -20.150   2.614  1.00  0.00     0.003 A 
HETATM   20  C   UNL     1      43.741 -19.096   1.943  1.00  0.00     0.029 A 
BRANCH  17  21
HETATM   21  C   UNL     1      44.647 -18.710   6.148  1.00  0.00     0.147 C 
HETATM   22  C   UNL     1      44.504 -17.261   6.597  1.00  0.00     0.044 C 
BRANCH  21  23
HETATM   23  O   UNL     1      43.777 -19.526   6.932  1.00  0.00    -0.391 OA
HETATM   24  H   UNL     1      44.076 -20.443   6.819  1.00  0.00     0.210 HD
ENDBRANCH  21  23
ENDBRANCH  17  21
ENDBRANCH  12  15
ENDBRANCH   1  11
BRANCH   8  25
HETATM   25  C   UNL     1      41.759 -13.629  -3.003  1.00  0.00     0.409 C 
HETATM   26  F   UNL     1      42.059 -14.813  -3.567  1.00  0.00    -0.169 F 
HETATM   27  F   UNL     1      41.709 -12.709  -3.993  1.00  0.00    -0.169 F 
HETATM   28  F   UNL     1      42.814 -13.282  -2.221  1.00  0.00    -0.169 F 
ENDBRANCH   8  25
BRANCH   6  29
HETATM   29  C   UNL     1      41.425 -10.464  -1.117  1.00  0.00    -0.035 A 
HETATM   30  C   UNL     1      42.549 -10.392  -0.275  1.00  0.00     0.012 A 
HETATM   31  C   UNL     1      43.579  -9.483  -0.527  1.00  0.00     0.043 A 
HETATM   32  C   UNL     1      43.486  -8.627  -1.614  1.00  0.00     0.116 A 
HETATM   33  F   UNL     1      44.466  -7.743  -1.846  1.00  0.00    -0.206 F 
HETATM   34  C   UNL     1      42.388  -8.670  -2.463  1.00  0.00     0.043 A 
HETATM   35  C   UNL     1      41.365  -9.590  -2.220  1.00  0.00     0.012 A 
ENDBRANCH   6  29
TORSDOF 6
ENDMDL
