MODEL 1
REMARK VINA RESULT:     -10.2      0.000      0.000
REMARK  5 active torsions:
REMARK  status: ('A' for Active; 'I' for Inactive)
REMARK    1  A    between atoms: N_3  and  C_4 
REMARK    2  A    between atoms: C_6  and  C_7 
REMARK    3  A    between atoms: C_15  and  C_16 
REMARK       I    between atoms: C_16  and  N_17 
REMARK    4  A    between atoms: N_17  and  N_18 
REMARK       I    between atoms: N_18  and  C_19 
REMARK    5  A    between atoms: C_19  and  C_20 
ROOT
HETATM    1  C   UNL     1      43.389 -17.642   1.056  1.00  0.00     0.070 C 
HETATM    2  C   UNL     1      43.412 -16.626   2.175  1.00  0.00     0.036 C 
HETATM    3  N   UNL     1      43.579 -17.033   3.507  1.00  0.00    -0.238 N 
HETATM    4  N   UNL     1      43.302 -16.210   4.576  1.00  0.00    -0.158 NA
HETATM    5  C   UNL     1      43.059 -14.950   4.355  1.00  0.00     0.196 C 
HETATM    6  C   UNL     1      43.098 -14.390   2.961  1.00  0.00     0.209 C 
HETATM    7  O   UNL     1      43.054 -13.183   2.778  1.00  0.00    -0.286 OA
HETATM    8  C   UNL     1      43.176 -15.344   1.853  1.00  0.00     0.084 C 
ENDROOT
BRANCH   5   9
HETATM    9  C   UNL     1      42.730 -14.087   5.565  1.00  0.00     0.294 C 
HETATM   10  N   UNL     1      43.719 -13.994   6.525  1.00  0.00    -0.261 N 
HETATM   11  H   UNL     1      44.689 -14.271   6.334  1.00  0.00     0.190 HD
HETATM   12  O   UNL     1      41.647 -13.517   5.652  1.00  0.00    -0.264 OA
BRANCH  10  13
HETATM   13  N   UNL     1      43.514 -13.100   7.585  1.00  0.00    -0.262 N 
HETATM   14  C   UNL     1      44.581 -12.746   8.385  1.00  0.00     0.286 C 
HETATM   15  O   UNL     1      45.691 -13.260   8.254  1.00  0.00    -0.264 OA
HETATM   16  H   UNL     1      42.627 -12.603   7.600  1.00  0.00     0.190 HD
BRANCH  14  17
HETATM   17  C   UNL     1      44.305 -11.732   9.378  1.00  0.00     0.102 A 
HETATM   18  N   UNL     1      43.019 -11.286   9.608  1.00  0.00    -0.361 N 
HETATM   19  H   UNL     1      42.208 -11.631   9.108  1.00  0.00     0.165 HD
HETATM   20  C   UNL     1      43.014 -10.329  10.585  1.00  0.00     0.088 A 
HETATM   21  C   UNL     1      44.311 -10.145  11.002  1.00  0.00     0.019 A 
HETATM   22  C   UNL     1      45.125 -11.026  10.245  1.00  0.00     0.036 A 
ENDBRANCH  14  17
ENDBRANCH  10  13
ENDBRANCH   5   9
BRANCH   3  23
HETATM   23  C   UNL     1      43.990 -18.342   3.917  1.00  0.00     0.059 A 
HETATM   24  C   UNL     1      43.969 -19.409   2.998  1.00  0.00     0.047 A 
HETATM   25  C   UNL     1      44.343 -20.712   3.369  1.00  0.00     0.050 A 
HETATM   26  C   UNL     1      44.750 -20.950   4.688  1.00  0.00     0.016 A 
HETATM   27  C   UNL     1      44.753 -19.914   5.620  1.00  0.00     0.003 A 
HETATM   28  C   UNL     1      44.366 -18.626   5.238  1.00  0.00     0.031 A 
BRANCH  25  29
HETATM   29  C   UNL     1      44.336 -21.835   2.361  1.00  0.00     0.417 C 
HETATM   30  F   UNL     1      44.745 -23.030   2.865  1.00  0.00    -0.166 F 
HETATM   31  F   UNL     1      43.095 -22.052   1.843  1.00  0.00    -0.166 F 
HETATM   32  F   UNL     1      45.145 -21.586   1.292  1.00  0.00    -0.166 F 
ENDBRANCH  25  29
ENDBRANCH   3  23
TORSDOF 5
ENDMDL
MODEL 2
REMARK VINA RESULT:     -10.0      1.588      2.112
REMARK  5 active torsions:
REMARK  status: ('A' for Active; 'I' for Inactive)
REMARK    1  A    between atoms: N_3  and  C_4 
REMARK    2  A    between atoms: C_6  and  C_7 
REMARK    3  A    between atoms: C_15  and  C_16 
REMARK       I    between atoms: C_16  and  N_17 
REMARK    4  A    between atoms: N_17  and  N_18 
REMARK       I    between atoms: N_18  and  C_19 
REMARK    5  A    between atoms: C_19  and  C_20 
ROOT
HETATM    1  C   UNL     1      42.564 -17.293   0.623  1.00  0.00     0.070 C 
HETATM    2  C   UNL     1      42.947 -16.680   1.950  1.00  0.00     0.036 C 
HETATM    3  N   UNL     1      43.354 -17.489   3.022  1.00  0.00    -0.238 N 
HETATM    4  N   UNL     1      43.414 -17.030   4.319  1.00  0.00    -0.158 NA
HETATM    5  C   UNL     1      43.275 -15.755   4.544  1.00  0.00     0.196 C 
HETATM    6  C   UNL     1      43.072 -14.790   3.409  1.00  0.00     0.209 C 
HETATM    7  O   UNL     1      43.128 -13.585   3.605  1.00  0.00    -0.286 OA
HETATM    8  C   UNL     1      42.796 -15.353   2.086  1.00  0.00     0.084 C 
ENDROOT
BRANCH   5   9
HETATM    9  C   UNL     1      43.319 -15.300   5.995  1.00  0.00     0.294 C 
HETATM   10  N   UNL     1      44.062 -14.163   6.247  1.00  0.00    -0.261 N 
HETATM   11  H   UNL     1      44.354 -13.527   5.495  1.00  0.00     0.190 HD
HETATM   12  O   UNL     1      42.719 -15.922   6.865  1.00  0.00    -0.264 OA
BRANCH  10  13
HETATM   13  N   UNL     1      44.015 -13.629   7.543  1.00  0.00    -0.262 N 
HETATM   14  C   UNL     1      45.106 -12.938   8.027  1.00  0.00     0.286 C 
HETATM   15  O   UNL     1      46.156 -12.850   7.392  1.00  0.00    -0.264 OA
HETATM   16  H   UNL     1      43.106 -13.611   7.998  1.00  0.00     0.190 HD
BRANCH  14  17
HETATM   17  C   UNL     1      44.928 -12.323   9.324  1.00  0.00     0.102 A 
HETATM   18  N   UNL     1      43.991 -12.799  10.219  1.00  0.00    -0.361 N 
HETATM   19  H   UNL     1      43.384 -13.588  10.030  1.00  0.00     0.165 HD
HETATM   20  C   UNL     1      44.008 -12.055  11.367  1.00  0.00     0.088 A 
HETATM   21  C   UNL     1      44.967 -11.081  11.223  1.00  0.00     0.019 A 
HETATM   22  C   UNL     1      45.546 -11.246   9.940  1.00  0.00     0.036 A 
ENDBRANCH  14  17
ENDBRANCH  10  13
ENDBRANCH   5   9
BRANCH   3  23
HETATM   23  C   UNL     1      43.691 -18.876   2.917  1.00  0.00     0.059 A 
HETATM   24  C   UNL     1      43.992 -19.621   4.074  1.00  0.00     0.047 A 
HETATM   25  C   UNL     1      44.347 -20.978   4.009  1.00  0.00     0.050 A 
HETATM   26  C   UNL     1      44.400 -21.605   2.758  1.00  0.00     0.016 A 
HETATM   27  C   UNL     1      44.132 -20.881   1.598  1.00  0.00     0.003 A 
HETATM   28  C   UNL     1      43.791 -19.528   1.678  1.00  0.00     0.031 A 
BRANCH  25  29
HETATM   29  C   UNL     1      44.642 -21.762   5.264  1.00  0.00     0.417 C 
HETATM   30  F   UNL     1      43.848 -22.853   5.432  1.00  0.00    -0.166 F 
HETATM   31  F   UNL     1      45.924 -22.224   5.293  1.00  0.00    -0.166 F 
HETATM   32  F   UNL     1      44.493 -21.015   6.396  1.00  0.00    -0.166 F 
ENDBRANCH  25  29
ENDBRANCH   3  23
TORSDOF 5
ENDMDL
MODEL 3
REMARK VINA RESULT:      -9.5      3.523      7.380
REMARK  5 active torsions:
REMARK  status: ('A' for Active; 'I' for Inactive)
REMARK    1  A    between atoms: N_3  and  C_4 
REMARK    2  A    between atoms: C_6  and  C_7 
REMARK    3  A    between atoms: C_15  and  C_16 
REMARK       I    between atoms: C_16  and  N_17 
REMARK    4  A    between atoms: N_17  and  N_18 
REMARK       I    between atoms: N_18  and  C_19 
REMARK    5  A    between atoms: C_19  and  C_20 
ROOT
HETATM    1  C   UNL     1      44.432 -15.303   6.712  1.00  0.00     0.070 C 
HETATM    2  C   UNL     1      43.252 -15.246   5.768  1.00  0.00     0.036 C 
HETATM    3  N   UNL     1      42.878 -16.373   5.021  1.00  0.00    -0.238 N 
HETATM    4  N   UNL     1      42.030 -16.299   3.938  1.00  0.00    -0.158 NA
HETATM    5  C   UNL     1      41.398 -15.184   3.707  1.00  0.00     0.196 C 
HETATM    6  C   UNL     1      41.571 -13.998   4.615  1.00  0.00     0.209 C 
HETATM    7  O   UNL     1      40.841 -13.025   4.503  1.00  0.00    -0.286 OA
HETATM    8  C   UNL     1      42.643 -14.060   5.609  1.00  0.00     0.084 C 
ENDROOT
BRANCH   5   9
HETATM    9  C   UNL     1      40.495 -15.142   2.483  1.00  0.00     0.294 C 
HETATM   10  N   UNL     1      41.124 -15.318   1.266  1.00  0.00    -0.261 N 
HETATM   11  H   UNL     1      42.076 -15.696   1.195  1.00  0.00     0.190 HD
HETATM   12  O   UNL     1      39.287 -14.967   2.601  1.00  0.00    -0.264 OA
BRANCH  10  13
HETATM   13  N   UNL     1      40.315 -15.427   0.125  1.00  0.00    -0.262 N 
HETATM   14  C   UNL     1      40.723 -14.834  -1.051  1.00  0.00     0.286 C 
HETATM   15  O   UNL     1      41.733 -14.135  -1.111  1.00  0.00    -0.264 OA
HETATM   16  H   UNL     1      39.554 -16.101   0.167  1.00  0.00     0.190 HD
BRANCH  14  17
HETATM   17  C   UNL     1      39.888 -15.096  -2.203  1.00  0.00     0.102 A 
HETATM   18  N   UNL     1      38.611 -14.579  -2.293  1.00  0.00    -0.361 N 
HETATM   19  H   UNL     1      38.189 -13.999  -1.578  1.00  0.00     0.165 HD
HETATM   20  C   UNL     1      38.023 -14.966  -3.466  1.00  0.00     0.088 A 
HETATM   21  C   UNL     1      38.924 -15.745  -4.152  1.00  0.00     0.019 A 
HETATM   22  C   UNL     1      40.097 -15.829  -3.360  1.00  0.00     0.036 A 
ENDBRANCH  14  17
ENDBRANCH  10  13
ENDBRANCH   5   9
BRANCH   3  23
HETATM   23  C   UNL     1      43.366 -17.700   5.244  1.00  0.00     0.059 A 
HETATM   24  C   UNL     1      43.684 -18.530   4.150  1.00  0.00     0.047 A 
HETATM   25  C   UNL     1      44.144 -19.845   4.329  1.00  0.00     0.050 A 
HETATM   26  C   UNL     1      44.292 -20.339   5.631  1.00  0.00     0.016 A 
HETATM   27  C   UNL     1      43.958 -19.545   6.726  1.00  0.00     0.003 A 
HETATM   28  C   UNL     1      43.490 -18.243   6.531  1.00  0.00     0.031 A 
BRANCH  25  29
HETATM   29  C   UNL     1      44.501 -20.707   3.144  1.00  0.00     0.417 C 
HETATM   30  F   UNL     1      45.669 -20.357   2.539  1.00  0.00    -0.166 F 
HETATM   31  F   UNL     1      44.636 -22.020   3.485  1.00  0.00    -0.166 F 
HETATM   32  F   UNL     1      43.551 -20.674   2.166  1.00  0.00    -0.166 F 
ENDBRANCH  25  29
ENDBRANCH   3  23
TORSDOF 5
ENDMDL
MODEL 4
REMARK VINA RESULT:      -9.5      1.478      2.016
REMARK  5 active torsions:
REMARK  status: ('A' for Active; 'I' for Inactive)
REMARK    1  A    between atoms: N_3  and  C_4 
REMARK    2  A    between atoms: C_6  and  C_7 
REMARK    3  A    between atoms: C_15  and  C_16 
REMARK       I    between atoms: C_16  and  N_17 
REMARK    4  A    between atoms: N_17  and  N_18 
REMARK       I    between atoms: N_18  and  C_19 
REMARK    5  A    between atoms: C_19  and  C_20 
ROOT
HETATM    1  C   UNL     1      41.684 -16.837   2.785  1.00  0.00     0.070 C 
HETATM    2  C   UNL     1      42.418 -15.928   3.744  1.00  0.00     0.036 C 
HETATM    3  N   UNL     1      43.232 -16.461   4.755  1.00  0.00    -0.238 N 
HETATM    4  N   UNL     1      43.668 -15.717   5.829  1.00  0.00    -0.158 NA
HETATM    5  C   UNL     1      43.483 -14.428   5.820  1.00  0.00     0.196 C 
HETATM    6  C   UNL     1      42.824 -13.753   4.650  1.00  0.00     0.209 C 
HETATM    7  O   UNL     1      42.820 -12.534   4.562  1.00  0.00    -0.286 OA
HETATM    8  C   UNL     1      42.187 -14.609   3.647  1.00  0.00     0.084 C 
ENDROOT
BRANCH   5   9
HETATM    9  C   UNL     1      43.955 -13.653   7.041  1.00  0.00     0.294 C 
HETATM   10  N   UNL     1      43.213 -12.534   7.367  1.00  0.00    -0.261 N 
HETATM   11  H   UNL     1      42.276 -12.372   6.980  1.00  0.00     0.190 HD
HETATM   12  O   UNL     1      44.933 -14.026   7.680  1.00  0.00    -0.264 OA
BRANCH  10  13
HETATM   13  N   UNL     1      43.526 -11.872   8.564  1.00  0.00    -0.262 N 
HETATM   14  C   UNL     1      42.624 -10.975   9.094  1.00  0.00     0.286 C 
HETATM   15  O   UNL     1      41.589 -10.667   8.504  1.00  0.00    -0.264 OA
HETATM   16  H   UNL     1      44.322 -12.227   9.088  1.00  0.00     0.190 HD
BRANCH  14  17
HETATM   17  C   UNL     1      42.975 -10.428  10.386  1.00  0.00     0.102 A 
HETATM   18  N   UNL     1      42.341  -9.309  10.886  1.00  0.00    -0.361 N 
HETATM   19  H   UNL     1      41.608  -8.811  10.393  1.00  0.00     0.165 HD
HETATM   20  C   UNL     1      42.846  -8.984  12.115  1.00  0.00     0.088 A 
HETATM   21  C   UNL     1      43.822  -9.901  12.425  1.00  0.00     0.019 A 
HETATM   22  C   UNL     1      43.906 -10.810  11.340  1.00  0.00     0.036 A 
ENDBRANCH  14  17
ENDBRANCH  10  13
ENDBRANCH   5   9
BRANCH   3  23
HETATM   23  C   UNL     1      43.653 -17.827   4.830  1.00  0.00     0.059 A 
HETATM   24  C   UNL     1      43.728 -18.609   3.660  1.00  0.00     0.047 A 
HETATM   25  C   UNL     1      44.116 -19.959   3.696  1.00  0.00     0.050 A 
HETATM   26  C   UNL     1      44.438 -20.538   4.930  1.00  0.00     0.016 A 
HETATM   27  C   UNL     1      44.345 -19.790   6.103  1.00  0.00     0.003 A 
HETATM   28  C   UNL     1      43.947 -18.452   6.051  1.00  0.00     0.031 A 
BRANCH  25  29
HETATM   29  C   UNL     1      44.212 -20.770   2.428  1.00  0.00     0.417 C 
HETATM   30  F   UNL     1      43.596 -21.981   2.500  1.00  0.00    -0.166 F 
HETATM   31  F   UNL     1      43.652 -20.129   1.364  1.00  0.00    -0.166 F 
HETATM   32  F   UNL     1      45.501 -21.029   2.068  1.00  0.00    -0.166 F 
ENDBRANCH  25  29
ENDBRANCH   3  23
TORSDOF 5
ENDMDL
MODEL 5
REMARK VINA RESULT:      -9.4      3.599      5.061
REMARK  5 active torsions:
REMARK  status: ('A' for Active; 'I' for Inactive)
REMARK    1  A    between atoms: N_3  and  C_4 
REMARK    2  A    between atoms: C_6  and  C_7 
REMARK    3  A    between atoms: C_15  and  C_16 
REMARK       I    between atoms: C_16  and  N_17 
REMARK    4  A    between atoms: N_17  and  N_18 
REMARK       I    between atoms: N_18  and  C_19 
REMARK    5  A    between atoms: C_19  and  C_20 
ROOT
HETATM    1  C   UNL     1      44.027 -19.573   2.297  1.00  0.00     0.070 C 
HETATM    2  C   UNL     1      43.793 -18.901   3.631  1.00  0.00     0.036 C 
HETATM    3  N   UNL     1      43.210 -17.626   3.697  1.00  0.00    -0.238 N 
HETATM    4  N   UNL     1      43.255 -16.846   4.831  1.00  0.00    -0.158 NA
HETATM    5  C   UNL     1      43.683 -17.373   5.942  1.00  0.00     0.196 C 
HETATM    6  C   UNL     1      44.103 -18.815   5.999  1.00  0.00     0.209 C 
HETATM    7  O   UNL     1      44.325 -19.351   7.075  1.00  0.00    -0.286 OA
HETATM    8  C   UNL     1      44.245 -19.527   4.728  1.00  0.00     0.084 C 
ENDROOT
BRANCH   5   9
HETATM    9  C   UNL     1      43.742 -16.463   7.161  1.00  0.00     0.294 C 
HETATM   10  N   UNL     1      44.137 -15.161   6.921  1.00  0.00    -0.261 N 
HETATM   11  H   UNL     1      44.148 -14.762   5.975  1.00  0.00     0.190 HD
HETATM   12  O   UNL     1      43.447 -16.886   8.273  1.00  0.00    -0.264 OA
BRANCH  10  13
HETATM   13  N   UNL     1      44.070 -14.254   7.988  1.00  0.00    -0.262 N 
HETATM   14  C   UNL     1      45.034 -13.275   8.102  1.00  0.00     0.286 C 
HETATM   15  O   UNL     1      46.004 -13.224   7.347  1.00  0.00    -0.264 OA
HETATM   16  H   UNL     1      43.205 -14.241   8.524  1.00  0.00     0.190 HD
BRANCH  14  17
HETATM   17  C   UNL     1      44.822 -12.313   9.162  1.00  0.00     0.102 A 
HETATM   18  N   UNL     1      43.872 -12.525  10.141  1.00  0.00    -0.361 N 
HETATM   19  H   UNL     1      43.278 -13.345  10.179  1.00  0.00     0.165 HD
HETATM   20  C   UNL     1      43.858 -11.480  11.024  1.00  0.00     0.088 A 
HETATM   21  C   UNL     1      44.808 -10.573  10.620  1.00  0.00     0.019 A 
HETATM   22  C   UNL     1      45.416 -11.094   9.449  1.00  0.00     0.036 A 
ENDBRANCH  14  17
ENDBRANCH  10  13
ENDBRANCH   5   9
BRANCH   3  23
HETATM   23  C   UNL     1      42.564 -16.965   2.604  1.00  0.00     0.059 A 
HETATM   24  C   UNL     1      42.548 -15.558   2.538  1.00  0.00     0.047 A 
HETATM   25  C   UNL     1      41.906 -14.873   1.492  1.00  0.00     0.050 A 
HETATM   26  C   UNL     1      41.267 -15.614   0.490  1.00  0.00     0.016 A 
HETATM   27  C   UNL     1      41.248 -17.006   0.549  1.00  0.00     0.003 A 
HETATM   28  C   UNL     1      41.882 -17.672   1.602  1.00  0.00     0.031 A 
BRANCH  25  29
HETATM   29  C   UNL     1      41.922 -13.366   1.430  1.00  0.00     0.417 C 
HETATM   30  F   UNL     1      42.707 -12.783   2.376  1.00  0.00    -0.166 F 
HETATM   31  F   UNL     1      42.379 -12.907   0.231  1.00  0.00    -0.166 F 
HETATM   32  F   UNL     1      40.682 -12.821   1.587  1.00  0.00    -0.166 F 
ENDBRANCH  25  29
ENDBRANCH   3  23
TORSDOF 5
ENDMDL
MODEL 6
REMARK VINA RESULT:      -9.3      2.448      2.712
REMARK  5 active torsions:
REMARK  status: ('A' for Active; 'I' for Inactive)
REMARK    1  A    between atoms: N_3  and  C_4 
REMARK    2  A    between atoms: C_6  and  C_7 
REMARK    3  A    between atoms: C_15  and  C_16 
REMARK       I    between atoms: C_16  and  N_17 
REMARK    4  A    between atoms: N_17  and  N_18 
REMARK       I    between atoms: N_18  and  C_19 
REMARK    5  A    between atoms: C_19  and  C_20 
ROOT
HETATM    1  C   UNL     1      43.588 -17.481   0.950  1.00  0.00     0.070 C 
HETATM    2  C   UNL     1      43.253 -16.557   2.098  1.00  0.00     0.036 C 
HETATM    3  N   UNL     1      43.279 -17.021   3.422  1.00  0.00    -0.238 N 
HETATM    4  N   UNL     1      42.695 -16.334   4.463  1.00  0.00    -0.158 NA
HETATM    5  C   UNL     1      42.268 -15.121   4.257  1.00  0.00     0.196 C 
HETATM    6  C   UNL     1      42.424 -14.467   2.912  1.00  0.00     0.209 C 
HETATM    7  O   UNL     1      42.193 -13.276   2.775  1.00  0.00    -0.286 OA
HETATM    8  C   UNL     1      42.844 -15.314   1.795  1.00  0.00     0.084 C 
ENDROOT
BRANCH   5   9
HETATM    9  C   UNL     1      41.604 -14.414   5.429  1.00  0.00     0.294 C 
HETATM   10  N   UNL     1      42.197 -13.235   5.834  1.00  0.00    -0.261 N 
HETATM   11  H   UNL     1      42.876 -12.737   5.246  1.00  0.00     0.190 HD
HETATM   12  O   UNL     1      40.602 -14.884   5.958  1.00  0.00    -0.264 OA
BRANCH  10  13
HETATM   13  N   UNL     1      41.539 -12.479   6.816  1.00  0.00    -0.262 N 
HETATM   14  C   UNL     1      40.844 -11.348   6.444  1.00  0.00     0.286 C 
HETATM   15  O   UNL     1      40.856 -10.928   5.287  1.00  0.00    -0.264 OA
HETATM   16  H   UNL     1      41.445 -12.906   7.735  1.00  0.00     0.190 HD
BRANCH  14  17
HETATM   17  C   UNL     1      40.101 -10.698   7.500  1.00  0.00     0.102 A 
HETATM   18  N   UNL     1      40.089 -11.205   8.784  1.00  0.00    -0.361 N 
HETATM   19  H   UNL     1      40.587 -12.043   9.060  1.00  0.00     0.165 HD
HETATM   20  C   UNL     1      39.318 -10.422   9.599  1.00  0.00     0.088 A 
HETATM   21  C   UNL     1      38.819  -9.389   8.841  1.00  0.00     0.019 A 
HETATM   22  C   UNL     1      39.309  -9.560   7.521  1.00  0.00     0.036 A 
ENDBRANCH  14  17
ENDBRANCH  10  13
ENDBRANCH   5   9
BRANCH   3  23
HETATM   23  C   UNL     1      43.848 -18.267   3.840  1.00  0.00     0.059 A 
HETATM   24  C   UNL     1      43.782 -19.393   2.996  1.00  0.00     0.047 A 
HETATM   25  C   UNL     1      44.309 -20.637   3.380  1.00  0.00     0.050 A 
HETATM   26  C   UNL     1      44.919 -20.755   4.636  1.00  0.00     0.016 A 
HETATM   27  C   UNL     1      44.972 -19.661   5.498  1.00  0.00     0.003 A 
HETATM   28  C   UNL     1      44.432 -18.433   5.105  1.00  0.00     0.031 A 
BRANCH  25  29
HETATM   29  C   UNL     1      44.249 -21.823   2.451  1.00  0.00     0.417 C 
HETATM   30  F   UNL     1      43.056 -21.962   1.811  1.00  0.00    -0.166 F 
HETATM   31  F   UNL     1      45.193 -21.757   1.471  1.00  0.00    -0.166 F 
HETATM   32  F   UNL     1      44.465 -23.006   3.094  1.00  0.00    -0.166 F 
ENDBRANCH  25  29
ENDBRANCH   3  23
TORSDOF 5
ENDMDL
MODEL 7
REMARK VINA RESULT:      -9.3      4.131      6.833
REMARK  5 active torsions:
REMARK  status: ('A' for Active; 'I' for Inactive)
REMARK    1  A    between atoms: N_3  and  C_4 
REMARK    2  A    between atoms: C_6  and  C_7 
REMARK    3  A    between atoms: C_15  and  C_16 
REMARK       I    between atoms: C_16  and  N_17 
REMARK    4  A    between atoms: N_17  and  N_18 
REMARK       I    between atoms: N_18  and  C_19 
REMARK    5  A    between atoms: C_19  and  C_20 
ROOT
HETATM    1  C   UNL     1      41.991 -16.797   6.416  1.00  0.00     0.070 C 
HETATM    2  C   UNL     1      41.648 -16.445   4.987  1.00  0.00     0.036 C 
HETATM    3  N   UNL     1      42.364 -17.010   3.920  1.00  0.00    -0.238 N 
HETATM    4  N   UNL     1      42.311 -16.505   2.640  1.00  0.00    -0.158 NA
HETATM    5  C   UNL     1      41.425 -15.593   2.357  1.00  0.00     0.196 C 
HETATM    6  C   UNL     1      40.459 -15.109   3.401  1.00  0.00     0.209 C 
HETATM    7  O   UNL     1      39.517 -14.396   3.088  1.00  0.00    -0.286 OA
HETATM    8  C   UNL     1      40.704 -15.512   4.787  1.00  0.00     0.084 C 
ENDROOT
BRANCH   5   9
HETATM    9  C   UNL     1      41.425 -15.046   0.937  1.00  0.00     0.294 C 
HETATM   10  N   UNL     1      41.096 -13.711   0.808  1.00  0.00    -0.261 N 
HETATM   11  H   UNL     1      41.097 -13.070   1.610  1.00  0.00     0.190 HD
HETATM   12  O   UNL     1      41.708 -15.769  -0.013  1.00  0.00    -0.264 OA
BRANCH  10  13
HETATM   13  N   UNL     1      41.220 -13.131  -0.464  1.00  0.00    -0.262 N 
HETATM   14  C   UNL     1      42.148 -12.130  -0.661  1.00  0.00     0.286 C 
HETATM   15  O   UNL     1      42.811 -11.665   0.266  1.00  0.00    -0.264 OA
HETATM   16  H   UNL     1      40.752 -13.607  -1.231  1.00  0.00     0.190 HD
BRANCH  14  17
HETATM   17  C   UNL     1      42.290 -11.672  -2.025  1.00  0.00     0.102 A 
HETATM   18  N   UNL     1      42.387 -10.328  -2.323  1.00  0.00    -0.361 N 
HETATM   19  H   UNL     1      42.365  -9.595  -1.623  1.00  0.00     0.165 HD
HETATM   20  C   UNL     1      42.509 -10.146  -3.673  1.00  0.00     0.088 A 
HETATM   21  C   UNL     1      42.492 -11.385  -4.268  1.00  0.00     0.019 A 
HETATM   22  C   UNL     1      42.354 -12.347  -3.235  1.00  0.00     0.036 A 
ENDBRANCH  14  17
ENDBRANCH  10  13
ENDBRANCH   5   9
BRANCH   3  23
HETATM   23  C   UNL     1      43.266 -18.116   4.035  1.00  0.00     0.059 A 
HETATM   24  C   UNL     1      43.178 -19.196   3.136  1.00  0.00     0.047 A 
HETATM   25  C   UNL     1      44.031 -20.309   3.230  1.00  0.00     0.050 A 
HETATM   26  C   UNL     1      44.994 -20.338   4.246  1.00  0.00     0.016 A 
HETATM   27  C   UNL     1      45.082 -19.292   5.163  1.00  0.00     0.003 A 
HETATM   28  C   UNL     1      44.218 -18.198   5.062  1.00  0.00     0.031 A 
BRANCH  25  29
HETATM   29  C   UNL     1      43.934 -21.443   2.241  1.00  0.00     0.417 C 
HETATM   30  F   UNL     1      44.826 -21.360   1.217  1.00  0.00    -0.166 F 
HETATM   31  F   UNL     1      44.148 -22.655   2.826  1.00  0.00    -0.166 F 
HETATM   32  F   UNL     1      42.705 -21.527   1.657  1.00  0.00    -0.166 F 
ENDBRANCH  25  29
ENDBRANCH   3  23
TORSDOF 5
ENDMDL
MODEL 8
REMARK VINA RESULT:      -9.1      3.770      6.978
REMARK  5 active torsions:
REMARK  status: ('A' for Active; 'I' for Inactive)
REMARK    1  A    between atoms: N_3  and  C_4 
REMARK    2  A    between atoms: C_6  and  C_7 
REMARK    3  A    between atoms: C_15  and  C_16 
REMARK       I    between atoms: C_16  and  N_17 
REMARK    4  A    between atoms: N_17  and  N_18 
REMARK       I    between atoms: N_18  and  C_19 
REMARK    5  A    between atoms: C_19  and  C_20 
ROOT
HETATM    1  C   UNL     1      44.734 -17.486   6.344  1.00  0.00     0.070 C 
HETATM    2  C   UNL     1      43.573 -16.880   5.589  1.00  0.00     0.036 C 
HETATM    3  N   UNL     1      43.173 -17.405   4.350  1.00  0.00    -0.238 N 
HETATM    4  N   UNL     1      42.346 -16.723   3.486  1.00  0.00    -0.158 NA
HETATM    5  C   UNL     1      41.757 -15.638   3.901  1.00  0.00     0.196 C 
HETATM    6  C   UNL     1      41.956 -15.143   5.306  1.00  0.00     0.209 C 
HETATM    7  O   UNL     1      41.262 -14.238   5.745  1.00  0.00    -0.286 OA
HETATM    8  C   UNL     1      43.008 -15.776   6.102  1.00  0.00     0.084 C 
ENDROOT
BRANCH   5   9
HETATM    9  C   UNL     1      40.877 -14.903   2.900  1.00  0.00     0.294 C 
HETATM   10  N   UNL     1      41.527 -14.373   1.803  1.00  0.00    -0.261 N 
HETATM   11  H   UNL     1      42.479 -14.659   1.544  1.00  0.00     0.190 HD
HETATM   12  O   UNL     1      39.668 -14.808   3.081  1.00  0.00    -0.264 OA
BRANCH  10  13
HETATM   13  N   UNL     1      40.738 -13.812   0.788  1.00  0.00    -0.262 N 
HETATM   14  C   UNL     1      40.534 -14.521  -0.377  1.00  0.00     0.286 C 
HETATM   15  O   UNL     1      41.095 -15.594  -0.593  1.00  0.00    -0.264 OA
HETATM   16  H   UNL     1      40.195 -12.988   1.034  1.00  0.00     0.190 HD
BRANCH  14  17
HETATM   17  C   UNL     1      39.615 -13.919  -1.318  1.00  0.00     0.102 A 
HETATM   18  N   UNL     1      38.639 -14.669  -1.944  1.00  0.00    -0.361 N 
HETATM   19  H   UNL     1      38.508 -15.661  -1.788  1.00  0.00     0.165 HD
HETATM   20  C   UNL     1      37.902 -13.882  -2.786  1.00  0.00     0.088 A 
HETATM   21  C   UNL     1      38.399 -12.603  -2.712  1.00  0.00     0.019 A 
HETATM   22  C   UNL     1      39.477 -12.623  -1.791  1.00  0.00     0.036 A 
ENDBRANCH  14  17
ENDBRANCH  10  13
ENDBRANCH   5   9
BRANCH   3  23
HETATM   23  C   UNL     1      43.610 -18.658   3.814  1.00  0.00     0.059 A 
HETATM   24  C   UNL     1      43.944 -19.720   4.678  1.00  0.00     0.047 A 
HETATM   25  C   UNL     1      44.397 -20.957   4.190  1.00  0.00     0.050 A 
HETATM   26  C   UNL     1      44.517 -21.135   2.806  1.00  0.00     0.016 A 
HETATM   27  C   UNL     1      44.218 -20.090   1.934  1.00  0.00     0.003 A 
HETATM   28  C   UNL     1      43.779 -18.861   2.436  1.00  0.00     0.031 A 
BRANCH  25  29
HETATM   29  C   UNL     1      44.726 -22.087   5.133  1.00  0.00     0.417 C 
HETATM   30  F   UNL     1      44.099 -23.256   4.832  1.00  0.00    -0.166 F 
HETATM   31  F   UNL     1      46.058 -22.370   5.152  1.00  0.00    -0.166 F 
HETATM   32  F   UNL     1      44.389 -21.807   6.425  1.00  0.00    -0.166 F 
ENDBRANCH  25  29
ENDBRANCH   3  23
TORSDOF 5
ENDMDL
MODEL 9
REMARK VINA RESULT:      -9.0      3.035      3.811
REMARK  5 active torsions:
REMARK  status: ('A' for Active; 'I' for Inactive)
REMARK    1  A    between atoms: N_3  and  C_4 
REMARK    2  A    between atoms: C_6  and  C_7 
REMARK    3  A    between atoms: C_15  and  C_16 
REMARK       I    between atoms: C_16  and  N_17 
REMARK    4  A    between atoms: N_17  and  N_18 
REMARK       I    between atoms: N_18  and  C_19 
REMARK    5  A    between atoms: C_19  and  C_20 
ROOT
HETATM    1  C   UNL     1      40.117 -16.773   2.009  1.00  0.00     0.070 C 
HETATM    2  C   UNL     1      40.377 -15.644   2.981  1.00  0.00     0.036 C 
HETATM    3  N   UNL     1      41.217 -15.833   4.089  1.00  0.00    -0.238 N 
HETATM    4  N   UNL     1      41.247 -14.964   5.156  1.00  0.00    -0.158 NA
HETATM    5  C   UNL     1      40.620 -13.826   5.060  1.00  0.00     0.196 C 
HETATM    6  C   UNL     1      39.891 -13.452   3.800  1.00  0.00     0.209 C 
HETATM    7  O   UNL     1      39.465 -12.317   3.647  1.00  0.00    -0.286 OA
HETATM    8  C   UNL     1      39.706 -14.497   2.792  1.00  0.00     0.084 C 
ENDROOT
BRANCH   5   9
HETATM    9  C   UNL     1      40.657 -12.912   6.276  1.00  0.00     0.294 C 
HETATM   10  N   UNL     1      39.499 -12.864   7.027  1.00  0.00    -0.261 N 
HETATM   11  H   UNL     1      38.759 -13.568   6.931  1.00  0.00     0.190 HD
HETATM   12  O   UNL     1      41.668 -12.274   6.549  1.00  0.00    -0.264 OA
BRANCH  10  13
HETATM   13  N   UNL     1      39.535 -12.145   8.232  1.00  0.00    -0.262 N 
HETATM   14  C   UNL     1      39.158 -10.819   8.238  1.00  0.00     0.286 C 
HETATM   15  O   UNL     1      38.875 -10.218   7.203  1.00  0.00    -0.264 OA
HETATM   16  H   UNL     1      39.656 -12.688   9.084  1.00  0.00     0.190 HD
BRANCH  14  17
HETATM   17  C   UNL     1      39.113 -10.191   9.540  1.00  0.00     0.102 A 
HETATM   18  N   UNL     1      39.664 -10.801  10.649  1.00  0.00    -0.361 N 
HETATM   19  H   UNL     1      40.123 -11.704  10.622  1.00  0.00     0.165 HD
HETATM   20  C   UNL     1      39.495 -10.017  11.757  1.00  0.00     0.088 A 
HETATM   21  C   UNL     1      38.825  -8.881  11.371  1.00  0.00     0.019 A 
HETATM   22  C   UNL     1      38.584  -8.987   9.978  1.00  0.00     0.036 A 
ENDBRANCH  14  17
ENDBRANCH  10  13
ENDBRANCH   5   9
BRANCH   3  23
HETATM   23  C   UNL     1      42.084 -16.958   4.275  1.00  0.00     0.059 A 
HETATM   24  C   UNL     1      42.464 -17.748   3.173  1.00  0.00     0.047 A 
HETATM   25  C   UNL     1      43.296 -18.871   3.319  1.00  0.00     0.050 A 
HETATM   26  C   UNL     1      43.758 -19.209   4.597  1.00  0.00     0.016 A 
HETATM   27  C   UNL     1      43.372 -18.457   5.706  1.00  0.00     0.003 A 
HETATM   28  C   UNL     1      42.535 -17.349   5.544  1.00  0.00     0.031 A 
BRANCH  25  29
HETATM   29  C   UNL     1      43.710 -19.688   2.121  1.00  0.00     0.417 C 
HETATM   30  F   UNL     1      43.859 -18.960   0.981  1.00  0.00    -0.166 F 
HETATM   31  F   UNL     1      44.900 -20.322   2.318  1.00  0.00    -0.166 F 
HETATM   32  F   UNL     1      42.813 -20.670   1.820  1.00  0.00    -0.166 F 
ENDBRANCH  25  29
ENDBRANCH   3  23
TORSDOF 5
ENDMDL
MODEL 10
REMARK VINA RESULT:      -8.9      2.654      3.380
REMARK  5 active torsions:
REMARK  status: ('A' for Active; 'I' for Inactive)
REMARK    1  A    between atoms: N_3  and  C_4 
REMARK    2  A    between atoms: C_6  and  C_7 
REMARK    3  A    between atoms: C_15  and  C_16 
REMARK       I    between atoms: C_16  and  N_17 
REMARK    4  A    between atoms: N_17  and  N_18 
REMARK       I    between atoms: N_18  and  C_19 
REMARK    5  A    between atoms: C_19  and  C_20 
ROOT
HETATM    1  C   UNL     1      40.594 -17.247   1.101  1.00  0.00     0.070 C 
HETATM    2  C   UNL     1      41.068 -16.175   2.055  1.00  0.00     0.036 C 
HETATM    3  N   UNL     1      42.026 -16.466   3.039  1.00  0.00    -0.238 N 
HETATM    4  N   UNL     1      42.263 -15.637   4.113  1.00  0.00    -0.158 NA
HETATM    5  C   UNL     1      41.722 -14.452   4.127  1.00  0.00     0.196 C 
HETATM    6  C   UNL     1      40.869 -13.981   2.983  1.00  0.00     0.209 C 
HETATM    7  O   UNL     1      40.520 -12.812   2.914  1.00  0.00    -0.286 OA
HETATM    8  C   UNL     1      40.472 -14.974   1.983  1.00  0.00     0.084 C 
ENDROOT
BRANCH   5   9
HETATM    9  C   UNL     1      41.989 -13.585   5.349  1.00  0.00     0.294 C 
HETATM   10  N   UNL     1      40.920 -12.836   5.800  1.00  0.00    -0.261 N 
HETATM   11  H   UNL     1      39.957 -13.029   5.502  1.00  0.00     0.190 HD
HETATM   12  O   UNL     1      43.094 -13.577   5.881  1.00  0.00    -0.264 OA
BRANCH  10  13
HETATM   13  N   UNL     1      41.081 -12.133   7.003  1.00  0.00    -0.262 N 
HETATM   14  C   UNL     1      40.034 -11.377   7.487  1.00  0.00     0.286 C 
HETATM   15  O   UNL     1      38.991 -11.226   6.852  1.00  0.00    -0.264 OA
HETATM   16  H   UNL     1      41.897 -12.365   7.563  1.00  0.00     0.190 HD
BRANCH  14  17
HETATM   17  C   UNL     1      40.245 -10.782   8.788  1.00  0.00     0.102 A 
HETATM   18  N   UNL     1      39.831 -11.418   9.942  1.00  0.00    -0.361 N 
HETATM   19  H   UNL     1      39.365 -12.318   9.950  1.00  0.00     0.165 HD
HETATM   20  C   UNL     1      40.137 -10.661  11.039  1.00  0.00     0.088 A 
HETATM   21  C   UNL     1      40.758  -9.516  10.601  1.00  0.00     0.019 A 
HETATM   22  C   UNL     1      40.827  -9.589   9.187  1.00  0.00     0.036 A 
ENDBRANCH  14  17
ENDBRANCH  10  13
ENDBRANCH   5   9
BRANCH   3  23
HETATM   23  C   UNL     1      42.816 -17.658   3.083  1.00  0.00     0.059 A 
HETATM   24  C   UNL     1      43.188 -18.214   4.323  1.00  0.00     0.047 A 
HETATM   25  C   UNL     1      43.981 -19.371   4.407  1.00  0.00     0.050 A 
HETATM   26  C   UNL     1      44.408 -19.986   3.223  1.00  0.00     0.016 A 
HETATM   27  C   UNL     1      44.073 -19.439   1.986  1.00  0.00     0.003 A 
HETATM   28  C   UNL     1      43.294 -18.280   1.920  1.00  0.00     0.031 A 
BRANCH  25  29
HETATM   29  C   UNL     1      44.347 -19.962   5.745  1.00  0.00     0.417 C 
HETATM   30  F   UNL     1      45.105 -19.142   6.522  1.00  0.00    -0.166 F 
HETATM   31  F   UNL     1      43.248 -20.271   6.489  1.00  0.00    -0.166 F 
HETATM   32  F   UNL     1      45.053 -21.123   5.630  1.00  0.00    -0.166 F 
ENDBRANCH  25  29
ENDBRANCH   3  23
TORSDOF 5
ENDMDL
