MODEL 1
REMARK VINA RESULT:      -8.5      0.000      0.000
REMARK  3 active torsions:
REMARK  status: ('A' for Active; 'I' for Inactive)
REMARK    1  A    between atoms: C_9  and  C_10 
REMARK    2  A    between atoms: C_16  and  C_17 
REMARK       I    between atoms: C_17  and  N_18 
REMARK    3  A    between atoms: N_18  and  C_19 
ROOT
HETATM    1  C   UNL     1      42.847 -17.302   7.792  1.00  0.00     0.070 C 
HETATM    2  C   UNL     1      42.828 -16.448   6.549  1.00  0.00     0.037 C 
HETATM    3  N   UNL     1      42.191 -15.216   6.678  1.00  0.00    -0.191 N 
HETATM    4  C   UNL     1      42.303 -14.238   5.755  1.00  0.00     0.735 A 
HETATM    5  N   UNL     1      42.929 -14.504   4.569  1.00  0.00    -0.092 N 
HETATM    6  N   UNL     1      43.013 -13.390   3.827  1.00  0.00     0.012 NA
HETATM    7  N   UNL     1      42.391 -12.461   4.549  1.00  0.00     0.033 NA
HETATM    8  N   UNL     1      41.946 -12.976   5.753  1.00  0.00     0.030 NA
HETATM    9  C   UNL     1      43.475 -15.805   4.195  1.00  0.00     0.198 C 
HETATM   10  C   UNL     1      43.435 -16.769   5.379  1.00  0.00     0.062 C 
HETATM   11  H   UNL     1      41.829 -14.968   7.596  1.00  0.00     0.184 HD
ENDROOT
BRANCH  10  12
HETATM   12  C   UNL     1      44.220 -18.013   5.170  1.00  0.00     0.256 C 
HETATM   13  N   UNL     1      43.601 -18.926   4.348  1.00  0.00    -0.322 N 
HETATM   14  H   UNL     1      42.724 -18.652   3.923  1.00  0.00     0.169 HD
HETATM   15  O   UNL     1      45.325 -18.109   5.688  1.00  0.00    -0.267 OA
BRANCH  13  16
HETATM   16  C   UNL     1      44.061 -20.226   4.046  1.00  0.00     0.052 A 
HETATM   17  C   UNL     1      44.538 -21.146   4.976  1.00  0.00     0.145 A 
HETATM   18  N   UNL     1      44.949 -22.403   4.663  1.00  0.00    -0.271 NA
HETATM   19  C   UNL     1      44.882 -22.763   3.367  1.00  0.00     0.116 A 
HETATM   20  C   UNL     1      44.426 -21.925   2.364  1.00  0.00     0.021 A 
HETATM   21  C   UNL     1      44.014 -20.638   2.712  1.00  0.00     0.032 A 
ENDBRANCH  13  16
ENDBRANCH  10  12
BRANCH   9  22
HETATM   22  C   UNL     1      42.735 -16.367   2.984  1.00  0.00    -0.029 A 
HETATM   23  C   UNL     1      41.346 -16.562   3.049  1.00  0.00     0.009 A 
HETATM   24  C   UNL     1      40.645 -17.071   1.954  1.00  0.00     0.001 A 
HETATM   25  C   UNL     1      41.321 -17.385   0.777  1.00  0.00     0.000 A 
HETATM   26  C   UNL     1      42.698 -17.183   0.691  1.00  0.00     0.001 A 
HETATM   27  C   UNL     1      43.400 -16.674   1.783  1.00  0.00     0.009 A 
ENDBRANCH   9  22
TORSDOF 3
ENDMDL
MODEL 2
REMARK VINA RESULT:      -8.2      2.086      3.997
REMARK  3 active torsions:
REMARK  status: ('A' for Active; 'I' for Inactive)
REMARK    1  A    between atoms: C_9  and  C_10 
REMARK    2  A    between atoms: C_16  and  C_17 
REMARK       I    between atoms: C_17  and  N_18 
REMARK    3  A    between atoms: N_18  and  C_19 
ROOT
HETATM    1  C   UNL     1      40.634 -16.240   1.369  1.00  0.00     0.070 C 
HETATM    2  C   UNL     1      40.652 -15.523   2.696  1.00  0.00     0.037 C 
HETATM    3  N   UNL     1      40.124 -14.234   2.689  1.00  0.00    -0.191 N 
HETATM    4  C   UNL     1      39.834 -13.560   3.821  1.00  0.00     0.735 A 
HETATM    5  N   UNL     1      40.213 -14.080   5.027  1.00  0.00    -0.092 N 
HETATM    6  N   UNL     1      39.762 -13.310   6.029  1.00  0.00     0.012 NA
HETATM    7  N   UNL     1      39.152 -12.297   5.420  1.00  0.00     0.033 NA
HETATM    8  N   UNL     1      39.189 -12.441   4.045  1.00  0.00     0.030 NA
HETATM    9  C   UNL     1      40.954 -15.327   5.194  1.00  0.00     0.198 C 
HETATM   10  C   UNL     1      41.071 -16.070   3.865  1.00  0.00     0.062 C 
HETATM   11  H   UNL     1      39.733 -13.891   1.814  1.00  0.00     0.184 HD
ENDROOT
BRANCH  10  12
HETATM   12  C   UNL     1      41.560 -17.466   3.996  1.00  0.00     0.256 C 
HETATM   13  N   UNL     1      42.723 -17.712   3.302  1.00  0.00    -0.322 N 
HETATM   14  H   UNL     1      43.161 -16.930   2.832  1.00  0.00     0.169 HD
HETATM   15  O   UNL     1      40.942 -18.244   4.711  1.00  0.00    -0.267 OA
BRANCH  13  16
HETATM   16  C   UNL     1      43.367 -18.961   3.166  1.00  0.00     0.052 A 
HETATM   17  C   UNL     1      44.239 -19.521   4.096  1.00  0.00     0.145 A 
HETATM   18  N   UNL     1      44.825 -20.739   3.955  1.00  0.00    -0.271 NA
HETATM   19  C   UNL     1      44.528 -21.433   2.839  1.00  0.00     0.116 A 
HETATM   20  C   UNL     1      43.677 -20.968   1.853  1.00  0.00     0.021 A 
HETATM   21  C   UNL     1      43.092 -19.713   2.021  1.00  0.00     0.032 A 
ENDBRANCH  13  16
ENDBRANCH  10  12
BRANCH   9  22
HETATM   22  C   UNL     1      42.323 -15.056   5.812  1.00  0.00    -0.029 A 
HETATM   23  C   UNL     1      42.809 -15.903   6.821  1.00  0.00     0.009 A 
HETATM   24  C   UNL     1      44.060 -15.679   7.399  1.00  0.00     0.001 A 
HETATM   25  C   UNL     1      44.845 -14.610   6.973  1.00  0.00     0.000 A 
HETATM   26  C   UNL     1      44.384 -13.768   5.963  1.00  0.00     0.001 A 
HETATM   27  C   UNL     1      43.136 -13.991   5.382  1.00  0.00     0.009 A 
ENDBRANCH   9  22
TORSDOF 3
ENDMDL
MODEL 3
REMARK VINA RESULT:      -7.8      3.484      6.208
REMARK  3 active torsions:
REMARK  status: ('A' for Active; 'I' for Inactive)
REMARK    1  A    between atoms: C_9  and  C_10 
REMARK    2  A    between atoms: C_16  and  C_17 
REMARK       I    between atoms: C_17  and  N_18 
REMARK    3  A    between atoms: N_18  and  C_19 
ROOT
HETATM    1  C   UNL     1      41.710 -11.925   1.716  1.00  0.00     0.070 C 
HETATM    2  C   UNL     1      42.001 -13.119   2.592  1.00  0.00     0.037 C 
HETATM    3  N   UNL     1      42.799 -12.866   3.705  1.00  0.00    -0.191 N 
HETATM    4  C   UNL     1      42.943 -13.750   4.714  1.00  0.00     0.735 A 
HETATM    5  N   UNL     1      42.423 -15.008   4.583  1.00  0.00    -0.092 N 
HETATM    6  N   UNL     1      42.595 -15.703   5.717  1.00  0.00     0.012 NA
HETATM    7  N   UNL     1      43.264 -14.877   6.516  1.00  0.00     0.033 NA
HETATM    8  N   UNL     1      43.486 -13.656   5.904  1.00  0.00     0.030 NA
HETATM    9  C   UNL     1      41.731 -15.497   3.394  1.00  0.00     0.198 C 
HETATM   10  C   UNL     1      41.489 -14.361   2.402  1.00  0.00     0.062 C 
HETATM   11  H   UNL     1      43.088 -11.903   3.867  1.00  0.00     0.184 HD
ENDROOT
BRANCH  10  12
HETATM   12  C   UNL     1      40.553 -14.710   1.303  1.00  0.00     0.256 C 
HETATM   13  N   UNL     1      41.092 -14.552   0.047  1.00  0.00    -0.322 N 
HETATM   14  H   UNL     1      42.065 -14.282  -0.013  1.00  0.00     0.169 HD
HETATM   15  O   UNL     1      39.439 -15.131   1.587  1.00  0.00    -0.267 OA
BRANCH  13  16
HETATM   16  C   UNL     1      40.414 -14.716  -1.181  1.00  0.00     0.052 A 
HETATM   17  C   UNL     1      39.327 -13.957  -1.605  1.00  0.00     0.145 A 
HETATM   18  N   UNL     1      38.709 -14.115  -2.805  1.00  0.00    -0.271 NA
HETATM   19  C   UNL     1      39.194 -15.072  -3.621  1.00  0.00     0.116 A 
HETATM   20  C   UNL     1      40.267 -15.883  -3.294  1.00  0.00     0.021 A 
HETATM   21  C   UNL     1      40.881 -15.701  -2.055  1.00  0.00     0.032 A 
ENDBRANCH  13  16
ENDBRANCH  10  12
BRANCH   9  22
HETATM   22  C   UNL     1      42.510 -16.645   2.757  1.00  0.00    -0.029 A 
HETATM   23  C   UNL     1      42.104 -17.970   2.986  1.00  0.00     0.009 A 
HETATM   24  C   UNL     1      42.796 -19.038   2.413  1.00  0.00     0.001 A 
HETATM   25  C   UNL     1      43.900 -18.796   1.597  1.00  0.00     0.000 A 
HETATM   26  C   UNL     1      44.307 -17.487   1.347  1.00  0.00     0.001 A 
HETATM   27  C   UNL     1      43.616 -16.419   1.917  1.00  0.00     0.009 A 
ENDBRANCH   9  22
TORSDOF 3
ENDMDL
MODEL 4
REMARK VINA RESULT:      -7.7      2.459      2.871
REMARK  3 active torsions:
REMARK  status: ('A' for Active; 'I' for Inactive)
REMARK    1  A    between atoms: C_9  and  C_10 
REMARK    2  A    between atoms: C_16  and  C_17 
REMARK       I    between atoms: C_17  and  N_18 
REMARK    3  A    between atoms: N_18  and  C_19 
ROOT
HETATM    1  C   UNL     1      40.932 -16.698   6.642  1.00  0.00     0.070 C 
HETATM    2  C   UNL     1      40.763 -15.437   5.832  1.00  0.00     0.037 C 
HETATM    3  N   UNL     1      39.854 -14.513   6.341  1.00  0.00    -0.191 N 
HETATM    4  C   UNL     1      39.773 -13.244   5.888  1.00  0.00     0.735 A 
HETATM    5  N   UNL     1      40.489 -12.881   4.782  1.00  0.00    -0.092 N 
HETATM    6  N   UNL     1      40.342 -11.569   4.542  1.00  0.00     0.012 NA
HETATM    7  N   UNL     1      39.494 -11.153   5.479  1.00  0.00     0.033 NA
HETATM    8  N   UNL     1      39.133 -12.187   6.325  1.00  0.00     0.030 NA
HETATM    9  C   UNL     1      41.336 -13.786   4.010  1.00  0.00     0.198 C 
HETATM   10  C   UNL     1      41.474 -15.133   4.717  1.00  0.00     0.062 C 
HETATM   11  H   UNL     1      39.409 -14.733   7.230  1.00  0.00     0.184 HD
ENDROOT
BRANCH  10  12
HETATM   12  C   UNL     1      42.533 -16.006   4.148  1.00  0.00     0.256 C 
HETATM   13  N   UNL     1      42.146 -17.317   3.996  1.00  0.00    -0.322 N 
HETATM   14  H   UNL     1      41.187 -17.550   4.219  1.00  0.00     0.169 HD
HETATM   15  O   UNL     1      43.606 -15.506   3.835  1.00  0.00    -0.267 OA
BRANCH  13  16
HETATM   16  C   UNL     1      42.965 -18.387   3.571  1.00  0.00     0.052 A 
HETATM   17  C   UNL     1      43.928 -19.020   4.352  1.00  0.00     0.145 A 
HETATM   18  N   UNL     1      44.683 -20.068   3.928  1.00  0.00    -0.271 NA
HETATM   19  C   UNL     1      44.471 -20.505   2.672  1.00  0.00     0.116 A 
HETATM   20  C   UNL     1      43.541 -19.945   1.814  1.00  0.00     0.021 A 
HETATM   21  C   UNL     1      42.781 -18.869   2.273  1.00  0.00     0.032 A 
ENDBRANCH  13  16
ENDBRANCH  10  12
BRANCH   9  22
HETATM   22  C   UNL     1      40.794 -13.945   2.592  1.00  0.00    -0.029 A 
HETATM   23  C   UNL     1      39.485 -14.415   2.398  1.00  0.00     0.009 A 
HETATM   24  C   UNL     1      38.964 -14.565   1.112  1.00  0.00     0.001 A 
HETATM   25  C   UNL     1      39.742 -14.242   0.002  1.00  0.00     0.000 A 
HETATM   26  C   UNL     1      41.038 -13.761   0.176  1.00  0.00     0.001 A 
HETATM   27  C   UNL     1      41.560 -13.608   1.461  1.00  0.00     0.009 A 
ENDBRANCH   9  22
TORSDOF 3
ENDMDL
MODEL 5
REMARK VINA RESULT:      -7.7      2.675      6.340
REMARK  3 active torsions:
REMARK  status: ('A' for Active; 'I' for Inactive)
REMARK    1  A    between atoms: C_9  and  C_10 
REMARK    2  A    between atoms: C_16  and  C_17 
REMARK       I    between atoms: C_17  and  N_18 
REMARK    3  A    between atoms: N_18  and  C_19 
ROOT
HETATM    1  C   UNL     1      44.875 -13.992   6.852  1.00  0.00     0.070 C 
HETATM    2  C   UNL     1      44.260 -15.256   6.304  1.00  0.00     0.037 C 
HETATM    3  N   UNL     1      44.810 -16.445   6.777  1.00  0.00    -0.191 N 
HETATM    4  C   UNL     1      44.222 -17.645   6.589  1.00  0.00     0.735 A 
HETATM    5  N   UNL     1      43.131 -17.736   5.771  1.00  0.00    -0.092 N 
HETATM    6  N   UNL     1      42.644 -18.986   5.782  1.00  0.00     0.012 NA
HETATM    7  N   UNL     1      43.476 -19.660   6.570  1.00  0.00     0.033 NA
HETATM    8  N   UNL     1      44.462 -18.836   7.081  1.00  0.00     0.030 NA
HETATM    9  C   UNL     1      42.550 -16.614   5.038  1.00  0.00     0.198 C 
HETATM   10  C   UNL     1      43.196 -15.297   5.464  1.00  0.00     0.062 C 
HETATM   11  H   UNL     1      45.545 -16.377   7.478  1.00  0.00     0.184 HD
ENDROOT
BRANCH  10  12
HETATM   12  C   UNL     1      42.479 -14.090   4.978  1.00  0.00     0.256 C 
HETATM   13  N   UNL     1      41.166 -14.024   5.387  1.00  0.00    -0.322 N 
HETATM   14  H   UNL     1      40.836 -14.748   6.013  1.00  0.00     0.169 HD
HETATM   15  O   UNL     1      43.094 -13.264   4.316  1.00  0.00    -0.267 OA
BRANCH  13  16
HETATM   16  C   UNL     1      40.220 -13.048   5.006  1.00  0.00     0.052 A 
HETATM   17  C   UNL     1      39.646 -12.110   5.861  1.00  0.00     0.145 A 
HETATM   18  N   UNL     1      38.758 -11.161   5.464  1.00  0.00    -0.271 NA
HETATM   19  C   UNL     1      38.426 -11.144   4.158  1.00  0.00     0.116 A 
HETATM   20  C   UNL     1      38.935 -12.032   3.228  1.00  0.00     0.021 A 
HETATM   21  C   UNL     1      39.843 -12.998   3.662  1.00  0.00     0.032 A 
ENDBRANCH  13  16
ENDBRANCH  10  12
BRANCH   9  22
HETATM   22  C   UNL     1      42.668 -16.841   3.533  1.00  0.00    -0.029 A 
HETATM   23  C   UNL     1      41.510 -16.841   2.739  1.00  0.00     0.009 A 
HETATM   24  C   UNL     1      41.592 -17.042   1.360  1.00  0.00     0.001 A 
HETATM   25  C   UNL     1      42.831 -17.238   0.755  1.00  0.00     0.000 A 
HETATM   26  C   UNL     1      43.992 -17.227   1.526  1.00  0.00     0.001 A 
HETATM   27  C   UNL     1      43.914 -17.024   2.904  1.00  0.00     0.009 A 
ENDBRANCH   9  22
TORSDOF 3
ENDMDL
MODEL 6
REMARK VINA RESULT:      -7.7      2.982      5.167
REMARK  3 active torsions:
REMARK  status: ('A' for Active; 'I' for Inactive)
REMARK    1  A    between atoms: C_9  and  C_10 
REMARK    2  A    between atoms: C_16  and  C_17 
REMARK       I    between atoms: C_17  and  N_18 
REMARK    3  A    between atoms: N_18  and  C_19 
ROOT
HETATM    1  C   UNL     1      43.749 -17.410   1.247  1.00  0.00     0.070 C 
HETATM    2  C   UNL     1      42.577 -16.462   1.323  1.00  0.00     0.037 C 
HETATM    3  N   UNL     1      42.282 -15.778   0.147  1.00  0.00    -0.191 N 
HETATM    4  C   UNL     1      41.130 -15.096  -0.029  1.00  0.00     0.735 A 
HETATM    5  N   UNL     1      40.283 -14.927   1.030  1.00  0.00    -0.092 N 
HETATM    6  N   UNL     1      39.163 -14.303   0.634  1.00  0.00     0.012 NA
HETATM    7  N   UNL     1      39.361 -14.051  -0.657  1.00  0.00     0.033 NA
HETATM    8  N   UNL     1      40.582 -14.542  -1.083  1.00  0.00     0.030 NA
HETATM    9  C   UNL     1      40.542 -15.411   2.383  1.00  0.00     0.198 C 
HETATM   10  C   UNL     1      41.782 -16.301   2.411  1.00  0.00     0.062 C 
HETATM   11  H   UNL     1      42.841 -15.994  -0.676  1.00  0.00     0.184 HD
ENDROOT
BRANCH  10  12
HETATM   12  C   UNL     1      41.955 -17.054   3.680  1.00  0.00     0.256 C 
HETATM   13  N   UNL     1      42.869 -16.489   4.539  1.00  0.00    -0.322 N 
HETATM   14  H   UNL     1      43.283 -15.607   4.266  1.00  0.00     0.169 HD
HETATM   15  O   UNL     1      41.271 -18.051   3.873  1.00  0.00    -0.267 OA
BRANCH  13  16
HETATM   16  C   UNL     1      43.306 -17.028   5.768  1.00  0.00     0.052 A 
HETATM   17  C   UNL     1      42.724 -16.775   7.008  1.00  0.00     0.145 A 
HETATM   18  N   UNL     1      43.145 -17.330   8.175  1.00  0.00    -0.271 NA
HETATM   19  C   UNL     1      44.192 -18.175   8.106  1.00  0.00     0.116 A 
HETATM   20  C   UNL     1      44.842 -18.493   6.927  1.00  0.00     0.021 A 
HETATM   21  C   UNL     1      44.392 -17.907   5.744  1.00  0.00     0.032 A 
ENDBRANCH  13  16
ENDBRANCH  10  12
BRANCH   9  22
HETATM   22  C   UNL     1      40.665 -14.240   3.354  1.00  0.00    -0.029 A 
HETATM   23  C   UNL     1      39.822 -14.178   4.476  1.00  0.00     0.009 A 
HETATM   24  C   UNL     1      39.917 -13.120   5.382  1.00  0.00     0.001 A 
HETATM   25  C   UNL     1      40.860 -12.113   5.183  1.00  0.00     0.000 A 
HETATM   26  C   UNL     1      41.713 -12.167   4.083  1.00  0.00     0.001 A 
HETATM   27  C   UNL     1      41.622 -13.224   3.177  1.00  0.00     0.009 A 
ENDBRANCH   9  22
TORSDOF 3
ENDMDL
MODEL 7
REMARK VINA RESULT:      -7.4      2.662      4.015
REMARK  3 active torsions:
REMARK  status: ('A' for Active; 'I' for Inactive)
REMARK    1  A    between atoms: C_9  and  C_10 
REMARK    2  A    between atoms: C_16  and  C_17 
REMARK       I    between atoms: C_17  and  N_18 
REMARK    3  A    between atoms: N_18  and  C_19 
ROOT
HETATM    1  C   UNL     1      41.239 -12.424   6.207  1.00  0.00     0.070 C 
HETATM    2  C   UNL     1      41.539 -12.691   4.752  1.00  0.00     0.037 C 
HETATM    3  N   UNL     1      40.892 -11.857   3.844  1.00  0.00    -0.191 N 
HETATM    4  C   UNL     1      41.238 -11.792   2.541  1.00  0.00     0.735 A 
HETATM    5  N   UNL     1      42.146 -12.685   2.043  1.00  0.00    -0.092 N 
HETATM    6  N   UNL     1      42.418 -12.404   0.760  1.00  0.00     0.012 NA
HETATM    7  N   UNL     1      41.634 -11.369   0.471  1.00  0.00     0.033 NA
HETATM    8  N   UNL     1      40.895 -10.977   1.573  1.00  0.00     0.030 NA
HETATM    9  C   UNL     1      42.767 -13.753   2.820  1.00  0.00     0.198 C 
HETATM   10  C   UNL     1      42.425 -13.614   4.302  1.00  0.00     0.062 C 
HETATM   11  H   UNL     1      40.308 -11.113   4.221  1.00  0.00     0.184 HD
ENDROOT
BRANCH  10  12
HETATM   12  C   UNL     1      43.235 -14.485   5.192  1.00  0.00     0.256 C 
HETATM   13  N   UNL     1      42.682 -15.728   5.403  1.00  0.00    -0.322 N 
HETATM   14  H   UNL     1      41.833 -15.952   4.899  1.00  0.00     0.169 HD
HETATM   15  O   UNL     1      44.303 -14.065   5.617  1.00  0.00    -0.267 OA
BRANCH  13  16
HETATM   16  C   UNL     1      43.176 -16.726   6.270  1.00  0.00     0.052 A 
HETATM   17  C   UNL     1      43.155 -16.663   7.661  1.00  0.00     0.145 A 
HETATM   18  N   UNL     1      43.610 -17.651   8.475  1.00  0.00    -0.271 NA
HETATM   19  C   UNL     1      44.108 -18.753   7.880  1.00  0.00     0.116 A 
HETATM   20  C   UNL     1      44.177 -18.914   6.507  1.00  0.00     0.021 A 
HETATM   21  C   UNL     1      43.705 -17.883   5.694  1.00  0.00     0.032 A 
ENDBRANCH  13  16
ENDBRANCH  10  12
BRANCH   9  22
HETATM   22  C   UNL     1      42.360 -15.118   2.272  1.00  0.00    -0.029 A 
HETATM   23  C   UNL     1      43.352 -16.023   1.858  1.00  0.00     0.009 A 
HETATM   24  C   UNL     1      43.006 -17.279   1.357  1.00  0.00     0.001 A 
HETATM   25  C   UNL     1      41.666 -17.652   1.269  1.00  0.00     0.000 A 
HETATM   26  C   UNL     1      40.671 -16.772   1.689  1.00  0.00     0.001 A 
HETATM   27  C   UNL     1      41.013 -15.517   2.192  1.00  0.00     0.009 A 
ENDBRANCH   9  22
TORSDOF 3
ENDMDL
MODEL 8
REMARK VINA RESULT:      -7.3      4.533      5.982
REMARK  3 active torsions:
REMARK  status: ('A' for Active; 'I' for Inactive)
REMARK    1  A    between atoms: C_9  and  C_10 
REMARK    2  A    between atoms: C_16  and  C_17 
REMARK       I    between atoms: C_17  and  N_18 
REMARK    3  A    between atoms: N_18  and  C_19 
ROOT
HETATM    1  C   UNL     1      41.216 -12.459   2.503  1.00  0.00     0.070 C 
HETATM    2  C   UNL     1      41.418 -12.551   1.010  1.00  0.00     0.037 C 
HETATM    3  N   UNL     1      41.597 -11.336   0.353  1.00  0.00    -0.191 N 
HETATM    4  C   UNL     1      42.038 -11.255  -0.920  1.00  0.00     0.735 A 
HETATM    5  N   UNL     1      42.165 -12.397  -1.660  1.00  0.00    -0.092 N 
HETATM    6  N   UNL     1      42.694 -12.118  -2.860  1.00  0.00     0.012 NA
HETATM    7  N   UNL     1      42.838 -10.796  -2.861  1.00  0.00     0.033 NA
HETATM    8  N   UNL     1      42.434 -10.246  -1.658  1.00  0.00     0.030 NA
HETATM    9  C   UNL     1      41.826 -13.735  -1.181  1.00  0.00     0.198 C 
HETATM   10  C   UNL     1      41.504 -13.711   0.311  1.00  0.00     0.062 C 
HETATM   11  H   UNL     1      41.621 -10.493   0.922  1.00  0.00     0.184 HD
ENDROOT
BRANCH  10  12
HETATM   12  C   UNL     1      41.423 -15.058   0.932  1.00  0.00     0.256 C 
HETATM   13  N   UNL     1      42.624 -15.514   1.423  1.00  0.00    -0.322 N 
HETATM   14  H   UNL     1      43.416 -14.886   1.376  1.00  0.00     0.169 HD
HETATM   15  O   UNL     1      40.334 -15.615   0.993  1.00  0.00    -0.267 OA
BRANCH  13  16
HETATM   16  C   UNL     1      42.871 -16.788   1.979  1.00  0.00     0.052 A 
HETATM   17  C   UNL     1      42.501 -17.191   3.260  1.00  0.00     0.145 A 
HETATM   18  N   UNL     1      42.724 -18.433   3.762  1.00  0.00    -0.271 NA
HETATM   19  C   UNL     1      43.342 -19.317   2.954  1.00  0.00     0.116 A 
HETATM   20  C   UNL     1      43.753 -19.018   1.667  1.00  0.00     0.021 A 
HETATM   21  C   UNL     1      43.514 -17.733   1.177  1.00  0.00     0.032 A 
ENDBRANCH  13  16
ENDBRANCH  10  12
BRANCH   9  22
HETATM   22  C   UNL     1      40.675 -14.317  -1.998  1.00  0.00    -0.029 A 
HETATM   23  C   UNL     1      39.410 -13.710  -1.945  1.00  0.00     0.009 A 
HETATM   24  C   UNL     1      38.343 -14.221  -2.686  1.00  0.00     0.001 A 
HETATM   25  C   UNL     1      38.526 -15.341  -3.495  1.00  0.00     0.000 A 
HETATM   26  C   UNL     1      39.779 -15.946  -3.570  1.00  0.00     0.001 A 
HETATM   27  C   UNL     1      40.848 -15.437  -2.833  1.00  0.00     0.009 A 
ENDBRANCH   9  22
TORSDOF 3
ENDMDL
MODEL 9
REMARK VINA RESULT:      -7.2      2.210      6.109
REMARK  3 active torsions:
REMARK  status: ('A' for Active; 'I' for Inactive)
REMARK    1  A    between atoms: C_9  and  C_10 
REMARK    2  A    between atoms: C_16  and  C_17 
REMARK       I    between atoms: C_17  and  N_18 
REMARK    3  A    between atoms: N_18  and  C_19 
ROOT
HETATM    1  C   UNL     1      44.035 -16.127   7.353  1.00  0.00     0.070 C 
HETATM    2  C   UNL     1      43.841 -17.113   6.227  1.00  0.00     0.037 C 
HETATM    3  N   UNL     1      44.870 -18.035   6.053  1.00  0.00    -0.191 N 
HETATM    4  C   UNL     1      44.744 -19.128   5.272  1.00  0.00     0.735 A 
HETATM    5  N   UNL     1      43.632 -19.268   4.490  1.00  0.00    -0.092 N 
HETATM    6  N   UNL     1      43.654 -20.451   3.858  1.00  0.00     0.012 NA
HETATM    7  N   UNL     1      44.808 -21.002   4.223  1.00  0.00     0.033 NA
HETATM    8  N   UNL     1      45.496 -20.189   5.105  1.00  0.00     0.030 NA
HETATM    9  C   UNL     1      42.552 -18.290   4.404  1.00  0.00     0.198 C 
HETATM   10  C   UNL     1      42.731 -17.193   5.452  1.00  0.00     0.062 C 
HETATM   11  H   UNL     1      45.644 -18.006   6.713  1.00  0.00     0.184 HD
ENDROOT
BRANCH  10  12
HETATM   12  C   UNL     1      41.541 -16.320   5.619  1.00  0.00     0.256 C 
HETATM   13  N   UNL     1      41.606 -15.150   4.897  1.00  0.00    -0.322 N 
HETATM   14  H   UNL     1      42.404 -15.022   4.287  1.00  0.00     0.169 HD
HETATM   15  O   UNL     1      40.617 -16.708   6.323  1.00  0.00    -0.267 OA
BRANCH  13  16
HETATM   16  C   UNL     1      40.672 -14.093   4.931  1.00  0.00     0.052 A 
HETATM   17  C   UNL     1      40.216 -13.461   6.085  1.00  0.00     0.145 A 
HETATM   18  N   UNL     1      39.337 -12.425   6.090  1.00  0.00    -0.271 NA
HETATM   19  C   UNL     1      38.891 -11.996   4.893  1.00  0.00     0.116 A 
HETATM   20  C   UNL     1      39.278 -12.556   3.688  1.00  0.00     0.021 A 
HETATM   21  C   UNL     1      40.179 -13.621   3.712  1.00  0.00     0.032 A 
ENDBRANCH  13  16
ENDBRANCH  10  12
BRANCH   9  22
HETATM   22  C   UNL     1      42.462 -17.715   2.993  1.00  0.00    -0.029 A 
HETATM   23  C   UNL     1      41.205 -17.562   2.385  1.00  0.00     0.009 A 
HETATM   24  C   UNL     1      41.096 -17.034   1.097  1.00  0.00     0.001 A 
HETATM   25  C   UNL     1      42.240 -16.646   0.402  1.00  0.00     0.000 A 
HETATM   26  C   UNL     1      43.493 -16.778   0.997  1.00  0.00     0.001 A 
HETATM   27  C   UNL     1      43.605 -17.303   2.284  1.00  0.00     0.009 A 
ENDBRANCH   9  22
TORSDOF 3
ENDMDL
MODEL 10
REMARK VINA RESULT:      -7.2      4.265      6.936
REMARK  3 active torsions:
REMARK  status: ('A' for Active; 'I' for Inactive)
REMARK    1  A    between atoms: C_9  and  C_10 
REMARK    2  A    between atoms: C_16  and  C_17 
REMARK       I    between atoms: C_17  and  N_18 
REMARK    3  A    between atoms: N_18  and  C_19 
ROOT
HETATM    1  C   UNL     1      42.082 -11.248   0.513  1.00  0.00     0.070 C 
HETATM    2  C   UNL     1      41.755 -12.419   1.405  1.00  0.00     0.037 C 
HETATM    3  N   UNL     1      41.836 -12.173   2.774  1.00  0.00    -0.191 N 
HETATM    4  C   UNL     1      41.338 -13.020   3.698  1.00  0.00     0.735 A 
HETATM    5  N   UNL     1      40.875 -14.245   3.304  1.00  0.00    -0.092 N 
HETATM    6  N   UNL     1      40.347 -14.900   4.348  1.00  0.00     0.012 NA
HETATM    7  N   UNL     1      40.537 -14.087   5.383  1.00  0.00     0.033 NA
HETATM    8  N   UNL     1      41.152 -12.912   4.991  1.00  0.00     0.030 NA
HETATM    9  C   UNL     1      40.905 -14.738   1.930  1.00  0.00     0.198 C 
HETATM   10  C   UNL     1      41.331 -13.631   0.967  1.00  0.00     0.062 C 
HETATM   11  H   UNL     1      42.066 -11.225   3.068  1.00  0.00     0.184 HD
ENDROOT
BRANCH  10  12
HETATM   12  C   UNL     1      41.119 -13.964  -0.465  1.00  0.00     0.256 C 
HETATM   13  N   UNL     1      39.819 -14.298  -0.769  1.00  0.00    -0.322 N 
HETATM   14  H   UNL     1      39.134 -14.228  -0.028  1.00  0.00     0.169 HD
HETATM   15  O   UNL     1      42.065 -13.880  -1.238  1.00  0.00    -0.267 OA
BRANCH  13  16
HETATM   16  C   UNL     1      39.342 -14.747  -2.020  1.00  0.00     0.052 A 
HETATM   17  C   UNL     1      40.062 -15.527  -2.921  1.00  0.00     0.145 A 
HETATM   18  N   UNL     1      39.569 -15.971  -4.107  1.00  0.00    -0.271 NA
HETATM   19  C   UNL     1      38.303 -15.625  -4.411  1.00  0.00     0.116 A 
HETATM   20  C   UNL     1      37.503 -14.853  -3.587  1.00  0.00     0.021 A 
HETATM   21  C   UNL     1      38.035 -14.407  -2.376  1.00  0.00     0.032 A 
ENDBRANCH  13  16
ENDBRANCH  10  12
BRANCH   9  22
HETATM   22  C   UNL     1      41.810 -15.961   1.821  1.00  0.00    -0.029 A 
HETATM   23  C   UNL     1      43.196 -15.817   1.996  1.00  0.00     0.009 A 
HETATM   24  C   UNL     1      44.045 -16.921   1.905  1.00  0.00     0.001 A 
HETATM   25  C   UNL     1      43.521 -18.186   1.646  1.00  0.00     0.000 A 
HETATM   26  C   UNL     1      42.147 -18.349   1.484  1.00  0.00     0.001 A 
HETATM   27  C   UNL     1      41.296 -17.248   1.576  1.00  0.00     0.009 A 
ENDBRANCH   9  22
TORSDOF 3
ENDMDL
