MODEL 1
REMARK VINA RESULT:      -8.2      0.000      0.000
REMARK  5 active torsions:
REMARK  status: ('A' for Active; 'I' for Inactive)
REMARK    1  A    between atoms: C_5  and  O_6 
REMARK    2  A    between atoms: O_6  and  C_7 
REMARK    3  A    between atoms: C_7  and  C_8 
REMARK       I    between atoms: C_8  and  N_9 
REMARK    4  A    between atoms: N_9  and  N_10 
REMARK    5  A    between atoms: C_11  and  C_12 
ROOT
HETATM    1  C   UNL     1      42.054 -17.609   4.934  1.00  0.00     0.261 C 
HETATM    2  N   UNL     1      42.432 -16.600   4.056  1.00  0.00    -0.246 N 
HETATM    3  O   UNL     1      40.907 -18.004   5.134  1.00  0.00    -0.269 OA
HETATM    4  H   UNL     1      43.368 -16.217   4.185  1.00  0.00     0.192 HD
ENDROOT
BRANCH   2   5
HETATM    5  N   UNL     1      41.579 -15.780   3.350  1.00  0.00    -0.184 NA
HETATM    6  C   UNL     1      41.126 -16.197   2.211  1.00  0.00     0.152 C 
BRANCH   6   7
HETATM    7  C   UNL     1      40.181 -15.387   1.468  1.00  0.00     0.011 A 
HETATM    8  C   UNL     1      40.450 -14.642   0.273  1.00  0.00     0.004 A 
HETATM    9  C   UNL     1      39.266 -14.006  -0.100  1.00  0.00     0.043 A 
HETATM   10  C   UNL     1      41.595 -14.457  -0.534  1.00  0.00     0.014 A 
HETATM   11  C   UNL     1      39.169 -13.190  -1.234  1.00  0.00     0.030 A 
HETATM   12  N   UNL     1      38.311 -14.353   0.828  1.00  0.00    -0.364 N 
HETATM   13  C   UNL     1      40.318 -13.023  -2.014  1.00  0.00     0.002 A 
HETATM   14  C   UNL     1      41.514 -13.648  -1.672  1.00  0.00     0.001 A 
HETATM   15  H   UNL     1      37.351 -14.039   0.806  1.00  0.00     0.165 HD
HETATM   16  C   UNL     1      38.847 -15.187   1.771  1.00  0.00     0.102 A 
ENDBRANCH   6   7
ENDBRANCH   2   5
BRANCH   1  17
HETATM   17  C   UNL     1      43.239 -18.275   5.629  1.00  0.00     0.280 C 
BRANCH  17  18
HETATM   18  O   UNL     1      44.362 -18.422   4.754  1.00  0.00    -0.342 OA
BRANCH  18  19
HETATM   19  C   UNL     1      44.449 -19.737   4.362  1.00  0.00     0.075 A 
HETATM   20  C   UNL     1      44.261 -20.102   3.018  1.00  0.00    -0.023 A 
HETATM   21  C   UNL     1      44.266 -21.476   2.691  1.00  0.00    -0.053 A 
HETATM   22  C   UNL     1      44.006 -19.055   1.969  1.00  0.00     0.052 C 
HETATM   23  C   UNL     1      44.011 -21.957   1.287  1.00  0.00     0.049 C 
HETATM   24  C   UNL     1      44.545 -22.426   3.689  1.00  0.00     0.007 A 
HETATM   25  C   UNL     1      44.795 -22.033   5.003  1.00  0.00     0.003 A 
HETATM   26  C   UNL     1      44.748 -20.686   5.341  1.00  0.00     0.037 A 
ENDBRANCH  18  19
ENDBRANCH  17  18
ENDBRANCH   1  17
TORSDOF 5
ENDMDL
MODEL 2
REMARK VINA RESULT:      -8.2      6.123      9.303
REMARK  5 active torsions:
REMARK  status: ('A' for Active; 'I' for Inactive)
REMARK    1  A    between atoms: C_5  and  O_6 
REMARK    2  A    between atoms: O_6  and  C_7 
REMARK    3  A    between atoms: C_7  and  C_8 
REMARK       I    between atoms: C_8  and  N_9 
REMARK    4  A    between atoms: N_9  and  N_10 
REMARK    5  A    between atoms: C_11  and  C_12 
ROOT
HETATM    1  C   UNL     1      44.804 -13.576   7.371  1.00  0.00     0.261 C 
HETATM    2  N   UNL     1      43.595 -14.084   6.909  1.00  0.00    -0.246 N 
HETATM    3  O   UNL     1      45.875 -13.590   6.766  1.00  0.00    -0.269 OA
HETATM    4  H   UNL     1      42.869 -14.227   7.609  1.00  0.00     0.192 HD
ENDROOT
BRANCH   2   5
HETATM    5  N   UNL     1      43.411 -14.803   5.748  1.00  0.00    -0.184 NA
HETATM    6  C   UNL     1      43.491 -16.094   5.804  1.00  0.00     0.152 C 
BRANCH   6   7
HETATM    7  C   UNL     1      43.247 -16.886   4.614  1.00  0.00     0.011 A 
HETATM    8  C   UNL     1      43.795 -18.177   4.321  1.00  0.00     0.004 A 
HETATM    9  C   UNL     1      43.303 -18.569   3.076  1.00  0.00     0.043 A 
HETATM   10  C   UNL     1      44.662 -19.057   5.008  1.00  0.00     0.014 A 
HETATM   11  C   UNL     1      43.638 -19.791   2.479  1.00  0.00     0.030 A 
HETATM   12  N   UNL     1      42.484 -17.558   2.629  1.00  0.00    -0.364 N 
HETATM   13  C   UNL     1      44.499 -20.642   3.180  1.00  0.00     0.002 A 
HETATM   14  C   UNL     1      45.003 -20.283   4.427  1.00  0.00     0.001 A 
HETATM   15  H   UNL     1      41.985 -17.572   1.750  1.00  0.00     0.165 HD
HETATM   16  C   UNL     1      42.436 -16.545   3.548  1.00  0.00     0.102 A 
ENDBRANCH   6   7
ENDBRANCH   2   5
BRANCH   1  17
HETATM   17  C   UNL     1      44.689 -12.904   8.736  1.00  0.00     0.280 C 
BRANCH  17  18
HETATM   18  O   UNL     1      44.746 -11.477   8.639  1.00  0.00    -0.342 OA
BRANCH  18  19
HETATM   19  C   UNL     1      44.026 -10.933   9.676  1.00  0.00     0.075 A 
HETATM   20  C   UNL     1      42.722 -10.450   9.472  1.00  0.00    -0.023 A 
HETATM   21  C   UNL     1      42.068  -9.813  10.549  1.00  0.00    -0.053 A 
HETATM   22  C   UNL     1      42.067 -10.563   8.122  1.00  0.00     0.052 C 
HETATM   23  C   UNL     1      40.695  -9.213  10.399  1.00  0.00     0.049 C 
HETATM   24  C   UNL     1      42.694  -9.759  11.807  1.00  0.00     0.007 A 
HETATM   25  C   UNL     1      43.962 -10.305  12.001  1.00  0.00     0.003 A 
HETATM   26  C   UNL     1      44.630 -10.894  10.934  1.00  0.00     0.037 A 
ENDBRANCH  18  19
ENDBRANCH  17  18
ENDBRANCH   1  17
TORSDOF 5
ENDMDL
MODEL 3
REMARK VINA RESULT:      -8.2      2.748      8.685
REMARK  5 active torsions:
REMARK  status: ('A' for Active; 'I' for Inactive)
REMARK    1  A    between atoms: C_5  and  O_6 
REMARK    2  A    between atoms: O_6  and  C_7 
REMARK    3  A    between atoms: C_7  and  C_8 
REMARK       I    between atoms: C_8  and  N_9 
REMARK    4  A    between atoms: N_9  and  N_10 
REMARK    5  A    between atoms: C_11  and  C_12 
ROOT
HETATM    1  C   UNL     1      42.489 -13.853   2.275  1.00  0.00     0.261 C 
HETATM    2  N   UNL     1      42.250 -15.219   2.182  1.00  0.00    -0.246 N 
HETATM    3  O   UNL     1      43.274 -13.304   3.048  1.00  0.00    -0.269 OA
HETATM    4  H   UNL     1      41.405 -15.495   1.685  1.00  0.00     0.192 HD
ENDROOT
BRANCH   2   5
HETATM    5  N   UNL     1      42.754 -16.187   3.022  1.00  0.00    -0.184 NA
HETATM    6  C   UNL     1      43.129 -17.315   2.509  1.00  0.00     0.152 C 
BRANCH   6   7
HETATM    7  C   UNL     1      43.717 -18.336   3.354  1.00  0.00     0.011 A 
HETATM    8  C   UNL     1      43.922 -19.713   3.014  1.00  0.00     0.004 A 
HETATM    9  C   UNL     1      44.507 -20.335   4.116  1.00  0.00     0.043 A 
HETATM   10  C   UNL     1      43.670 -20.488   1.860  1.00  0.00     0.014 A 
HETATM   11  C   UNL     1      44.848 -21.693   4.128  1.00  0.00     0.030 A 
HETATM   12  N   UNL     1      44.658 -19.374   5.090  1.00  0.00    -0.364 N 
HETATM   13  C   UNL     1      44.586 -22.438   2.973  1.00  0.00     0.002 A 
HETATM   14  C   UNL     1      44.007 -21.846   1.854  1.00  0.00     0.001 A 
HETATM   15  H   UNL     1      45.062 -19.540   6.001  1.00  0.00     0.165 HD
HETATM   16  C   UNL     1      44.193 -18.168   4.641  1.00  0.00     0.102 A 
ENDBRANCH   6   7
ENDBRANCH   2   5
BRANCH   1  17
HETATM   17  C   UNL     1      41.711 -13.036   1.247  1.00  0.00     0.280 C 
BRANCH  17  18
HETATM   18  O   UNL     1      42.570 -12.216   0.449  1.00  0.00    -0.342 OA
BRANCH  18  19
HETATM   19  C   UNL     1      42.299 -12.448  -0.878  1.00  0.00     0.075 A 
HETATM   20  C   UNL     1      42.664 -11.515  -1.862  1.00  0.00    -0.023 A 
HETATM   21  C   UNL     1      42.273 -11.761  -3.196  1.00  0.00    -0.053 A 
HETATM   22  C   UNL     1      43.406 -10.260  -1.489  1.00  0.00     0.052 C 
HETATM   23  C   UNL     1      42.570 -10.784  -4.303  1.00  0.00     0.049 C 
HETATM   24  C   UNL     1      41.615 -12.962  -3.516  1.00  0.00     0.007 A 
HETATM   25  C   UNL     1      41.322 -13.904  -2.531  1.00  0.00     0.003 A 
HETATM   26  C   UNL     1      41.665 -13.648  -1.209  1.00  0.00     0.037 A 
ENDBRANCH  18  19
ENDBRANCH  17  18
ENDBRANCH   1  17
TORSDOF 5
ENDMDL
MODEL 4
REMARK VINA RESULT:      -8.0      2.049      2.325
REMARK  5 active torsions:
REMARK  status: ('A' for Active; 'I' for Inactive)
REMARK    1  A    between atoms: C_5  and  O_6 
REMARK    2  A    between atoms: O_6  and  C_7 
REMARK    3  A    between atoms: C_7  and  C_8 
REMARK       I    between atoms: C_8  and  N_9 
REMARK    4  A    between atoms: N_9  and  N_10 
REMARK    5  A    between atoms: C_11  and  C_12 
ROOT
HETATM    1  C   UNL     1      42.661 -17.503   6.222  1.00  0.00     0.261 C 
HETATM    2  N   UNL     1      42.366 -16.955   4.979  1.00  0.00    -0.246 N 
HETATM    3  O   UNL     1      42.372 -17.019   7.316  1.00  0.00    -0.269 OA
HETATM    4  H   UNL     1      42.882 -17.333   4.187  1.00  0.00     0.192 HD
ENDROOT
BRANCH   2   5
HETATM    5  N   UNL     1      41.812 -15.715   4.754  1.00  0.00    -0.184 NA
HETATM    6  C   UNL     1      41.167 -15.519   3.648  1.00  0.00     0.152 C 
BRANCH   6   7
HETATM    7  C   UNL     1      40.522 -14.244   3.402  1.00  0.00     0.011 A 
HETATM    8  C   UNL     1      39.447 -13.994   2.487  1.00  0.00     0.004 A 
HETATM    9  C   UNL     1      39.140 -12.636   2.564  1.00  0.00     0.043 A 
HETATM   10  C   UNL     1      38.698 -14.804   1.605  1.00  0.00     0.014 A 
HETATM   11  C   UNL     1      38.127 -12.043   1.799  1.00  0.00     0.030 A 
HETATM   12  N   UNL     1      39.991 -12.080   3.491  1.00  0.00    -0.364 N 
HETATM   13  C   UNL     1      37.402 -12.868   0.932  1.00  0.00     0.002 A 
HETATM   14  C   UNL     1      37.680 -14.228   0.836  1.00  0.00     0.001 A 
HETATM   15  H   UNL     1      39.993 -11.104   3.755  1.00  0.00     0.165 HD
HETATM   16  C   UNL     1      40.821 -13.038   4.006  1.00  0.00     0.102 A 
ENDBRANCH   6   7
ENDBRANCH   2   5
BRANCH   1  17
HETATM   17  C   UNL     1      43.354 -18.861   6.131  1.00  0.00     0.280 C 
BRANCH  17  18
HETATM   18  O   UNL     1      44.408 -18.862   5.164  1.00  0.00    -0.342 OA
BRANCH  18  19
HETATM   19  C   UNL     1      44.494 -20.114   4.603  1.00  0.00     0.075 A 
HETATM   20  C   UNL     1      44.318 -20.297   3.221  1.00  0.00    -0.023 A 
HETATM   21  C   UNL     1      44.320 -21.615   2.715  1.00  0.00    -0.053 A 
HETATM   22  C   UNL     1      44.080 -19.118   2.317  1.00  0.00     0.052 C 
HETATM   23  C   UNL     1      44.078 -21.905   1.257  1.00  0.00     0.049 C 
HETATM   24  C   UNL     1      44.583 -22.690   3.581  1.00  0.00     0.007 A 
HETATM   25  C   UNL     1      44.820 -22.477   4.938  1.00  0.00     0.003 A 
HETATM   26  C   UNL     1      44.777 -21.186   5.451  1.00  0.00     0.037 A 
ENDBRANCH  18  19
ENDBRANCH  17  18
ENDBRANCH   1  17
TORSDOF 5
ENDMDL
MODEL 5
REMARK VINA RESULT:      -8.0      2.082      3.215
REMARK  5 active torsions:
REMARK  status: ('A' for Active; 'I' for Inactive)
REMARK    1  A    between atoms: C_5  and  O_6 
REMARK    2  A    between atoms: O_6  and  C_7 
REMARK    3  A    between atoms: C_7  and  C_8 
REMARK       I    between atoms: C_8  and  N_9 
REMARK    4  A    between atoms: N_9  and  N_10 
REMARK    5  A    between atoms: C_11  and  C_12 
ROOT
HETATM    1  C   UNL     1      42.279 -16.314   2.169  1.00  0.00     0.261 C 
HETATM    2  N   UNL     1      41.262 -16.455   1.232  1.00  0.00    -0.246 N 
HETATM    3  O   UNL     1      42.976 -15.314   2.339  1.00  0.00    -0.269 OA
HETATM    4  H   UNL     1      40.953 -17.407   1.043  1.00  0.00     0.192 HD
ENDROOT
BRANCH   2   5
HETATM    5  N   UNL     1      40.941 -15.550   0.245  1.00  0.00    -0.184 NA
HETATM    6  C   UNL     1      41.266 -15.828  -0.977  1.00  0.00     0.152 C 
BRANCH   6   7
HETATM    7  C   UNL     1      40.893 -14.926  -2.049  1.00  0.00     0.011 A 
HETATM    8  C   UNL     1      41.467 -13.641  -2.322  1.00  0.00     0.004 A 
HETATM    9  C   UNL     1      40.810 -13.116  -3.435  1.00  0.00     0.043 A 
HETATM   10  C   UNL     1      42.496 -12.877  -1.727  1.00  0.00     0.014 A 
HETATM   11  C   UNL     1      41.123 -11.865  -3.980  1.00  0.00     0.030 A 
HETATM   12  N   UNL     1      39.874 -14.046  -3.827  1.00  0.00    -0.364 N 
HETATM   13  C   UNL     1      42.145 -11.129  -3.371  1.00  0.00     0.002 A 
HETATM   14  C   UNL     1      42.824 -11.626  -2.262  1.00  0.00     0.001 A 
HETATM   15  H   UNL     1      39.251 -13.934  -4.615  1.00  0.00     0.165 HD
HETATM   16  C   UNL     1      39.920 -15.140  -3.006  1.00  0.00     0.102 A 
ENDBRANCH   6   7
ENDBRANCH   2   5
BRANCH   1  17
HETATM   17  C   UNL     1      42.439 -17.535   3.071  1.00  0.00     0.280 C 
BRANCH  17  18
HETATM   18  O   UNL     1      43.813 -17.875   3.278  1.00  0.00    -0.342 OA
BRANCH  18  19
HETATM   19  C   UNL     1      43.956 -19.236   3.158  1.00  0.00     0.075 A 
HETATM   20  C   UNL     1      44.428 -20.009   4.233  1.00  0.00    -0.023 A 
HETATM   21  C   UNL     1      44.648 -21.387   4.021  1.00  0.00    -0.053 A 
HETATM   22  C   UNL     1      44.742 -19.366   5.557  1.00  0.00     0.052 C 
HETATM   23  C   UNL     1      45.210 -22.275   5.100  1.00  0.00     0.049 C 
HETATM   24  C   UNL     1      44.308 -21.962   2.784  1.00  0.00     0.007 A 
HETATM   25  C   UNL     1      43.778 -21.186   1.754  1.00  0.00     0.003 A 
HETATM   26  C   UNL     1      43.601 -19.820   1.941  1.00  0.00     0.037 A 
ENDBRANCH  18  19
ENDBRANCH  17  18
ENDBRANCH   1  17
TORSDOF 5
ENDMDL
MODEL 6
REMARK VINA RESULT:      -7.9      2.330      3.564
REMARK  5 active torsions:
REMARK  status: ('A' for Active; 'I' for Inactive)
REMARK    1  A    between atoms: C_5  and  O_6 
REMARK    2  A    between atoms: O_6  and  C_7 
REMARK    3  A    between atoms: C_7  and  C_8 
REMARK       I    between atoms: C_8  and  N_9 
REMARK    4  A    between atoms: N_9  and  N_10 
REMARK    5  A    between atoms: C_11  and  C_12 
ROOT
HETATM    1  C   UNL     1      42.829 -16.550   1.264  1.00  0.00     0.261 C 
HETATM    2  N   UNL     1      42.198 -16.356   0.041  1.00  0.00    -0.246 N 
HETATM    3  O   UNL     1      42.757 -15.808   2.243  1.00  0.00    -0.269 OA
HETATM    4  H   UNL     1      42.549 -16.908  -0.740  1.00  0.00     0.192 HD
ENDROOT
BRANCH   2   5
HETATM    5  N   UNL     1      41.487 -15.238  -0.334  1.00  0.00    -0.184 NA
HETATM    6  C   UNL     1      40.924 -15.226  -1.500  1.00  0.00     0.152 C 
BRANCH   6   7
HETATM    7  C   UNL     1      40.119 -14.090  -1.905  1.00  0.00     0.011 A 
HETATM    8  C   UNL     1      38.939 -14.126  -2.717  1.00  0.00     0.004 A 
HETATM    9  C   UNL     1      38.490 -12.814  -2.863  1.00  0.00     0.043 A 
HETATM   10  C   UNL     1      38.202 -15.161  -3.335  1.00  0.00     0.014 A 
HETATM   11  C   UNL     1      37.347 -12.481  -3.601  1.00  0.00     0.030 A 
HETATM   12  N   UNL     1      39.361 -12.009  -2.164  1.00  0.00    -0.364 N 
HETATM   13  C   UNL     1      36.638 -13.524  -4.204  1.00  0.00     0.002 A 
HETATM   14  C   UNL     1      37.056 -14.846  -4.073  1.00  0.00     0.001 A 
HETATM   15  H   UNL     1      39.279 -11.004  -2.091  1.00  0.00     0.165 HD
HETATM   16  C   UNL     1      40.339 -12.765  -1.579  1.00  0.00     0.102 A 
ENDBRANCH   6   7
ENDBRANCH   2   5
BRANCH   1  17
HETATM   17  C   UNL     1      43.612 -17.858   1.335  1.00  0.00     0.280 C 
BRANCH  17  18
HETATM   18  O   UNL     1      44.001 -18.181   2.673  1.00  0.00    -0.342 OA
BRANCH  18  19
HETATM   19  C   UNL     1      44.104 -19.547   2.788  1.00  0.00     0.075 A 
HETATM   20  C   UNL     1      44.521 -20.139   3.992  1.00  0.00    -0.023 A 
HETATM   21  C   UNL     1      44.704 -21.539   4.022  1.00  0.00    -0.053 A 
HETATM   22  C   UNL     1      44.817 -19.291   5.200  1.00  0.00     0.052 C 
HETATM   23  C   UNL     1      45.206 -22.247   5.253  1.00  0.00     0.049 C 
HETATM   24  C   UNL     1      44.381 -22.304   2.888  1.00  0.00     0.007 A 
HETATM   25  C   UNL     1      43.906 -21.699   1.726  1.00  0.00     0.003 A 
HETATM   26  C   UNL     1      43.766 -20.318   1.675  1.00  0.00     0.037 A 
ENDBRANCH  18  19
ENDBRANCH  17  18
ENDBRANCH   1  17
TORSDOF 5
ENDMDL
MODEL 7
REMARK VINA RESULT:      -7.9      2.771      8.512
REMARK  5 active torsions:
REMARK  status: ('A' for Active; 'I' for Inactive)
REMARK    1  A    between atoms: C_5  and  O_6 
REMARK    2  A    between atoms: O_6  and  C_7 
REMARK    3  A    between atoms: C_7  and  C_8 
REMARK       I    between atoms: C_8  and  N_9 
REMARK    4  A    between atoms: N_9  and  N_10 
REMARK    5  A    between atoms: C_11  and  C_12 
ROOT
HETATM    1  C   UNL     1      40.705 -14.996   1.139  1.00  0.00     0.261 C 
HETATM    2  N   UNL     1      40.360 -16.283   1.538  1.00  0.00    -0.246 N 
HETATM    3  O   UNL     1      41.773 -14.429   1.366  1.00  0.00    -0.269 OA
HETATM    4  H   UNL     1      39.369 -16.516   1.498  1.00  0.00     0.192 HD
ENDROOT
BRANCH   2   5
HETATM    5  N   UNL     1      41.100 -17.099   2.363  1.00  0.00    -0.184 NA
HETATM    6  C   UNL     1      42.332 -17.344   2.046  1.00  0.00     0.152 C 
BRANCH   6   7
HETATM    7  C   UNL     1      43.158 -18.153   2.921  1.00  0.00     0.011 A 
HETATM    8  C   UNL     1      43.517 -19.527   2.727  1.00  0.00     0.004 A 
HETATM    9  C   UNL     1      44.314 -19.908   3.806  1.00  0.00     0.043 A 
HETATM   10  C   UNL     1      43.243 -20.482   1.723  1.00  0.00     0.014 A 
HETATM   11  C   UNL     1      44.846 -21.197   3.937  1.00  0.00     0.030 A 
HETATM   12  N   UNL     1      44.439 -18.809   4.624  1.00  0.00    -0.364 N 
HETATM   13  C   UNL     1      44.558 -22.124   2.930  1.00  0.00     0.002 A 
HETATM   14  C   UNL     1      43.770 -21.773   1.837  1.00  0.00     0.001 A 
HETATM   15  H   UNL     1      44.970 -18.793   5.484  1.00  0.00     0.165 HD
HETATM   16  C   UNL     1      43.755 -17.747   4.099  1.00  0.00     0.102 A 
ENDBRANCH   6   7
ENDBRANCH   2   5
BRANCH   1  17
HETATM   17  C   UNL     1      39.628 -14.320   0.296  1.00  0.00     0.280 C 
BRANCH  17  18
HETATM   18  O   UNL     1      40.168 -13.724  -0.888  1.00  0.00    -0.342 OA
BRANCH  18  19
HETATM   19  C   UNL     1      39.694 -14.406  -1.983  1.00  0.00     0.075 A 
HETATM   20  C   UNL     1      38.501 -14.015  -2.615  1.00  0.00    -0.023 A 
HETATM   21  C   UNL     1      38.012 -14.811  -3.674  1.00  0.00    -0.053 A 
HETATM   22  C   UNL     1      37.741 -12.809  -2.135  1.00  0.00     0.052 C 
HETATM   23  C   UNL     1      36.711 -14.498  -4.365  1.00  0.00     0.049 C 
HETATM   24  C   UNL     1      38.767 -15.908  -4.123  1.00  0.00     0.007 A 
HETATM   25  C   UNL     1      39.982 -16.237  -3.522  1.00  0.00     0.003 A 
HETATM   26  C   UNL     1      40.448 -15.484  -2.451  1.00  0.00     0.037 A 
ENDBRANCH  18  19
ENDBRANCH  17  18
ENDBRANCH   1  17
TORSDOF 5
ENDMDL
MODEL 8
REMARK VINA RESULT:      -7.8      2.091      3.428
REMARK  5 active torsions:
REMARK  status: ('A' for Active; 'I' for Inactive)
REMARK    1  A    between atoms: C_5  and  O_6 
REMARK    2  A    between atoms: O_6  and  C_7 
REMARK    3  A    between atoms: C_7  and  C_8 
REMARK       I    between atoms: C_8  and  N_9 
REMARK    4  A    between atoms: N_9  and  N_10 
REMARK    5  A    between atoms: C_11  and  C_12 
ROOT
HETATM    1  C   UNL     1      42.861 -16.563   1.329  1.00  0.00     0.261 C 
HETATM    2  N   UNL     1      42.295 -16.329   0.081  1.00  0.00    -0.246 N 
HETATM    3  O   UNL     1      42.698 -15.881   2.339  1.00  0.00    -0.269 OA
HETATM    4  H   UNL     1      42.716 -16.822  -0.704  1.00  0.00     0.192 HD
ENDROOT
BRANCH   2   5
HETATM    5  N   UNL     1      41.555 -15.223  -0.276  1.00  0.00    -0.184 NA
HETATM    6  C   UNL     1      40.854 -15.276  -1.363  1.00  0.00     0.152 C 
BRANCH   6   7
HETATM    7  C   UNL     1      40.018 -14.153  -1.741  1.00  0.00     0.011 A 
HETATM    8  C   UNL     1      38.937 -13.599  -0.980  1.00  0.00     0.004 A 
HETATM    9  C   UNL     1      38.407 -12.539  -1.715  1.00  0.00     0.043 A 
HETATM   10  C   UNL     1      38.364 -13.898   0.276  1.00  0.00     0.014 A 
HETATM   11  C   UNL     1      37.330 -11.767  -1.263  1.00  0.00     0.030 A 
HETATM   12  N   UNL     1      39.138 -12.448  -2.877  1.00  0.00    -0.364 N 
HETATM   13  C   UNL     1      36.780 -12.085  -0.017  1.00  0.00     0.002 A 
HETATM   14  C   UNL     1      37.290 -13.134   0.744  1.00  0.00     0.001 A 
HETATM   15  H   UNL     1      38.978 -11.761  -3.602  1.00  0.00     0.165 HD
HETATM   16  C   UNL     1      40.113 -13.407  -2.900  1.00  0.00     0.102 A 
ENDBRANCH   6   7
ENDBRANCH   2   5
BRANCH   1  17
HETATM   17  C   UNL     1      43.699 -17.838   1.378  1.00  0.00     0.280 C 
BRANCH  17  18
HETATM   18  O   UNL     1      44.077 -18.182   2.715  1.00  0.00    -0.342 OA
BRANCH  18  19
HETATM   19  C   UNL     1      44.150 -19.551   2.817  1.00  0.00     0.075 A 
HETATM   20  C   UNL     1      44.548 -20.163   4.017  1.00  0.00    -0.023 A 
HETATM   21  C   UNL     1      44.699 -21.567   4.035  1.00  0.00    -0.053 A 
HETATM   22  C   UNL     1      44.858 -19.334   5.234  1.00  0.00     0.052 C 
HETATM   23  C   UNL     1      45.180 -22.298   5.261  1.00  0.00     0.049 C 
HETATM   24  C   UNL     1      44.364 -22.315   2.892  1.00  0.00     0.007 A 
HETATM   25  C   UNL     1      43.907 -21.689   1.734  1.00  0.00     0.003 A 
HETATM   26  C   UNL     1      43.798 -20.304   1.695  1.00  0.00     0.037 A 
ENDBRANCH  18  19
ENDBRANCH  17  18
ENDBRANCH   1  17
TORSDOF 5
ENDMDL
MODEL 9
REMARK VINA RESULT:      -7.8      2.884      9.059
REMARK  5 active torsions:
REMARK  status: ('A' for Active; 'I' for Inactive)
REMARK    1  A    between atoms: C_5  and  O_6 
REMARK    2  A    between atoms: O_6  and  C_7 
REMARK    3  A    between atoms: C_7  and  C_8 
REMARK       I    between atoms: C_8  and  N_9 
REMARK    4  A    between atoms: N_9  and  N_10 
REMARK    5  A    between atoms: C_11  and  C_12 
ROOT
HETATM    1  C   UNL     1      41.250 -15.416   0.081  1.00  0.00     0.261 C 
HETATM    2  N   UNL     1      42.012 -16.577   0.013  1.00  0.00    -0.246 N 
HETATM    3  O   UNL     1      40.814 -14.893   1.105  1.00  0.00    -0.269 OA
HETATM    4  H   UNL     1      42.081 -17.017  -0.903  1.00  0.00     0.192 HD
ENDROOT
BRANCH   2   5
HETATM    5  N   UNL     1      42.306 -17.414   1.066  1.00  0.00    -0.184 NA
HETATM    6  C   UNL     1      43.518 -17.431   1.521  1.00  0.00     0.152 C 
BRANCH   6   7
HETATM    7  C   UNL     1      43.850 -18.257   2.665  1.00  0.00     0.011 A 
HETATM    8  C   UNL     1      44.041 -19.677   2.667  1.00  0.00     0.004 A 
HETATM    9  C   UNL     1      44.339 -20.059   3.974  1.00  0.00     0.043 A 
HETATM   10  C   UNL     1      43.996 -20.676   1.669  1.00  0.00     0.014 A 
HETATM   11  C   UNL     1      44.588 -21.388   4.338  1.00  0.00     0.030 A 
HETATM   12  N   UNL     1      44.335 -18.916   4.740  1.00  0.00    -0.364 N 
HETATM   13  C   UNL     1      44.536 -22.358   3.330  1.00  0.00     0.002 A 
HETATM   14  C   UNL     1      44.246 -22.008   2.014  1.00  0.00     0.001 A 
HETATM   15  H   UNL     1      44.524 -18.891   5.733  1.00  0.00     0.165 HD
HETATM   16  C   UNL     1      44.049 -17.826   3.964  1.00  0.00     0.102 A 
ENDBRANCH   6   7
ENDBRANCH   2   5
BRANCH   1  17
HETATM   17  C   UNL     1      41.032 -14.760  -1.280  1.00  0.00     0.280 C 
BRANCH  17  18
HETATM   18  O   UNL     1      40.494 -13.440  -1.161  1.00  0.00    -0.342 OA
BRANCH  18  19
HETATM   19  C   UNL     1      41.300 -12.568  -1.852  1.00  0.00     0.075 A 
HETATM   20  C   UNL     1      42.134 -11.664  -1.172  1.00  0.00    -0.023 A 
HETATM   21  C   UNL     1      42.866 -10.726  -1.932  1.00  0.00    -0.053 A 
HETATM   22  C   UNL     1      42.198 -11.665   0.331  1.00  0.00     0.052 C 
HETATM   23  C   UNL     1      43.736  -9.683  -1.280  1.00  0.00     0.049 C 
HETATM   24  C   UNL     1      42.813 -10.778  -3.336  1.00  0.00     0.007 A 
HETATM   25  C   UNL     1      42.030 -11.728  -3.989  1.00  0.00     0.003 A 
HETATM   26  C   UNL     1      41.272 -12.626  -3.247  1.00  0.00     0.037 A 
ENDBRANCH  18  19
ENDBRANCH  17  18
ENDBRANCH   1  17
TORSDOF 5
ENDMDL
MODEL 10
REMARK VINA RESULT:      -7.7      2.301      8.257
REMARK  5 active torsions:
REMARK  status: ('A' for Active; 'I' for Inactive)
REMARK    1  A    between atoms: C_5  and  O_6 
REMARK    2  A    between atoms: O_6  and  C_7 
REMARK    3  A    between atoms: C_7  and  C_8 
REMARK       I    between atoms: C_8  and  N_9 
REMARK    4  A    between atoms: N_9  and  N_10 
REMARK    5  A    between atoms: C_11  and  C_12 
ROOT
HETATM    1  C   UNL     1      42.909 -13.917   2.839  1.00  0.00     0.261 C 
HETATM    2  N   UNL     1      42.288 -15.161   2.886  1.00  0.00    -0.246 N 
HETATM    3  O   UNL     1      43.992 -13.628   3.344  1.00  0.00    -0.269 OA
HETATM    4  H   UNL     1      41.298 -15.179   2.646  1.00  0.00     0.192 HD
ENDROOT
BRANCH   2   5
HETATM    5  N   UNL     1      42.715 -16.250   3.612  1.00  0.00    -0.184 NA
HETATM    6  C   UNL     1      43.443 -17.141   3.017  1.00  0.00     0.152 C 
BRANCH   6   7
HETATM    7  C   UNL     1      43.958 -18.272   3.765  1.00  0.00     0.011 A 
HETATM    8  C   UNL     1      44.048 -19.627   3.308  1.00  0.00     0.004 A 
HETATM    9  C   UNL     1      44.595 -20.384   4.344  1.00  0.00     0.043 A 
HETATM   10  C   UNL     1      43.721 -20.281   2.099  1.00  0.00     0.014 A 
HETATM   11  C   UNL     1      44.826 -21.761   4.238  1.00  0.00     0.030 A 
HETATM   12  N   UNL     1      44.833 -19.522   5.391  1.00  0.00    -0.364 N 
HETATM   13  C   UNL     1      44.492 -22.384   3.031  1.00  0.00     0.002 A 
HETATM   14  C   UNL     1      43.949 -21.656   1.975  1.00  0.00     0.001 A 
HETATM   15  H   UNL     1      45.233 -19.796   6.278  1.00  0.00     0.165 HD
HETATM   16  C   UNL     1      44.461 -18.250   5.052  1.00  0.00     0.102 A 
ENDBRANCH   6   7
ENDBRANCH   2   5
BRANCH   1  17
HETATM   17  C   UNL     1      42.137 -12.892   2.013  1.00  0.00     0.280 C 
BRANCH  17  18
HETATM   18  O   UNL     1      40.941 -13.443   1.453  1.00  0.00    -0.342 OA
BRANCH  18  19
HETATM   19  C   UNL     1      40.903 -13.150   0.111  1.00  0.00     0.075 A 
HETATM   20  C   UNL     1      41.089 -14.156  -0.852  1.00  0.00    -0.023 A 
HETATM   21  C   UNL     1      41.137 -13.780  -2.213  1.00  0.00    -0.053 A 
HETATM   22  C   UNL     1      41.285 -15.588  -0.435  1.00  0.00     0.052 C 
HETATM   23  C   UNL     1      41.393 -14.785  -3.304  1.00  0.00     0.049 C 
HETATM   24  C   UNL     1      40.912 -12.439  -2.570  1.00  0.00     0.007 A 
HETATM   25  C   UNL     1      40.664 -11.470  -1.599  1.00  0.00     0.003 A 
HETATM   26  C   UNL     1      40.658 -11.825  -0.256  1.00  0.00     0.037 A 
ENDBRANCH  18  19
ENDBRANCH  17  18
ENDBRANCH   1  17
TORSDOF 5
ENDMDL
