MODEL 1
REMARK VINA RESULT:      -7.2      0.000      0.000
REMARK  9 active torsions:
REMARK  status: ('A' for Active; 'I' for Inactive)
REMARK    1  A    between atoms: C_2  and  C_3 
REMARK    2  A    between atoms: C_7  and  C_8 
REMARK    3  A    between atoms: C_8  and  C_9 
REMARK       I    between atoms: C_9  and  N_10 
REMARK    4  A    between atoms: N_10  and  C_11 
REMARK    5  A    between atoms: C_11  and  C_12 
REMARK    6  A    between atoms: C_12  and  C_13 
REMARK    7  A    between atoms: C_21  and  C_22 
REMARK    8  A    between atoms: C_32  and  C_33 
REMARK    9  A    between atoms: C_33  and  O_34 
ROOT
HETATM    1  C   UNL     1      41.025 -11.887   4.429  1.00  0.00     0.051 C 
HETATM    2  N   UNL     1      41.886 -12.818   4.962  1.00  0.00    -0.228 NA
HETATM    3  C   UNL     1      41.648 -14.061   4.760  1.00  0.00     0.170 C 
HETATM    4  N   UNL     1      40.609 -14.639   3.749  1.00  0.00    -0.318 N 
HETATM    5  C   UNL     1      40.801 -15.918   3.646  1.00  0.00     0.011 C 
HETATM    6  C   UNL     1      39.800 -13.609   3.041  1.00  0.00     0.166 C 
HETATM    7  S   UNL     1      42.587 -15.300   5.535  1.00  0.00    -0.086 SA
HETATM    8  C   UNL     1      41.496 -16.558   4.832  1.00  0.00     0.135 C 
HETATM    9  C   UNL     1      39.979 -12.242   3.654  1.00  0.00     0.069 C 
ENDROOT
BRANCH   5  10
HETATM   10  C   UNL     1      40.626 -16.695   2.364  1.00  0.00     0.156 C 
BRANCH  10  11
HETATM   11  C   UNL     1      42.021 -17.057   1.854  1.00  0.00     0.222 C 
HETATM   12  N   UNL     1      42.276 -18.382   1.624  1.00  0.00    -0.361 N 
HETATM   13  H   UNL     1      41.528 -19.061   1.745  1.00  0.00     0.162 HD
HETATM   14  O   UNL     1      42.890 -16.189   1.732  1.00  0.00    -0.273 OA
BRANCH  12  15
HETATM   15  C   UNL     1      43.636 -18.904   1.684  1.00  0.00     0.124 C 
BRANCH  15  16
HETATM   16  C   UNL     1      44.269 -19.046   3.074  1.00  0.00     0.053 C 
BRANCH  16  17
HETATM   17  C   UNL     1      44.838 -20.409   3.458  1.00  0.00     0.189 C 
HETATM   18  N   UNL     1      44.981 -20.684   4.942  1.00  0.00    -0.071 N 
HETATM   19  H   UNL     1      45.850 -20.199   5.237  1.00  0.00     0.279 HD
HETATM   20  C   UNL     1      43.872 -20.244   5.856  1.00  0.00     0.270 C 
HETATM   21  C   UNL     1      45.199 -22.188   5.041  1.00  0.00     0.235 C 
HETATM   22  C   UNL     1      44.681 -22.763   3.728  1.00  0.00     0.030 C 
HETATM   23  C   UNL     1      44.022 -21.605   2.992  1.00  0.00     0.035 C 
ENDBRANCH  16  17
ENDBRANCH  15  16
ENDBRANCH  12  15
ENDBRANCH  10  11
ENDBRANCH   5  10
BRANCH   6  24
HETATM   24  C   UNL     1      40.064 -13.611   1.533  1.00  0.00    -0.024 A 
HETATM   25  C   UNL     1      39.039 -13.897   0.595  1.00  0.00    -0.053 A 
HETATM   26  C   UNL     1      37.617 -14.212   0.994  1.00  0.00     0.049 C 
HETATM   27  C   UNL     1      39.327 -13.852  -0.781  1.00  0.00     0.014 A 
HETATM   28  C   UNL     1      40.605 -13.541  -1.251  1.00  0.00    -0.061 A 
HETATM   29  C   UNL     1      40.863 -13.421  -2.727  1.00  0.00     0.048 C 
HETATM   30  C   UNL     1      41.611 -13.251  -0.330  1.00  0.00     0.007 A 
HETATM   31  C   UNL     1      41.348 -13.285   1.042  1.00  0.00     0.011 A 
ENDBRANCH   6  24
BRANCH   9  32
HETATM   32  C   UNL     1      38.820 -11.336   3.476  1.00  0.00     0.293 C 
HETATM   33  O   UNL     1      38.026 -11.074   4.357  1.00  0.00    -0.259 OA
BRANCH  32  34
HETATM   34  O   UNL     1      38.942 -10.723   2.275  1.00  0.00    -0.323 OA
HETATM   35  C   UNL     1      38.886  -9.294   2.297  1.00  0.00     0.213 C 
ENDBRANCH  32  34
ENDBRANCH   9  32
BRANCH   1  36
HETATM   36  C   UNL     1      41.368 -10.459   4.846  1.00  0.00     0.056 C 
HETATM   37  C   UNL     1      41.332 -10.207   6.351  1.00  0.00     0.011 C 
ENDBRANCH   1  36
TORSDOF 9
ENDMDL
MODEL 2
REMARK VINA RESULT:      -7.2      2.833      5.584
REMARK  9 active torsions:
REMARK  status: ('A' for Active; 'I' for Inactive)
REMARK    1  A    between atoms: C_2  and  C_3 
REMARK    2  A    between atoms: C_7  and  C_8 
REMARK    3  A    between atoms: C_8  and  C_9 
REMARK       I    between atoms: C_9  and  N_10 
REMARK    4  A    between atoms: N_10  and  C_11 
REMARK    5  A    between atoms: C_11  and  C_12 
REMARK    6  A    between atoms: C_12  and  C_13 
REMARK    7  A    between atoms: C_21  and  C_22 
REMARK    8  A    between atoms: C_32  and  C_33 
REMARK    9  A    between atoms: C_33  and  O_34 
ROOT
HETATM    1  C   UNL     1      40.636 -15.256  -2.319  1.00  0.00     0.051 C 
HETATM    2  N   UNL     1      41.023 -16.153  -1.351  1.00  0.00    -0.228 NA
HETATM    3  C   UNL     1      41.494 -15.700  -0.248  1.00  0.00     0.170 C 
HETATM    4  N   UNL     1      41.443 -14.212   0.223  1.00  0.00    -0.318 N 
HETATM    5  C   UNL     1      41.801 -14.163   1.469  1.00  0.00     0.011 C 
HETATM    6  C   UNL     1      40.854 -13.272  -0.768  1.00  0.00     0.166 C 
HETATM    7  S   UNL     1      42.159 -16.761   0.956  1.00  0.00    -0.086 SA
HETATM    8  C   UNL     1      42.654 -15.326   1.938  1.00  0.00     0.135 C 
HETATM    9  C   UNL     1      40.680 -13.923  -2.119  1.00  0.00     0.069 C 
ENDROOT
BRANCH   5  10
HETATM   10  C   UNL     1      41.211 -13.206   2.476  1.00  0.00     0.156 C 
BRANCH  10  11
HETATM   11  C   UNL     1      40.395 -14.033   3.470  1.00  0.00     0.222 C 
HETATM   12  N   UNL     1      40.895 -14.154   4.739  1.00  0.00    -0.361 N 
HETATM   13  H   UNL     1      41.746 -13.656   4.988  1.00  0.00     0.162 HD
HETATM   14  O   UNL     1      39.372 -14.621   3.108  1.00  0.00    -0.273 OA
BRANCH  12  15
HETATM   15  C   UNL     1      40.552 -15.300   5.572  1.00  0.00     0.124 C 
BRANCH  15  16
HETATM   16  C   UNL     1      41.706 -16.014   6.288  1.00  0.00     0.053 C 
BRANCH  16  17
HETATM   17  C   UNL     1      42.681 -16.820   5.432  1.00  0.00     0.189 C 
HETATM   18  N   UNL     1      43.817 -17.502   6.170  1.00  0.00    -0.071 N 
HETATM   19  H   UNL     1      44.525 -16.763   6.345  1.00  0.00     0.279 HD
HETATM   20  C   UNL     1      43.511 -18.172   7.480  1.00  0.00     0.270 C 
HETATM   21  C   UNL     1      44.384 -18.502   5.171  1.00  0.00     0.235 C 
HETATM   22  C   UNL     1      43.286 -18.714   4.136  1.00  0.00     0.030 C 
HETATM   23  C   UNL     1      42.064 -17.976   4.662  1.00  0.00     0.035 C 
ENDBRANCH  16  17
ENDBRANCH  15  16
ENDBRANCH  12  15
ENDBRANCH  10  11
ENDBRANCH   5  10
BRANCH   6  24
HETATM   24  C   UNL     1      39.559 -12.636  -0.256  1.00  0.00    -0.024 A 
HETATM   25  C   UNL     1      39.436 -11.235  -0.072  1.00  0.00    -0.053 A 
HETATM   26  C   UNL     1      40.551 -10.260  -0.370  1.00  0.00     0.049 C 
HETATM   27  C   UNL     1      38.213 -10.699   0.369  1.00  0.00     0.014 A 
HETATM   28  C   UNL     1      37.112 -11.516   0.643  1.00  0.00    -0.061 A 
HETATM   29  C   UNL     1      35.795 -10.909   1.035  1.00  0.00     0.048 C 
HETATM   30  C   UNL     1      37.231 -12.892   0.454  1.00  0.00     0.007 A 
HETATM   31  C   UNL     1      38.435 -13.448   0.013  1.00  0.00     0.011 A 
ENDBRANCH   6  24
BRANCH   9  32
HETATM   32  C   UNL     1      40.719 -12.981  -3.261  1.00  0.00     0.293 C 
HETATM   33  O   UNL     1      39.735 -12.442  -3.726  1.00  0.00    -0.259 OA
BRANCH  32  34
HETATM   34  O   UNL     1      42.014 -12.685  -3.523  1.00  0.00    -0.323 OA
HETATM   35  C   UNL     1      42.295 -11.311  -3.804  1.00  0.00     0.213 C 
ENDBRANCH  32  34
ENDBRANCH   9  32
BRANCH   1  36
HETATM   36  C   UNL     1      40.205 -15.938  -3.616  1.00  0.00     0.056 C 
HETATM   37  C   UNL     1      38.704 -15.885  -3.896  1.00  0.00     0.011 C 
ENDBRANCH   1  36
TORSDOF 9
ENDMDL
MODEL 3
REMARK VINA RESULT:      -7.2      3.317      8.173
REMARK  9 active torsions:
REMARK  status: ('A' for Active; 'I' for Inactive)
REMARK    1  A    between atoms: C_2  and  C_3 
REMARK    2  A    between atoms: C_7  and  C_8 
REMARK    3  A    between atoms: C_8  and  C_9 
REMARK       I    between atoms: C_9  and  N_10 
REMARK    4  A    between atoms: N_10  and  C_11 
REMARK    5  A    between atoms: C_11  and  C_12 
REMARK    6  A    between atoms: C_12  and  C_13 
REMARK    7  A    between atoms: C_21  and  C_22 
REMARK    8  A    between atoms: C_32  and  C_33 
REMARK    9  A    between atoms: C_33  and  O_34 
ROOT
HETATM    1  C   UNL     1      43.138 -18.929   3.119  1.00  0.00     0.051 C 
HETATM    2  N   UNL     1      43.135 -19.401   4.411  1.00  0.00    -0.228 NA
HETATM    3  C   UNL     1      43.493 -18.610   5.354  1.00  0.00     0.170 C 
HETATM    4  N   UNL     1      43.696 -17.068   5.224  1.00  0.00    -0.318 N 
HETATM    5  C   UNL     1      43.829 -16.568   6.414  1.00  0.00     0.011 C 
HETATM    6  C   UNL     1      43.519 -16.537   3.845  1.00  0.00     0.166 C 
HETATM    7  S   UNL     1      43.679 -19.174   6.987  1.00  0.00    -0.086 SA
HETATM    8  C   UNL     1      44.301 -17.547   7.471  1.00  0.00     0.135 C 
HETATM    9  C   UNL     1      43.444 -17.648   2.826  1.00  0.00     0.069 C 
ENDROOT
BRANCH   5  10
HETATM   10  C   UNL     1      43.300 -15.214   6.822  1.00  0.00     0.156 C 
BRANCH  10  11
HETATM   11  C   UNL     1      44.500 -14.360   7.236  1.00  0.00     0.222 C 
HETATM   12  N   UNL     1      44.393 -13.663   8.409  1.00  0.00    -0.361 N 
HETATM   13  H   UNL     1      43.560 -13.777   8.981  1.00  0.00     0.162 HD
HETATM   14  O   UNL     1      45.482 -14.256   6.496  1.00  0.00    -0.273 OA
BRANCH  12  15
HETATM   15  C   UNL     1      45.165 -12.447   8.629  1.00  0.00     0.124 C 
BRANCH  15  16
HETATM   16  C   UNL     1      44.737 -11.548   9.797  1.00  0.00     0.053 C 
BRANCH  16  17
HETATM   17  C   UNL     1      43.246 -11.454  10.109  1.00  0.00     0.189 C 
HETATM   18  N   UNL     1      42.878 -11.116  11.541  1.00  0.00    -0.071 N 
HETATM   19  H   UNL     1      42.971 -12.002  12.074  1.00  0.00     0.279 HD
HETATM   20  C   UNL     1      43.682 -10.062  12.249  1.00  0.00     0.270 C 
HETATM   21  C   UNL     1      41.407 -10.726  11.484  1.00  0.00     0.235 C 
HETATM   22  C   UNL     1      41.134 -10.372  10.027  1.00  0.00     0.030 C 
HETATM   23  C   UNL     1      42.486 -10.394   9.328  1.00  0.00     0.035 C 
ENDBRANCH  16  17
ENDBRANCH  15  16
ENDBRANCH  12  15
ENDBRANCH  10  11
ENDBRANCH   5  10
BRANCH   6  24
HETATM   24  C   UNL     1      42.331 -15.577   3.748  1.00  0.00    -0.024 A 
HETATM   25  C   UNL     1      42.510 -14.178   3.599  1.00  0.00    -0.053 A 
HETATM   26  C   UNL     1      43.868 -13.522   3.514  1.00  0.00     0.049 C 
HETATM   27  C   UNL     1      41.384 -13.344   3.481  1.00  0.00     0.014 A 
HETATM   28  C   UNL     1      40.085 -13.858   3.518  1.00  0.00    -0.061 A 
HETATM   29  C   UNL     1      38.904 -12.953   3.309  1.00  0.00     0.048 C 
HETATM   30  C   UNL     1      39.909 -15.234   3.656  1.00  0.00     0.007 A 
HETATM   31  C   UNL     1      41.012 -16.084   3.771  1.00  0.00     0.011 A 
ENDBRANCH   6  24
BRANCH   9  32
HETATM   32  C   UNL     1      43.897 -17.264   1.469  1.00  0.00     0.293 C 
HETATM   33  O   UNL     1      45.061 -17.082   1.172  1.00  0.00    -0.259 OA
BRANCH  32  34
HETATM   34  O   UNL     1      42.844 -17.366   0.625  1.00  0.00    -0.323 OA
HETATM   35  C   UNL     1      42.143 -16.149   0.354  1.00  0.00     0.213 C 
ENDBRANCH  32  34
ENDBRANCH   9  32
BRANCH   1  36
HETATM   36  C   UNL     1      42.801 -20.011   2.096  1.00  0.00     0.056 C 
HETATM   37  C   UNL     1      43.860 -21.102   1.948  1.00  0.00     0.011 C 
ENDBRANCH   1  36
TORSDOF 9
ENDMDL
MODEL 4
REMARK VINA RESULT:      -6.9      2.759      4.136
REMARK  9 active torsions:
REMARK  status: ('A' for Active; 'I' for Inactive)
REMARK    1  A    between atoms: C_2  and  C_3 
REMARK    2  A    between atoms: C_7  and  C_8 
REMARK    3  A    between atoms: C_8  and  C_9 
REMARK       I    between atoms: C_9  and  N_10 
REMARK    4  A    between atoms: N_10  and  C_11 
REMARK    5  A    between atoms: C_11  and  C_12 
REMARK    6  A    between atoms: C_12  and  C_13 
REMARK    7  A    between atoms: C_21  and  C_22 
REMARK    8  A    between atoms: C_32  and  C_33 
REMARK    9  A    between atoms: C_33  and  O_34 
ROOT
HETATM    1  C   UNL     1      42.259 -11.027  -0.813  1.00  0.00     0.051 C 
HETATM    2  N   UNL     1      42.767 -11.596   0.331  1.00  0.00    -0.228 NA
HETATM    3  C   UNL     1      41.970 -12.238   1.103  1.00  0.00     0.170 C 
HETATM    4  N   UNL     1      40.509 -12.665   0.755  1.00  0.00    -0.318 N 
HETATM    5  C   UNL     1      40.092 -13.487   1.668  1.00  0.00     0.011 C 
HETATM    6  C   UNL     1      40.029 -12.193  -0.572  1.00  0.00     0.166 C 
HETATM    7  S   UNL     1      42.494 -12.840   2.646  1.00  0.00    -0.086 SA
HETATM    8  C   UNL     1      40.805 -13.377   3.003  1.00  0.00     0.135 C 
HETATM    9  C   UNL     1      40.968 -11.177  -1.175  1.00  0.00     0.069 C 
ENDROOT
BRANCH   5  10
HETATM   10  C   UNL     1      39.180 -14.658   1.394  1.00  0.00     0.156 C 
BRANCH  10  11
HETATM   11  C   UNL     1      39.980 -15.933   1.662  1.00  0.00     0.222 C 
HETATM   12  N   UNL     1      41.280 -15.955   1.234  1.00  0.00    -0.361 N 
HETATM   13  H   UNL     1      41.678 -15.120   0.810  1.00  0.00     0.162 HD
HETATM   14  O   UNL     1      39.440 -16.917   2.174  1.00  0.00    -0.273 OA
BRANCH  12  15
HETATM   15  C   UNL     1      41.945 -17.215   0.924  1.00  0.00     0.124 C 
BRANCH  15  16
HETATM   16  C   UNL     1      43.466 -17.270   1.123  1.00  0.00     0.053 C 
BRANCH  16  17
HETATM   17  C   UNL     1      44.038 -18.467   1.878  1.00  0.00     0.189 C 
HETATM   18  N   UNL     1      44.139 -18.324   3.384  1.00  0.00    -0.071 N 
HETATM   19  H   UNL     1      44.993 -17.760   3.559  1.00  0.00     0.279 HD
HETATM   20  C   UNL     1      42.997 -17.675   4.114  1.00  0.00     0.270 C 
HETATM   21  C   UNL     1      44.372 -19.740   3.895  1.00  0.00     0.235 C 
HETATM   22  C   UNL     1      43.902 -20.660   2.775  1.00  0.00     0.030 C 
HETATM   23  C   UNL     1      43.252 -19.760   1.735  1.00  0.00     0.035 C 
ENDBRANCH  16  17
ENDBRANCH  15  16
ENDBRANCH  12  15
ENDBRANCH  10  11
ENDBRANCH   5  10
BRANCH   6  24
HETATM   24  C   UNL     1      39.739 -13.356  -1.523  1.00  0.00    -0.024 A 
HETATM   25  C   UNL     1      38.470 -13.522  -2.136  1.00  0.00    -0.053 A 
HETATM   26  C   UNL     1      37.314 -12.576  -1.915  1.00  0.00     0.049 C 
HETATM   27  C   UNL     1      38.266 -14.589  -3.030  1.00  0.00     0.014 A 
HETATM   28  C   UNL     1      39.283 -15.502  -3.323  1.00  0.00    -0.061 A 
HETATM   29  C   UNL     1      39.062 -16.584  -4.342  1.00  0.00     0.048 C 
HETATM   30  C   UNL     1      40.533 -15.334  -2.727  1.00  0.00     0.007 A 
HETATM   31  C   UNL     1      40.760 -14.279  -1.840  1.00  0.00     0.011 A 
ENDBRANCH   6  24
BRANCH   9  32
HETATM   32  C   UNL     1      40.320 -10.223  -2.105  1.00  0.00     0.293 C 
HETATM   33  O   UNL     1      39.859  -9.153  -1.760  1.00  0.00    -0.259 OA
BRANCH  32  34
HETATM   34  O   UNL     1      40.529 -10.654  -3.370  1.00  0.00    -0.323 OA
HETATM   35  C   UNL     1      39.405 -10.572  -4.250  1.00  0.00     0.213 C 
ENDBRANCH  32  34
ENDBRANCH   9  32
BRANCH   1  36
HETATM   36  C   UNL     1      43.296 -10.201  -1.572  1.00  0.00     0.056 C 
HETATM   37  C   UNL     1      43.749  -8.931  -0.855  1.00  0.00     0.011 C 
ENDBRANCH   1  36
TORSDOF 9
ENDMDL
MODEL 5
REMARK VINA RESULT:      -6.9      2.889      5.443
REMARK  9 active torsions:
REMARK  status: ('A' for Active; 'I' for Inactive)
REMARK    1  A    between atoms: C_2  and  C_3 
REMARK    2  A    between atoms: C_7  and  C_8 
REMARK    3  A    between atoms: C_8  and  C_9 
REMARK       I    between atoms: C_9  and  N_10 
REMARK    4  A    between atoms: N_10  and  C_11 
REMARK    5  A    between atoms: C_11  and  C_12 
REMARK    6  A    between atoms: C_12  and  C_13 
REMARK    7  A    between atoms: C_21  and  C_22 
REMARK    8  A    between atoms: C_32  and  C_33 
REMARK    9  A    between atoms: C_33  and  O_34 
ROOT
HETATM    1  C   UNL     1      41.118 -14.690  -1.533  1.00  0.00     0.051 C 
HETATM    2  N   UNL     1      41.033 -15.895  -0.876  1.00  0.00    -0.228 NA
HETATM    3  C   UNL     1      41.009 -15.895   0.405  1.00  0.00     0.170 C 
HETATM    4  N   UNL     1      40.810 -14.642   1.315  1.00  0.00    -0.318 N 
HETATM    5  C   UNL     1      40.610 -15.043   2.532  1.00  0.00     0.011 C 
HETATM    6  C   UNL     1      40.723 -13.352   0.576  1.00  0.00     0.166 C 
HETATM    7  S   UNL     1      41.072 -17.376   1.312  1.00  0.00    -0.086 SA
HETATM    8  C   UNL     1      41.150 -16.425   2.848  1.00  0.00     0.135 C 
HETATM    9  C   UNL     1      41.114 -13.513  -0.873  1.00  0.00     0.069 C 
ENDROOT
BRANCH   5  10
HETATM   10  C   UNL     1      39.681 -14.357   3.503  1.00  0.00     0.156 C 
BRANCH  10  11
HETATM   11  C   UNL     1      40.517 -13.919   4.705  1.00  0.00     0.222 C 
HETATM   12  N   UNL     1      41.727 -13.334   4.444  1.00  0.00    -0.361 N 
HETATM   13  H   UNL     1      41.999 -13.165   3.478  1.00  0.00     0.162 HD
HETATM   14  O   UNL     1      40.137 -14.157   5.855  1.00  0.00    -0.273 OA
BRANCH  12  15
HETATM   15  C   UNL     1      42.809 -13.386   5.419  1.00  0.00     0.124 C 
BRANCH  15  16
HETATM   16  C   UNL     1      43.609 -14.692   5.507  1.00  0.00     0.053 C 
BRANCH  16  17
HETATM   17  C   UNL     1      43.112 -15.763   6.474  1.00  0.00     0.189 C 
HETATM   18  N   UNL     1      42.918 -17.152   5.895  1.00  0.00    -0.071 N 
HETATM   19  H   UNL     1      42.007 -17.127   5.398  1.00  0.00     0.279 HD
HETATM   20  C   UNL     1      43.954 -17.674   4.940  1.00  0.00     0.270 C 
HETATM   21  C   UNL     1      42.792 -18.065   7.108  1.00  0.00     0.235 C 
HETATM   22  C   UNL     1      43.405 -17.289   8.268  1.00  0.00     0.030 C 
HETATM   23  C   UNL     1      44.022 -16.039   7.660  1.00  0.00     0.035 C 
ENDBRANCH  16  17
ENDBRANCH  15  16
ENDBRANCH  12  15
ENDBRANCH  10  11
ENDBRANCH   5  10
BRANCH   6  24
HETATM   24  C   UNL     1      39.353 -12.690   0.740  1.00  0.00    -0.024 A 
HETATM   25  C   UNL     1      39.202 -11.435   1.385  1.00  0.00    -0.053 A 
HETATM   26  C   UNL     1      40.362 -10.650   1.950  1.00  0.00     0.049 C 
HETATM   27  C   UNL     1      37.925 -10.854   1.479  1.00  0.00     0.014 A 
HETATM   28  C   UNL     1      36.792 -11.488   0.961  1.00  0.00    -0.061 A 
HETATM   29  C   UNL     1      35.453 -10.807   1.005  1.00  0.00     0.048 C 
HETATM   30  C   UNL     1      36.942 -12.717   0.320  1.00  0.00     0.007 A 
HETATM   31  C   UNL     1      38.201 -13.312   0.210  1.00  0.00     0.011 A 
ENDBRANCH   6  24
BRANCH   9  32
HETATM   32  C   UNL     1      41.660 -12.286  -1.497  1.00  0.00     0.293 C 
HETATM   33  O   UNL     1      41.063 -11.626  -2.323  1.00  0.00    -0.259 OA
BRANCH  32  34
HETATM   34  O   UNL     1      42.794 -11.945  -0.842  1.00  0.00    -0.323 OA
HETATM   35  C   UNL     1      43.168 -10.566  -0.920  1.00  0.00     0.213 C 
ENDBRANCH  32  34
ENDBRANCH   9  32
BRANCH   1  36
HETATM   36  C   UNL     1      41.253 -14.851  -3.045  1.00  0.00     0.056 C 
HETATM   37  C   UNL     1      39.969 -15.267  -3.760  1.00  0.00     0.011 C 
ENDBRANCH   1  36
TORSDOF 9
ENDMDL
MODEL 6
REMARK VINA RESULT:      -6.9      2.190      4.920
REMARK  9 active torsions:
REMARK  status: ('A' for Active; 'I' for Inactive)
REMARK    1  A    between atoms: C_2  and  C_3 
REMARK    2  A    between atoms: C_7  and  C_8 
REMARK    3  A    between atoms: C_8  and  C_9 
REMARK       I    between atoms: C_9  and  N_10 
REMARK    4  A    between atoms: N_10  and  C_11 
REMARK    5  A    between atoms: C_11  and  C_12 
REMARK    6  A    between atoms: C_12  and  C_13 
REMARK    7  A    between atoms: C_21  and  C_22 
REMARK    8  A    between atoms: C_32  and  C_33 
REMARK    9  A    between atoms: C_33  and  O_34 
ROOT
HETATM    1  C   UNL     1      39.276 -12.820   1.691  1.00  0.00     0.051 C 
HETATM    2  N   UNL     1      39.830 -14.076   1.613  1.00  0.00    -0.228 NA
HETATM    3  C   UNL     1      40.974 -14.277   2.155  1.00  0.00     0.170 C 
HETATM    4  N   UNL     1      41.707 -13.300   3.128  1.00  0.00    -0.318 N 
HETATM    5  C   UNL     1      42.716 -13.923   3.654  1.00  0.00     0.011 C 
HETATM    6  C   UNL     1      41.004 -12.007   3.348  1.00  0.00     0.166 C 
HETATM    7  S   UNL     1      41.818 -15.783   1.958  1.00  0.00    -0.086 SA
HETATM    8  C   UNL     1      43.235 -15.098   2.847  1.00  0.00     0.135 C 
HETATM    9  C   UNL     1      39.869 -11.817   2.372  1.00  0.00     0.069 C 
ENDROOT
BRANCH   5  10
HETATM   10  C   UNL     1      43.187 -13.716   5.073  1.00  0.00     0.156 C 
BRANCH  10  11
HETATM   11  C   UNL     1      42.799 -14.961   5.870  1.00  0.00     0.222 C 
HETATM   12  N   UNL     1      43.811 -15.648   6.485  1.00  0.00    -0.361 N 
HETATM   13  H   UNL     1      44.760 -15.285   6.437  1.00  0.00     0.162 HD
HETATM   14  O   UNL     1      41.630 -15.358   5.886  1.00  0.00    -0.273 OA
BRANCH  12  15
HETATM   15  C   UNL     1      43.679 -17.070   6.778  1.00  0.00     0.124 C 
BRANCH  15  16
HETATM   16  C   UNL     1      44.744 -18.006   6.191  1.00  0.00     0.053 C 
BRANCH  16  17
HETATM   17  C   UNL     1      44.545 -18.496   4.760  1.00  0.00     0.189 C 
HETATM   18  N   UNL     1      44.949 -19.931   4.478  1.00  0.00    -0.071 N 
HETATM   19  H   UNL     1      45.982 -19.918   4.369  1.00  0.00     0.279 HD
HETATM   20  C   UNL     1      44.604 -20.978   5.499  1.00  0.00     0.270 C 
HETATM   21  C   UNL     1      44.315 -20.258   3.133  1.00  0.00     0.235 C 
HETATM   22  C   UNL     1      43.202 -19.233   2.947  1.00  0.00     0.030 C 
HETATM   23  C   UNL     1      43.110 -18.468   4.259  1.00  0.00     0.035 C 
ENDBRANCH  16  17
ENDBRANCH  15  16
ENDBRANCH  12  15
ENDBRANCH  10  11
ENDBRANCH   5  10
BRANCH   6  24
HETATM   24  C   UNL     1      40.557 -11.838   4.802  1.00  0.00    -0.024 A 
HETATM   25  C   UNL     1      40.900 -10.690   5.561  1.00  0.00    -0.053 A 
HETATM   26  C   UNL     1      41.717  -9.546   5.008  1.00  0.00     0.049 C 
HETATM   27  C   UNL     1      40.435 -10.569   6.883  1.00  0.00     0.014 A 
HETATM   28  C   UNL     1      39.648 -11.560   7.476  1.00  0.00    -0.061 A 
HETATM   29  C   UNL     1      39.098 -11.366   8.861  1.00  0.00     0.048 C 
HETATM   30  C   UNL     1      39.303 -12.685   6.727  1.00  0.00     0.007 A 
HETATM   31  C   UNL     1      39.750 -12.826   5.410  1.00  0.00     0.011 A 
ENDBRANCH   6  24
BRANCH   9  32
HETATM   32  C   UNL     1      39.544 -10.402   2.081  1.00  0.00     0.293 C 
HETATM   33  O   UNL     1      38.692  -9.769   2.673  1.00  0.00    -0.259 OA
BRANCH  32  34
HETATM   34  O   UNL     1      40.479  -9.917   1.231  1.00  0.00    -0.323 OA
HETATM   35  C   UNL     1      40.986  -8.615   1.539  1.00  0.00     0.213 C 
ENDBRANCH  32  34
ENDBRANCH   9  32
BRANCH   1  36
HETATM   36  C   UNL     1      37.972 -12.701   0.906  1.00  0.00     0.056 C 
HETATM   37  C   UNL     1      37.264 -14.027   0.640  1.00  0.00     0.011 C 
ENDBRANCH   1  36
TORSDOF 9
ENDMDL
MODEL 7
REMARK VINA RESULT:      -6.8      3.333      6.096
REMARK  9 active torsions:
REMARK  status: ('A' for Active; 'I' for Inactive)
REMARK    1  A    between atoms: C_2  and  C_3 
REMARK    2  A    between atoms: C_7  and  C_8 
REMARK    3  A    between atoms: C_8  and  C_9 
REMARK       I    between atoms: C_9  and  N_10 
REMARK    4  A    between atoms: N_10  and  C_11 
REMARK    5  A    between atoms: C_11  and  C_12 
REMARK    6  A    between atoms: C_12  and  C_13 
REMARK    7  A    between atoms: C_21  and  C_22 
REMARK    8  A    between atoms: C_32  and  C_33 
REMARK    9  A    between atoms: C_33  and  O_34 
ROOT
HETATM    1  C   UNL     1      41.560 -11.768  -2.378  1.00  0.00     0.051 C 
HETATM    2  N   UNL     1      42.070 -10.753  -1.602  1.00  0.00    -0.228 NA
HETATM    3  C   UNL     1      41.478 -10.466  -0.502  1.00  0.00     0.170 C 
HETATM    4  N   UNL     1      40.369 -11.320   0.189  1.00  0.00    -0.318 N 
HETATM    5  C   UNL     1      40.171 -10.851   1.382  1.00  0.00     0.011 C 
HETATM    6  C   UNL     1      39.949 -12.522  -0.581  1.00  0.00     0.166 C 
HETATM    7  S   UNL     1      41.956  -9.093   0.451  1.00  0.00    -0.086 SA
HETATM    8  C   UNL     1      40.575  -9.402   1.576  1.00  0.00     0.135 C 
HETATM    9  C   UNL     1      40.500 -12.504  -1.986  1.00  0.00     0.069 C 
ENDROOT
BRANCH   5  10
HETATM   10  C   UNL     1      39.838 -11.708   2.578  1.00  0.00     0.156 C 
BRANCH  10  11
HETATM   11  C   UNL     1      41.080 -11.754   3.468  1.00  0.00     0.222 C 
HETATM   12  N   UNL     1      42.094 -12.590   3.082  1.00  0.00    -0.361 N 
HETATM   13  H   UNL     1      42.010 -13.101   2.206  1.00  0.00     0.162 HD
HETATM   14  O   UNL     1      41.121 -11.117   4.524  1.00  0.00    -0.273 OA
BRANCH  12  15
HETATM   15  C   UNL     1      43.028 -13.135   4.059  1.00  0.00     0.124 C 
BRANCH  15  16
HETATM   16  C   UNL     1      43.409 -14.615   3.912  1.00  0.00     0.053 C 
BRANCH  16  17
HETATM   17  C   UNL     1      42.633 -15.632   4.743  1.00  0.00     0.189 C 
HETATM   18  N   UNL     1      43.321 -16.143   5.994  1.00  0.00    -0.071 N 
HETATM   19  H   UNL     1      43.994 -16.865   5.672  1.00  0.00     0.279 HD
HETATM   20  C   UNL     1      44.071 -15.157   6.844  1.00  0.00     0.270 C 
HETATM   21  C   UNL     1      42.218 -16.820   6.797  1.00  0.00     0.235 C 
HETATM   22  C   UNL     1      40.912 -16.251   6.256  1.00  0.00     0.030 C 
HETATM   23  C   UNL     1      41.303 -15.141   5.292  1.00  0.00     0.035 C 
ENDBRANCH  16  17
ENDBRANCH  15  16
ENDBRANCH  12  15
ENDBRANCH  10  11
ENDBRANCH   5  10
BRANCH   6  24
HETATM   24  C   UNL     1      40.281 -13.821   0.158  1.00  0.00    -0.024 A 
HETATM   25  C   UNL     1      39.291 -14.556   0.859  1.00  0.00    -0.053 A 
HETATM   26  C   UNL     1      37.842 -14.134   0.929  1.00  0.00     0.049 C 
HETATM   27  C   UNL     1      39.642 -15.761   1.494  1.00  0.00     0.014 A 
HETATM   28  C   UNL     1      40.950 -16.251   1.461  1.00  0.00    -0.061 A 
HETATM   29  C   UNL     1      41.279 -17.581   2.079  1.00  0.00     0.048 C 
HETATM   30  C   UNL     1      41.922 -15.533   0.765  1.00  0.00     0.007 A 
HETATM   31  C   UNL     1      41.596 -14.335   0.123  1.00  0.00     0.011 A 
ENDBRANCH   6  24
BRANCH   9  32
HETATM   32  C   UNL     1      39.681 -13.246  -2.973  1.00  0.00     0.293 C 
HETATM   33  O   UNL     1      38.760 -12.753  -3.593  1.00  0.00    -0.259 OA
BRANCH  32  34
HETATM   34  O   UNL     1      40.267 -14.446  -3.195  1.00  0.00    -0.323 OA
HETATM   35  C   UNL     1      39.442 -15.437  -3.814  1.00  0.00     0.213 C 
ENDBRANCH  32  34
ENDBRANCH   9  32
BRANCH   1  36
HETATM   36  C   UNL     1      42.297 -11.921  -3.706  1.00  0.00     0.056 C 
HETATM   37  C   UNL     1      42.012 -10.819  -4.725  1.00  0.00     0.011 C 
ENDBRANCH   1  36
TORSDOF 9
ENDMDL
MODEL 8
REMARK VINA RESULT:      -6.8      2.843      5.555
REMARK  9 active torsions:
REMARK  status: ('A' for Active; 'I' for Inactive)
REMARK    1  A    between atoms: C_2  and  C_3 
REMARK    2  A    between atoms: C_7  and  C_8 
REMARK    3  A    between atoms: C_8  and  C_9 
REMARK       I    between atoms: C_9  and  N_10 
REMARK    4  A    between atoms: N_10  and  C_11 
REMARK    5  A    between atoms: C_11  and  C_12 
REMARK    6  A    between atoms: C_12  and  C_13 
REMARK    7  A    between atoms: C_21  and  C_22 
REMARK    8  A    between atoms: C_32  and  C_33 
REMARK    9  A    between atoms: C_33  and  O_34 
ROOT
HETATM    1  C   UNL     1      41.899 -12.682  -0.609  1.00  0.00     0.051 C 
HETATM    2  N   UNL     1      41.840 -11.626   0.271  1.00  0.00    -0.228 NA
HETATM    3  C   UNL     1      41.084 -11.728   1.301  1.00  0.00     0.170 C 
HETATM    4  N   UNL     1      40.404 -13.038   1.809  1.00  0.00    -0.318 N 
HETATM    5  C   UNL     1      39.913 -12.817   2.989  1.00  0.00     0.011 C 
HETATM    6  C   UNL     1      40.626 -14.224   0.938  1.00  0.00     0.166 C 
HETATM    7  S   UNL     1      40.823 -10.382   2.369  1.00  0.00    -0.086 SA
HETATM    8  C   UNL     1      39.621 -11.361   3.299  1.00  0.00     0.135 C 
HETATM    9  C   UNL     1      41.238 -13.836  -0.386  1.00  0.00     0.069 C 
ENDROOT
BRANCH   5  10
HETATM   10  C   UNL     1      39.882 -13.844   4.094  1.00  0.00     0.156 C 
BRANCH  10  11
HETATM   11  C   UNL     1      40.926 -13.431   5.132  1.00  0.00     0.222 C 
HETATM   12  N   UNL     1      42.240 -13.486   4.751  1.00  0.00    -0.361 N 
HETATM   13  H   UNL     1      42.470 -13.743   3.794  1.00  0.00     0.162 HD
HETATM   14  O   UNL     1      40.587 -13.135   6.281  1.00  0.00    -0.273 OA
BRANCH  12  15
HETATM   15  C   UNL     1      43.298 -13.664   5.738  1.00  0.00     0.124 C 
BRANCH  15  16
HETATM   16  C   UNL     1      44.162 -14.927   5.617  1.00  0.00     0.053 C 
BRANCH  16  17
HETATM   17  C   UNL     1      44.209 -15.870   6.816  1.00  0.00     0.189 C 
HETATM   18  N   UNL     1      42.870 -16.300   7.385  1.00  0.00    -0.071 N 
HETATM   19  H   UNL     1      42.546 -15.509   7.974  1.00  0.00     0.279 HD
HETATM   20  C   UNL     1      41.768 -16.645   6.423  1.00  0.00     0.270 C 
HETATM   21  C   UNL     1      43.193 -17.485   8.285  1.00  0.00     0.235 C 
HETATM   22  C   UNL     1      44.553 -17.993   7.822  1.00  0.00     0.030 C 
HETATM   23  C   UNL     1      44.889 -17.206   6.564  1.00  0.00     0.035 C 
ENDBRANCH  16  17
ENDBRANCH  15  16
ENDBRANCH  12  15
ENDBRANCH  10  11
ENDBRANCH   5  10
BRANCH   6  24
HETATM   24  C   UNL     1      41.424 -15.318   1.651  1.00  0.00    -0.024 A 
HETATM   25  C   UNL     1      40.795 -16.461   2.208  1.00  0.00    -0.053 A 
HETATM   26  C   UNL     1      39.305 -16.701   2.138  1.00  0.00     0.049 C 
HETATM   27  C   UNL     1      41.579 -17.453   2.823  1.00  0.00     0.014 A 
HETATM   28  C   UNL     1      42.969 -17.337   2.911  1.00  0.00    -0.061 A 
HETATM   29  C   UNL     1      43.788 -18.450   3.503  1.00  0.00     0.048 C 
HETATM   30  C   UNL     1      43.589 -16.218   2.357  1.00  0.00     0.007 A 
HETATM   31  C   UNL     1      42.831 -15.221   1.737  1.00  0.00     0.011 A 
ENDBRANCH   6  24
BRANCH   9  32
HETATM   32  C   UNL     1      40.920 -14.760  -1.500  1.00  0.00     0.293 C 
HETATM   33  O   UNL     1      41.371 -15.884  -1.594  1.00  0.00    -0.259 OA
BRANCH  32  34
HETATM   34  O   UNL     1      39.916 -14.218  -2.228  1.00  0.00    -0.323 OA
HETATM   35  C   UNL     1      39.861 -14.613  -3.602  1.00  0.00     0.213 C 
ENDBRANCH  32  34
ENDBRANCH   9  32
BRANCH   1  36
HETATM   36  C   UNL     1      42.746 -12.375  -1.842  1.00  0.00     0.056 C 
HETATM   37  C   UNL     1      42.245 -11.205  -2.685  1.00  0.00     0.011 C 
ENDBRANCH   1  36
TORSDOF 9
ENDMDL
MODEL 9
REMARK VINA RESULT:      -6.8      3.257      5.774
REMARK  9 active torsions:
REMARK  status: ('A' for Active; 'I' for Inactive)
REMARK    1  A    between atoms: C_2  and  C_3 
REMARK    2  A    between atoms: C_7  and  C_8 
REMARK    3  A    between atoms: C_8  and  C_9 
REMARK       I    between atoms: C_9  and  N_10 
REMARK    4  A    between atoms: N_10  and  C_11 
REMARK    5  A    between atoms: C_11  and  C_12 
REMARK    6  A    between atoms: C_12  and  C_13 
REMARK    7  A    between atoms: C_21  and  C_22 
REMARK    8  A    between atoms: C_32  and  C_33 
REMARK    9  A    between atoms: C_33  and  O_34 
ROOT
HETATM    1  C   UNL     1      41.750 -10.692  -0.648  1.00  0.00     0.051 C 
HETATM    2  N   UNL     1      41.887  -9.795   0.386  1.00  0.00    -0.228 NA
HETATM    3  C   UNL     1      40.972  -9.750   1.283  1.00  0.00     0.170 C 
HETATM    4  N   UNL     1      39.825 -10.792   1.470  1.00  0.00    -0.318 N 
HETATM    5  C   UNL     1      39.235 -10.556   2.602  1.00  0.00     0.011 C 
HETATM    6  C   UNL     1      39.796 -11.867   0.442  1.00  0.00     0.166 C 
HETATM    7  S   UNL     1      40.983  -8.535   2.525  1.00  0.00    -0.086 SA
HETATM    8  C   UNL     1      39.385  -9.138   3.119  1.00  0.00     0.135 C 
HETATM    9  C   UNL     1      40.721 -11.562  -0.710  1.00  0.00     0.069 C 
ENDROOT
BRANCH   5  10
HETATM   10  C   UNL     1      38.680 -11.632   3.502  1.00  0.00     0.156 C 
BRANCH  10  11
HETATM   11  C   UNL     1      39.541 -11.662   4.765  1.00  0.00     0.222 C 
HETATM   12  N   UNL     1      40.871 -11.947   4.607  1.00  0.00    -0.361 N 
HETATM   13  H   UNL     1      41.244 -12.073   3.669  1.00  0.00     0.162 HD
HETATM   14  O   UNL     1      39.030 -11.508   5.878  1.00  0.00    -0.273 OA
BRANCH  12  15
HETATM   15  C   UNL     1      41.644 -12.536   5.693  1.00  0.00     0.124 C 
BRANCH  15  16
HETATM   16  C   UNL     1      42.648 -13.636   5.320  1.00  0.00     0.053 C 
BRANCH  16  17
HETATM   17  C   UNL     1      42.168 -15.083   5.384  1.00  0.00     0.189 C 
HETATM   18  N   UNL     1      43.106 -16.073   6.047  1.00  0.00    -0.071 N 
HETATM   19  H   UNL     1      43.824 -16.305   5.334  1.00  0.00     0.279 HD
HETATM   20  C   UNL     1      43.818 -15.646   7.300  1.00  0.00     0.270 C 
HETATM   21  C   UNL     1      42.251 -17.307   6.305  1.00  0.00     0.235 C 
HETATM   22  C   UNL     1      40.808 -16.821   6.258  1.00  0.00     0.030 C 
HETATM   23  C   UNL     1      40.877 -15.305   6.156  1.00  0.00     0.035 C 
ENDBRANCH  16  17
ENDBRANCH  15  16
ENDBRANCH  12  15
ENDBRANCH  10  11
ENDBRANCH   5  10
BRANCH   6  24
HETATM   24  C   UNL     1      40.057 -13.247   1.050  1.00  0.00    -0.024 A 
HETATM   25  C   UNL     1      39.020 -14.201   1.214  1.00  0.00    -0.053 A 
HETATM   26  C   UNL     1      37.589 -13.946   0.801  1.00  0.00     0.049 C 
HETATM   27  C   UNL     1      39.320 -15.468   1.746  1.00  0.00     0.014 A 
HETATM   28  C   UNL     1      40.620 -15.810   2.130  1.00  0.00    -0.061 A 
HETATM   29  C   UNL     1      40.926 -17.197   2.621  1.00  0.00     0.048 C 
HETATM   30  C   UNL     1      41.641 -14.876   1.962  1.00  0.00     0.007 A 
HETATM   31  C   UNL     1      41.368 -13.613   1.431  1.00  0.00     0.011 A 
ENDBRANCH   6  24
BRANCH   9  32
HETATM   32  C   UNL     1      40.318 -12.177  -1.996  1.00  0.00     0.293 C 
HETATM   33  O   UNL     1      39.654 -11.606  -2.838  1.00  0.00    -0.259 OA
BRANCH  32  34
HETATM   34  O   UNL     1      40.984 -13.347  -2.134  1.00  0.00    -0.323 OA
HETATM   35  C   UNL     1      40.175 -14.494  -2.414  1.00  0.00     0.213 C 
ENDBRANCH  32  34
ENDBRANCH   9  32
BRANCH   1  36
HETATM   36  C   UNL     1      42.852 -10.554  -1.697  1.00  0.00     0.056 C 
HETATM   37  C   UNL     1      43.931  -9.528  -1.358  1.00  0.00     0.011 C 
ENDBRANCH   1  36
TORSDOF 9
ENDMDL
MODEL 10
REMARK VINA RESULT:      -6.8      1.407      1.792
REMARK  9 active torsions:
REMARK  status: ('A' for Active; 'I' for Inactive)
REMARK    1  A    between atoms: C_2  and  C_3 
REMARK    2  A    between atoms: C_7  and  C_8 
REMARK    3  A    between atoms: C_8  and  C_9 
REMARK       I    between atoms: C_9  and  N_10 
REMARK    4  A    between atoms: N_10  and  C_11 
REMARK    5  A    between atoms: C_11  and  C_12 
REMARK    6  A    between atoms: C_12  and  C_13 
REMARK    7  A    between atoms: C_21  and  C_22 
REMARK    8  A    between atoms: C_32  and  C_33 
REMARK    9  A    between atoms: C_33  and  O_34 
ROOT
HETATM    1  C   UNL     1      40.591 -10.652   3.247  1.00  0.00     0.051 C 
HETATM    2  N   UNL     1      41.285 -11.415   4.158  1.00  0.00    -0.228 NA
HETATM    3  C   UNL     1      41.011 -12.663   4.248  1.00  0.00     0.170 C 
HETATM    4  N   UNL     1      40.135 -13.480   3.247  1.00  0.00    -0.318 N 
HETATM    5  C   UNL     1      40.264 -14.742   3.521  1.00  0.00     0.011 C 
HETATM    6  C   UNL     1      39.531 -12.671   2.154  1.00  0.00     0.166 C 
HETATM    7  S   UNL     1      41.719 -13.659   5.484  1.00  0.00    -0.086 SA
HETATM    8  C   UNL     1      40.695 -15.047   4.943  1.00  0.00     0.135 C 
HETATM    9  C   UNL     1      39.681 -11.191   2.410  1.00  0.00     0.069 C 
ENDROOT
BRANCH   5  10
HETATM   10  C   UNL     1      40.273 -15.833   2.479  1.00  0.00     0.156 C 
BRANCH  10  11
HETATM   11  C   UNL     1      41.730 -16.076   2.083  1.00  0.00     0.222 C 
HETATM   12  N   UNL     1      41.959 -16.951   1.055  1.00  0.00    -0.361 N 
HETATM   13  H   UNL     1      41.167 -17.359   0.564  1.00  0.00     0.162 HD
HETATM   14  O   UNL     1      42.649 -15.557   2.722  1.00  0.00    -0.273 OA
BRANCH  12  15
HETATM   15  C   UNL     1      43.222 -17.671   0.953  1.00  0.00     0.124 C 
BRANCH  15  16
HETATM   16  C   UNL     1      43.323 -19.013   1.690  1.00  0.00     0.053 C 
BRANCH  16  17
HETATM   17  C   UNL     1      44.263 -19.093   2.891  1.00  0.00     0.189 C 
HETATM   18  N   UNL     1      43.818 -18.360   4.142  1.00  0.00    -0.071 N 
HETATM   19  H   UNL     1      44.049 -17.361   3.981  1.00  0.00     0.279 HD
HETATM   20  C   UNL     1      42.370 -18.444   4.536  1.00  0.00     0.270 C 
HETATM   21  C   UNL     1      44.712 -18.901   5.249  1.00  0.00     0.235 C 
HETATM   22  C   UNL     1      45.253 -20.226   4.726  1.00  0.00     0.030 C 
HETATM   23  C   UNL     1      44.520 -20.495   3.420  1.00  0.00     0.035 C 
ENDBRANCH  16  17
ENDBRANCH  15  16
ENDBRANCH  12  15
ENDBRANCH  10  11
ENDBRANCH   5  10
BRANCH   6  24
HETATM   24  C   UNL     1      40.059 -13.081   0.778  1.00  0.00    -0.024 A 
HETATM   25  C   UNL     1      39.213 -13.650  -0.208  1.00  0.00    -0.053 A 
HETATM   26  C   UNL     1      37.737 -13.889   0.006  1.00  0.00     0.049 C 
HETATM   27  C   UNL     1      39.742 -13.978  -1.470  1.00  0.00     0.014 A 
HETATM   28  C   UNL     1      41.089 -13.767  -1.776  1.00  0.00    -0.061 A 
HETATM   29  C   UNL     1      41.608 -14.053  -3.157  1.00  0.00     0.048 C 
HETATM   30  C   UNL     1      41.919 -13.200  -0.810  1.00  0.00     0.007 A 
HETATM   31  C   UNL     1      41.416 -12.862   0.449  1.00  0.00     0.011 A 
ENDBRANCH   6  24
BRANCH   9  32
HETATM   32  C   UNL     1      38.631 -10.354   1.785  1.00  0.00     0.293 C 
HETATM   33  O   UNL     1      38.741  -9.838   0.690  1.00  0.00    -0.259 OA
BRANCH  32  34
HETATM   34  O   UNL     1      37.507 -10.454   2.533  1.00  0.00    -0.323 OA
HETATM   35  C   UNL     1      36.932  -9.217   2.962  1.00  0.00     0.213 C 
ENDBRANCH  32  34
ENDBRANCH   9  32
BRANCH   1  36
HETATM   36  C   UNL     1      40.942  -9.169   3.331  1.00  0.00     0.056 C 
HETATM   37  C   UNL     1      41.282  -8.672   4.735  1.00  0.00     0.011 C 
ENDBRANCH   1  36
TORSDOF 9
ENDMDL
