MODEL 1
REMARK VINA RESULT:      -8.6      0.000      0.000
REMARK  8 active torsions:
REMARK  status: ('A' for Active; 'I' for Inactive)
REMARK    1  A    between atoms: C_4  and  N_5 
REMARK       I    between atoms: N_5  and  C_6 
REMARK    2  A    between atoms: C_6  and  C_7 
REMARK    3  A    between atoms: C_7  and  N_8 
REMARK    4  A    between atoms: C_7  and  C_24 
REMARK    5  A    between atoms: N_8  and  C_11 
REMARK    6  A    between atoms: C_11  and  C_12 
REMARK    7  A    between atoms: C_15  and  N_16 
REMARK    8  A    between atoms: C_31  and  O_32 
ROOT
HETATM    1  C   UNL     1      41.934 -14.947   4.305  1.00  0.00     0.310 C 
ENDROOT
BRANCH   1   2
HETATM    2  C   UNL     1      41.210 -15.602   5.507  1.00  0.00     0.257 C 
HETATM    3  N   UNL     1      41.674 -16.726   6.120  1.00  0.00    -0.323 N 
HETATM    4  H   UNL     1      40.966 -17.228   6.655  1.00  0.00     0.169 HD
HETATM    5  O   UNL     1      40.147 -15.092   5.891  1.00  0.00    -0.270 OA
BRANCH   3   6
HETATM    6  C   UNL     1      42.878 -17.443   5.958  1.00  0.00     0.069 A 
HETATM    7  C   UNL     1      43.019 -18.509   5.063  1.00  0.00     0.039 A 
HETATM    8  C   UNL     1      44.240 -19.188   4.950  1.00  0.00    -0.060 A 
HETATM    9  C   UNL     1      44.379 -20.354   4.015  1.00  0.00     0.048 C 
HETATM   10  C   UNL     1      45.316 -18.790   5.747  1.00  0.00     0.009 A 
HETATM   11  C   UNL     1      45.199 -17.697   6.609  1.00  0.00     0.039 A 
HETATM   12  C   UNL     1      43.988 -17.011   6.711  1.00  0.00     0.095 A 
BRANCH  12  13
HETATM   13  O   UNL     1      43.756 -15.935   7.534  1.00  0.00    -0.354 OA
HETATM   14  C   UNL     1      44.399 -14.711   7.190  1.00  0.00     0.210 C 
ENDBRANCH  12  13
ENDBRANCH   3   6
ENDBRANCH   1   2
BRANCH   1  15
HETATM   15  N   UNL     1      41.171 -13.699   3.868  1.00  0.00    -0.054 N 
HETATM   16  H   UNL     1      40.239 -14.022   3.567  1.00  0.00     0.278 HD
HETATM   17  H   UNL     1      41.031 -13.078   4.669  1.00  0.00     0.278 HD
BRANCH  15  18
HETATM   18  C   UNL     1      41.722 -12.916   2.726  1.00  0.00     0.272 C 
BRANCH  18  19
HETATM   19  C   UNL     1      41.094 -13.357   1.433  1.00  0.00    -0.033 A 
HETATM   20  C   UNL     1      39.719 -13.605   1.368  1.00  0.00     0.011 A 
HETATM   21  C   UNL     1      39.128 -14.047   0.179  1.00  0.00     0.030 A 
HETATM   22  C   UNL     1      39.883 -14.235  -0.983  1.00  0.00     0.037 A 
HETATM   23  C   UNL     1      41.257 -13.964  -0.916  1.00  0.00     0.030 A 
HETATM   24  C   UNL     1      41.860 -13.541   0.278  1.00  0.00     0.011 A 
BRANCH  22  25
HETATM   25  N   UNL     1      39.281 -14.669  -2.192  1.00  0.00    -0.318 N 
HETATM   26  C   UNL     1      39.897 -15.445  -3.190  1.00  0.00     0.224 C 
HETATM   27  O   UNL     1      41.037 -15.879  -3.228  1.00  0.00    -0.273 OA
HETATM   28  C   UNL     1      38.911 -15.599  -4.326  1.00  0.00     0.105 C 
HETATM   29  C   UNL     1      37.583 -15.260  -3.677  1.00  0.00     0.029 C 
HETATM   30  C   UNL     1      37.962 -14.253  -2.611  1.00  0.00     0.133 C 
ENDBRANCH  22  25
ENDBRANCH  18  19
ENDBRANCH  15  18
ENDBRANCH   1  15
BRANCH   1  31
HETATM   31  C   UNL     1      42.226 -15.865   3.133  1.00  0.00    -0.019 A 
HETATM   32  C   UNL     1      41.188 -16.639   2.583  1.00  0.00     0.010 A 
HETATM   33  C   UNL     1      41.443 -17.520   1.530  1.00  0.00     0.001 A 
HETATM   34  C   UNL     1      42.732 -17.646   1.018  1.00  0.00     0.000 A 
HETATM   35  C   UNL     1      43.772 -16.895   1.557  1.00  0.00     0.001 A 
HETATM   36  C   UNL     1      43.524 -16.014   2.611  1.00  0.00     0.010 A 
ENDBRANCH   1  31
TORSDOF 8
ENDMDL
MODEL 2
REMARK VINA RESULT:      -8.3      2.029      7.463
REMARK  8 active torsions:
REMARK  status: ('A' for Active; 'I' for Inactive)
REMARK    1  A    between atoms: C_4  and  N_5 
REMARK       I    between atoms: N_5  and  C_6 
REMARK    2  A    between atoms: C_6  and  C_7 
REMARK    3  A    between atoms: C_7  and  N_8 
REMARK    4  A    between atoms: C_7  and  C_24 
REMARK    5  A    between atoms: N_8  and  C_11 
REMARK    6  A    between atoms: C_11  and  C_12 
REMARK    7  A    between atoms: C_15  and  N_16 
REMARK    8  A    between atoms: C_31  and  O_32 
ROOT
HETATM    1  C   UNL     1      41.076 -14.485  -0.329  1.00  0.00     0.310 C 
ENDROOT
BRANCH   1   2
HETATM    2  C   UNL     1      41.831 -13.134  -0.294  1.00  0.00     0.257 C 
HETATM    3  N   UNL     1      42.090 -12.467   0.864  1.00  0.00    -0.323 N 
HETATM    4  H   UNL     1      42.285 -11.475   0.736  1.00  0.00     0.169 HD
HETATM    5  O   UNL     1      42.174 -12.635  -1.376  1.00  0.00    -0.270 OA
BRANCH   3   6
HETATM    6  C   UNL     1      41.904 -12.840   2.212  1.00  0.00     0.069 A 
HETATM    7  C   UNL     1      42.933 -13.342   3.016  1.00  0.00     0.039 A 
HETATM    8  C   UNL     1      42.686 -13.701   4.348  1.00  0.00    -0.060 A 
HETATM    9  C   UNL     1      43.783 -14.273   5.199  1.00  0.00     0.048 C 
HETATM   10  C   UNL     1      41.395 -13.557   4.864  1.00  0.00     0.009 A 
HETATM   11  C   UNL     1      40.373 -13.014   4.083  1.00  0.00     0.039 A 
HETATM   12  C   UNL     1      40.622 -12.641   2.761  1.00  0.00     0.095 A 
BRANCH  12  13
HETATM   13  O   UNL     1      39.691 -12.111   1.900  1.00  0.00    -0.354 OA
HETATM   14  C   UNL     1      38.430 -12.772   1.828  1.00  0.00     0.210 C 
ENDBRANCH  12  13
ENDBRANCH   3   6
ENDBRANCH   1   2
BRANCH   1  15
HETATM   15  N   UNL     1      42.059 -15.627  -0.076  1.00  0.00    -0.054 N 
HETATM   16  H   UNL     1      42.485 -15.847  -0.989  1.00  0.00     0.278 HD
HETATM   17  H   UNL     1      42.812 -15.307   0.539  1.00  0.00     0.278 HD
BRANCH  15  18
HETATM   18  C   UNL     1      41.509 -16.911   0.441  1.00  0.00     0.272 C 
BRANCH  18  19
HETATM   19  C   UNL     1      41.905 -17.116   1.876  1.00  0.00    -0.033 A 
HETATM   20  C   UNL     1      43.233 -17.411   2.204  1.00  0.00     0.011 A 
HETATM   21  C   UNL     1      43.609 -17.635   3.532  1.00  0.00     0.030 A 
HETATM   22  C   UNL     1      42.680 -17.553   4.575  1.00  0.00     0.037 A 
HETATM   23  C   UNL     1      41.356 -17.236   4.242  1.00  0.00     0.030 A 
HETATM   24  C   UNL     1      40.968 -17.031   2.910  1.00  0.00     0.011 A 
BRANCH  22  25
HETATM   25  N   UNL     1      43.065 -17.766   5.924  1.00  0.00    -0.318 N 
HETATM   26  C   UNL     1      44.052 -18.661   6.370  1.00  0.00     0.224 C 
HETATM   27  O   UNL     1      44.749 -19.421   5.716  1.00  0.00    -0.273 OA
HETATM   28  C   UNL     1      44.067 -18.614   7.881  1.00  0.00     0.105 C 
HETATM   29  C   UNL     1      43.362 -17.308   8.191  1.00  0.00     0.029 C 
HETATM   30  C   UNL     1      42.384 -17.159   7.045  1.00  0.00     0.133 C 
ENDBRANCH  22  25
ENDBRANCH  18  19
ENDBRANCH  15  18
ENDBRANCH   1  15
BRANCH   1  31
HETATM   31  C   UNL     1      40.232 -14.736  -1.564  1.00  0.00    -0.019 A 
HETATM   32  C   UNL     1      38.956 -14.152  -1.663  1.00  0.00     0.010 A 
HETATM   33  C   UNL     1      38.147 -14.401  -2.773  1.00  0.00     0.001 A 
HETATM   34  C   UNL     1      38.594 -15.238  -3.793  1.00  0.00     0.000 A 
HETATM   35  C   UNL     1      39.850 -15.831  -3.706  1.00  0.00     0.001 A 
HETATM   36  C   UNL     1      40.663 -15.588  -2.599  1.00  0.00     0.010 A 
ENDBRANCH   1  31
TORSDOF 8
ENDMDL
MODEL 3
REMARK VINA RESULT:      -8.1      2.519      7.768
REMARK  8 active torsions:
REMARK  status: ('A' for Active; 'I' for Inactive)
REMARK    1  A    between atoms: C_4  and  N_5 
REMARK       I    between atoms: N_5  and  C_6 
REMARK    2  A    between atoms: C_6  and  C_7 
REMARK    3  A    between atoms: C_7  and  N_8 
REMARK    4  A    between atoms: C_7  and  C_24 
REMARK    5  A    between atoms: N_8  and  C_11 
REMARK    6  A    between atoms: C_11  and  C_12 
REMARK    7  A    between atoms: C_15  and  N_16 
REMARK    8  A    between atoms: C_31  and  O_32 
ROOT
HETATM    1  C   UNL     1      41.294 -15.388   1.046  1.00  0.00     0.310 C 
ENDROOT
BRANCH   1   2
HETATM    2  C   UNL     1      39.925 -15.898   1.557  1.00  0.00     0.257 C 
HETATM    3  N   UNL     1      38.784 -15.161   1.462  1.00  0.00    -0.323 N 
HETATM    4  H   UNL     1      38.049 -15.451   2.107  1.00  0.00     0.169 HD
HETATM    5  O   UNL     1      39.890 -17.010   2.106  1.00  0.00    -0.270 OA
BRANCH   3   6
HETATM    6  C   UNL     1      38.522 -13.935   0.815  1.00  0.00     0.069 A 
HETATM    7  C   UNL     1      38.088 -13.848  -0.512  1.00  0.00     0.039 A 
HETATM    8  C   UNL     1      37.849 -12.600  -1.103  1.00  0.00    -0.060 A 
HETATM    9  C   UNL     1      37.417 -12.507  -2.538  1.00  0.00     0.048 C 
HETATM   10  C   UNL     1      38.055 -11.440  -0.352  1.00  0.00     0.009 A 
HETATM   11  C   UNL     1      38.444 -11.519   0.988  1.00  0.00     0.039 A 
HETATM   12  C   UNL     1      38.667 -12.762   1.582  1.00  0.00     0.095 A 
BRANCH  12  13
HETATM   13  O   UNL     1      39.063 -12.956   2.883  1.00  0.00    -0.354 OA
HETATM   14  C   UNL     1      39.616 -11.832   3.563  1.00  0.00     0.210 C 
ENDBRANCH  12  13
ENDBRANCH   3   6
ENDBRANCH   1   2
BRANCH   1  15
HETATM   15  N   UNL     1      41.793 -14.266   1.955  1.00  0.00    -0.054 N 
HETATM   16  H   UNL     1      41.872 -13.427   1.360  1.00  0.00     0.278 HD
HETATM   17  H   UNL     1      41.092 -14.062   2.672  1.00  0.00     0.278 HD
BRANCH  15  18
HETATM   18  C   UNL     1      43.125 -14.439   2.599  1.00  0.00     0.272 C 
BRANCH  18  19
HETATM   19  C   UNL     1      43.419 -15.896   2.820  1.00  0.00    -0.033 A 
HETATM   20  C   UNL     1      43.154 -16.487   4.061  1.00  0.00     0.011 A 
HETATM   21  C   UNL     1      43.452 -17.834   4.289  1.00  0.00     0.030 A 
HETATM   22  C   UNL     1      44.003 -18.638   3.286  1.00  0.00     0.037 A 
HETATM   23  C   UNL     1      44.246 -18.045   2.039  1.00  0.00     0.030 A 
HETATM   24  C   UNL     1      43.970 -16.690   1.809  1.00  0.00     0.011 A 
BRANCH  22  25
HETATM   25  N   UNL     1      44.293 -20.008   3.514  1.00  0.00    -0.318 N 
HETATM   26  C   UNL     1      44.547 -20.603   4.763  1.00  0.00     0.224 C 
HETATM   27  O   UNL     1      44.582 -20.081   5.866  1.00  0.00    -0.273 OA
HETATM   28  C   UNL     1      44.882 -22.056   4.520  1.00  0.00     0.105 C 
HETATM   29  C   UNL     1      44.336 -22.307   3.128  1.00  0.00     0.029 C 
HETATM   30  C   UNL     1      44.485 -20.963   2.447  1.00  0.00     0.133 C 
ENDBRANCH  22  25
ENDBRANCH  18  19
ENDBRANCH  15  18
ENDBRANCH   1  15
BRANCH   1  31
HETATM   31  C   UNL     1      41.343 -14.988  -0.416  1.00  0.00    -0.019 A 
HETATM   32  C   UNL     1      41.717 -13.678  -0.766  1.00  0.00     0.010 A 
HETATM   33  C   UNL     1      41.730 -13.277  -2.103  1.00  0.00     0.001 A 
HETATM   34  C   UNL     1      41.365 -14.171  -3.107  1.00  0.00     0.000 A 
HETATM   35  C   UNL     1      40.982 -15.468  -2.778  1.00  0.00     0.001 A 
HETATM   36  C   UNL     1      40.966 -15.875  -1.443  1.00  0.00     0.010 A 
ENDBRANCH   1  31
TORSDOF 8
ENDMDL
MODEL 4
REMARK VINA RESULT:      -8.0      2.489      8.366
REMARK  8 active torsions:
REMARK  status: ('A' for Active; 'I' for Inactive)
REMARK    1  A    between atoms: C_4  and  N_5 
REMARK       I    between atoms: N_5  and  C_6 
REMARK    2  A    between atoms: C_6  and  C_7 
REMARK    3  A    between atoms: C_7  and  N_8 
REMARK    4  A    between atoms: C_7  and  C_24 
REMARK    5  A    between atoms: N_8  and  C_11 
REMARK    6  A    between atoms: C_11  and  C_12 
REMARK    7  A    between atoms: C_15  and  N_16 
REMARK    8  A    between atoms: C_31  and  O_32 
ROOT
HETATM    1  C   UNL     1      40.163 -13.976   1.606  1.00  0.00     0.310 C 
ENDROOT
BRANCH   1   2
HETATM    2  C   UNL     1      38.992 -13.743   0.620  1.00  0.00     0.257 C 
HETATM    3  N   UNL     1      39.178 -13.256  -0.638  1.00  0.00    -0.323 N 
HETATM    4  H   UNL     1      38.340 -12.848  -1.051  1.00  0.00     0.169 HD
HETATM    5  O   UNL     1      37.843 -13.979   1.021  1.00  0.00    -0.270 OA
BRANCH   3   6
HETATM    6  C   UNL     1      40.356 -12.999  -1.370  1.00  0.00     0.069 A 
HETATM    7  C   UNL     1      41.174 -11.889  -1.139  1.00  0.00     0.039 A 
HETATM    8  C   UNL     1      42.330 -11.684  -1.904  1.00  0.00    -0.060 A 
HETATM    9  C   UNL     1      43.188 -10.473  -1.677  1.00  0.00     0.048 C 
HETATM   10  C   UNL     1      42.654 -12.600  -2.907  1.00  0.00     0.009 A 
HETATM   11  C   UNL     1      41.869 -13.737  -3.115  1.00  0.00     0.039 A 
HETATM   12  C   UNL     1      40.726 -13.950  -2.343  1.00  0.00     0.095 A 
BRANCH  12  13
HETATM   13  O   UNL     1      39.875 -15.022  -2.470  1.00  0.00    -0.354 OA
HETATM   14  C   UNL     1      39.477 -15.375  -3.792  1.00  0.00     0.210 C 
ENDBRANCH  12  13
ENDBRANCH   3   6
ENDBRANCH   1   2
BRANCH   1  15
HETATM   15  N   UNL     1      40.653 -15.418   1.485  1.00  0.00    -0.054 N 
HETATM   16  H   UNL     1      40.582 -15.826   2.430  1.00  0.00     0.278 HD
HETATM   17  H   UNL     1      40.023 -15.950   0.879  1.00  0.00     0.278 HD
BRANCH  15  18
HETATM   18  C   UNL     1      42.061 -15.636   1.049  1.00  0.00     0.272 C 
BRANCH  18  19
HETATM   19  C   UNL     1      42.619 -16.885   1.672  1.00  0.00    -0.033 A 
HETATM   20  C   UNL     1      42.095 -17.365   2.878  1.00  0.00     0.011 A 
HETATM   21  C   UNL     1      42.626 -18.508   3.483  1.00  0.00     0.030 A 
HETATM   22  C   UNL     1      43.680 -19.219   2.898  1.00  0.00     0.037 A 
HETATM   23  C   UNL     1      44.185 -18.745   1.680  1.00  0.00     0.030 A 
HETATM   24  C   UNL     1      43.672 -17.587   1.077  1.00  0.00     0.011 A 
BRANCH  22  25
HETATM   25  N   UNL     1      44.209 -20.387   3.506  1.00  0.00    -0.318 N 
HETATM   26  C   UNL     1      44.708 -20.482   4.817  1.00  0.00     0.224 C 
HETATM   27  O   UNL     1      44.799 -19.611   5.667  1.00  0.00    -0.273 OA
HETATM   28  C   UNL     1      45.237 -21.886   5.006  1.00  0.00     0.105 C 
HETATM   29  C   UNL     1      44.567 -22.659   3.887  1.00  0.00     0.029 C 
HETATM   30  C   UNL     1      44.414 -21.625   2.791  1.00  0.00     0.133 C 
ENDBRANCH  22  25
ENDBRANCH  18  19
ENDBRANCH  15  18
ENDBRANCH   1  15
BRANCH   1  31
HETATM   31  C   UNL     1      39.894 -13.595   3.049  1.00  0.00    -0.019 A 
HETATM   32  C   UNL     1      40.075 -14.550   4.065  1.00  0.00     0.010 A 
HETATM   33  C   UNL     1      39.795 -14.232   5.395  1.00  0.00     0.001 A 
HETATM   34  C   UNL     1      39.326 -12.964   5.729  1.00  0.00     0.000 A 
HETATM   35  C   UNL     1      39.132 -12.009   4.735  1.00  0.00     0.001 A 
HETATM   36  C   UNL     1      39.409 -12.321   3.403  1.00  0.00     0.010 A 
ENDBRANCH   1  31
TORSDOF 8
ENDMDL
MODEL 5
REMARK VINA RESULT:      -8.0      2.973      4.466
REMARK  8 active torsions:
REMARK  status: ('A' for Active; 'I' for Inactive)
REMARK    1  A    between atoms: C_4  and  N_5 
REMARK       I    between atoms: N_5  and  C_6 
REMARK    2  A    between atoms: C_6  and  C_7 
REMARK    3  A    between atoms: C_7  and  N_8 
REMARK    4  A    between atoms: C_7  and  C_24 
REMARK    5  A    between atoms: N_8  and  C_11 
REMARK    6  A    between atoms: C_11  and  C_12 
REMARK    7  A    between atoms: C_15  and  N_16 
REMARK    8  A    between atoms: C_31  and  O_32 
ROOT
HETATM    1  C   UNL     1      42.013 -17.941   2.616  1.00  0.00     0.310 C 
ENDROOT
BRANCH   1   2
HETATM    2  C   UNL     1      43.426 -18.092   2.001  1.00  0.00     0.257 C 
HETATM    3  N   UNL     1      44.418 -18.802   2.605  1.00  0.00    -0.323 N 
HETATM    4  H   UNL     1      45.355 -18.558   2.286  1.00  0.00     0.169 HD
HETATM    5  O   UNL     1      43.658 -17.506   0.933  1.00  0.00    -0.270 OA
BRANCH   3   6
HETATM    6  C   UNL     1      44.404 -19.629   3.749  1.00  0.00     0.069 A 
HETATM    7  C   UNL     1      44.110 -19.156   5.032  1.00  0.00     0.039 A 
HETATM    8  C   UNL     1      44.118 -20.026   6.131  1.00  0.00    -0.060 A 
HETATM    9  C   UNL     1      43.837 -19.510   7.512  1.00  0.00     0.048 C 
HETATM   10  C   UNL     1      44.429 -21.373   5.931  1.00  0.00     0.009 A 
HETATM   11  C   UNL     1      44.678 -21.864   4.646  1.00  0.00     0.039 A 
HETATM   12  C   UNL     1      44.655 -21.001   3.549  1.00  0.00     0.095 A 
BRANCH  12  13
HETATM   13  O   UNL     1      44.898 -21.371   2.248  1.00  0.00    -0.354 OA
HETATM   14  C   UNL     1      43.817 -21.962   1.533  1.00  0.00     0.210 C 
ENDBRANCH  12  13
ENDBRANCH   3   6
ENDBRANCH   1   2
BRANCH   1  15
HETATM   15  N   UNL     1      41.030 -17.495   1.535  1.00  0.00    -0.054 N 
HETATM   16  H   UNL     1      41.594 -17.318   0.690  1.00  0.00     0.278 HD
HETATM   17  H   UNL     1      40.387 -18.259   1.313  1.00  0.00     0.278 HD
BRANCH  15  18
HETATM   18  C   UNL     1      40.253 -16.247   1.779  1.00  0.00     0.272 C 
BRANCH  18  19
HETATM   19  C   UNL     1      40.708 -15.153   0.854  1.00  0.00    -0.033 A 
HETATM   20  C   UNL     1      40.692 -13.820   1.279  1.00  0.00     0.011 A 
HETATM   21  C   UNL     1      41.082 -12.791   0.416  1.00  0.00     0.030 A 
HETATM   22  C   UNL     1      41.518 -13.057  -0.886  1.00  0.00     0.037 A 
HETATM   23  C   UNL     1      41.551 -14.397  -1.298  1.00  0.00     0.030 A 
HETATM   24  C   UNL     1      41.141 -15.433  -0.446  1.00  0.00     0.011 A 
BRANCH  22  25
HETATM   25  N   UNL     1      41.927 -12.014  -1.755  1.00  0.00    -0.318 N 
HETATM   26  C   UNL     1      42.885 -11.026  -1.467  1.00  0.00     0.224 C 
HETATM   27  O   UNL     1      43.530 -10.860  -0.444  1.00  0.00    -0.273 OA
HETATM   28  C   UNL     1      42.940 -10.082  -2.647  1.00  0.00     0.105 C 
HETATM   29  C   UNL     1      42.302 -10.887  -3.762  1.00  0.00     0.029 C 
HETATM   30  C   UNL     1      41.303 -11.761  -3.034  1.00  0.00     0.133 C 
ENDBRANCH  22  25
ENDBRANCH  18  19
ENDBRANCH  15  18
ENDBRANCH   1  15
BRANCH   1  31
HETATM   31  C   UNL     1      41.923 -17.065   3.851  1.00  0.00    -0.019 A 
HETATM   32  C   UNL     1      41.039 -17.415   4.887  1.00  0.00     0.010 A 
HETATM   33  C   UNL     1      40.912 -16.602   6.015  1.00  0.00     0.001 A 
HETATM   34  C   UNL     1      41.656 -15.429   6.122  1.00  0.00     0.000 A 
HETATM   35  C   UNL     1      42.528 -15.063   5.101  1.00  0.00     0.001 A 
HETATM   36  C   UNL     1      42.659 -15.870   3.970  1.00  0.00     0.010 A 
ENDBRANCH   1  31
TORSDOF 8
ENDMDL
MODEL 6
REMARK VINA RESULT:      -8.0      2.514      6.798
REMARK  8 active torsions:
REMARK  status: ('A' for Active; 'I' for Inactive)
REMARK    1  A    between atoms: C_4  and  N_5 
REMARK       I    between atoms: N_5  and  C_6 
REMARK    2  A    between atoms: C_6  and  C_7 
REMARK    3  A    between atoms: C_7  and  N_8 
REMARK    4  A    between atoms: C_7  and  C_24 
REMARK    5  A    between atoms: N_8  and  C_11 
REMARK    6  A    between atoms: C_11  and  C_12 
REMARK    7  A    between atoms: C_15  and  N_16 
REMARK    8  A    between atoms: C_31  and  O_32 
ROOT
HETATM    1  C   UNL     1      40.084 -14.364   0.735  1.00  0.00     0.310 C 
ENDROOT
BRANCH   1   2
HETATM    2  C   UNL     1      41.255 -13.458   1.189  1.00  0.00     0.257 C 
HETATM    3  N   UNL     1      41.702 -13.424   2.474  1.00  0.00    -0.323 N 
HETATM    4  H   UNL     1      42.227 -12.582   2.708  1.00  0.00     0.169 HD
HETATM    5  O   UNL     1      41.770 -12.711   0.343  1.00  0.00    -0.270 OA
BRANCH   3   6
HETATM    6  C   UNL     1      41.372 -14.218   3.593  1.00  0.00     0.069 A 
HETATM    7  C   UNL     1      42.053 -15.393   3.925  1.00  0.00     0.039 A 
HETATM    8  C   UNL     1      41.675 -16.143   5.047  1.00  0.00    -0.060 A 
HETATM    9  C   UNL     1      42.385 -17.424   5.382  1.00  0.00     0.048 C 
HETATM   10  C   UNL     1      40.604 -15.705   5.829  1.00  0.00     0.009 A 
HETATM   11  C   UNL     1      39.948 -14.508   5.533  1.00  0.00     0.039 A 
HETATM   12  C   UNL     1      40.334 -13.753   4.424  1.00  0.00     0.095 A 
BRANCH  12  13
HETATM   13  O   UNL     1      39.751 -12.571   4.032  1.00  0.00    -0.354 OA
HETATM   14  C   UNL     1      39.744 -11.510   4.982  1.00  0.00     0.210 C 
ENDBRANCH  12  13
ENDBRANCH   3   6
ENDBRANCH   1   2
BRANCH   1  15
HETATM   15  N   UNL     1      40.608 -15.771   0.451  1.00  0.00    -0.054 N 
HETATM   16  H   UNL     1      40.405 -16.329   1.294  1.00  0.00     0.278 HD
HETATM   17  H   UNL     1      40.083 -16.189  -0.321  1.00  0.00     0.278 HD
BRANCH  15  18
HETATM   18  C   UNL     1      42.068 -15.926   0.198  1.00  0.00     0.272 C 
BRANCH  18  19
HETATM   19  C   UNL     1      42.609 -17.115   0.943  1.00  0.00    -0.033 A 
HETATM   20  C   UNL     1      41.745 -18.127   1.374  1.00  0.00     0.011 A 
HETATM   21  C   UNL     1      42.231 -19.222   2.096  1.00  0.00     0.030 A 
HETATM   22  C   UNL     1      43.592 -19.352   2.393  1.00  0.00     0.037 A 
HETATM   23  C   UNL     1      44.455 -18.344   1.940  1.00  0.00     0.030 A 
HETATM   24  C   UNL     1      43.972 -17.233   1.234  1.00  0.00     0.011 A 
BRANCH  22  25
HETATM   25  N   UNL     1      44.086 -20.470   3.114  1.00  0.00    -0.318 N 
HETATM   26  C   UNL     1      44.262 -21.769   2.605  1.00  0.00     0.224 C 
HETATM   27  O   UNL     1      44.024 -22.191   1.485  1.00  0.00    -0.273 OA
HETATM   28  C   UNL     1      44.733 -22.647   3.741  1.00  0.00     0.105 C 
HETATM   29  C   UNL     1      45.243 -21.647   4.760  1.00  0.00     0.029 C 
HETATM   30  C   UNL     1      44.364 -20.436   4.531  1.00  0.00     0.133 C 
ENDBRANCH  22  25
ENDBRANCH  18  19
ENDBRANCH  15  18
ENDBRANCH   1  15
BRANCH   1  31
HETATM   31  C   UNL     1      39.249 -13.834  -0.416  1.00  0.00    -0.019 A 
HETATM   32  C   UNL     1      39.464 -14.329  -1.714  1.00  0.00     0.010 A 
HETATM   33  C   UNL     1      38.734 -13.827  -2.794  1.00  0.00     0.001 A 
HETATM   34  C   UNL     1      37.789 -12.823  -2.595  1.00  0.00     0.000 A 
HETATM   35  C   UNL     1      37.571 -12.316  -1.317  1.00  0.00     0.001 A 
HETATM   36  C   UNL     1      38.298 -12.812  -0.235  1.00  0.00     0.010 A 
ENDBRANCH   1  31
TORSDOF 8
ENDMDL
MODEL 7
REMARK VINA RESULT:      -7.9      2.851      7.976
REMARK  8 active torsions:
REMARK  status: ('A' for Active; 'I' for Inactive)
REMARK    1  A    between atoms: C_4  and  N_5 
REMARK       I    between atoms: N_5  and  C_6 
REMARK    2  A    between atoms: C_6  and  C_7 
REMARK    3  A    between atoms: C_7  and  N_8 
REMARK    4  A    between atoms: C_7  and  C_24 
REMARK    5  A    between atoms: N_8  and  C_11 
REMARK    6  A    between atoms: C_11  and  C_12 
REMARK    7  A    between atoms: C_15  and  N_16 
REMARK    8  A    between atoms: C_31  and  O_32 
ROOT
HETATM    1  C   UNL     1      41.523 -13.915   1.868  1.00  0.00     0.310 C 
ENDROOT
BRANCH   1   2
HETATM    2  C   UNL     1      40.438 -12.811   1.881  1.00  0.00     0.257 C 
HETATM    3  N   UNL     1      40.432 -11.778   0.995  1.00  0.00    -0.323 N 
HETATM    4  H   UNL     1      39.888 -10.972   1.302  1.00  0.00     0.169 HD
HETATM    5  O   UNL     1      39.568 -12.865   2.763  1.00  0.00    -0.270 OA
BRANCH   3   6
HETATM    6  C   UNL     1      41.224 -11.526  -0.146  1.00  0.00     0.069 A 
HETATM    7  C   UNL     1      42.289 -10.620  -0.152  1.00  0.00     0.039 A 
HETATM    8  C   UNL     1      43.037 -10.408  -1.318  1.00  0.00    -0.060 A 
HETATM    9  C   UNL     1      44.157  -9.408  -1.333  1.00  0.00     0.048 C 
HETATM   10  C   UNL     1      42.703 -11.111  -2.479  1.00  0.00     0.009 A 
HETATM   11  C   UNL     1      41.671 -12.052  -2.469  1.00  0.00     0.039 A 
HETATM   12  C   UNL     1      40.936 -12.275  -1.304  1.00  0.00     0.095 A 
BRANCH  12  13
HETATM   13  O   UNL     1      39.895 -13.164  -1.185  1.00  0.00    -0.354 OA
HETATM   14  C   UNL     1      39.209 -13.518  -2.383  1.00  0.00     0.210 C 
ENDBRANCH  12  13
ENDBRANCH   3   6
ENDBRANCH   1   2
BRANCH   1  15
HETATM   15  N   UNL     1      41.019 -15.118   1.073  1.00  0.00    -0.054 N 
HETATM   16  H   UNL     1      40.680 -15.801   1.768  1.00  0.00     0.278 HD
HETATM   17  H   UNL     1      40.214 -14.846   0.502  1.00  0.00     0.278 HD
BRANCH  15  18
HETATM   18  C   UNL     1      42.003 -15.849   0.226  1.00  0.00     0.272 C 
BRANCH  18  19
HETATM   19  C   UNL     1      42.554 -17.037   0.964  1.00  0.00    -0.033 A 
HETATM   20  C   UNL     1      41.706 -18.080   1.352  1.00  0.00     0.011 A 
HETATM   21  C   UNL     1      42.202 -19.175   2.067  1.00  0.00     0.030 A 
HETATM   22  C   UNL     1      43.557 -19.275   2.400  1.00  0.00     0.037 A 
HETATM   23  C   UNL     1      44.404 -18.236   1.990  1.00  0.00     0.030 A 
HETATM   24  C   UNL     1      43.911 -17.125   1.291  1.00  0.00     0.011 A 
BRANCH  22  25
HETATM   25  N   UNL     1      44.061 -20.393   3.113  1.00  0.00    -0.318 N 
HETATM   26  C   UNL     1      44.246 -21.688   2.597  1.00  0.00     0.224 C 
HETATM   27  O   UNL     1      44.009 -22.106   1.475  1.00  0.00    -0.273 OA
HETATM   28  C   UNL     1      44.726 -22.569   3.728  1.00  0.00     0.105 C 
HETATM   29  C   UNL     1      45.229 -21.571   4.751  1.00  0.00     0.029 C 
HETATM   30  C   UNL     1      44.341 -20.365   4.530  1.00  0.00     0.133 C 
ENDBRANCH  22  25
ENDBRANCH  18  19
ENDBRANCH  15  18
ENDBRANCH   1  15
BRANCH   1  31
HETATM   31  C   UNL     1      42.060 -14.326   3.226  1.00  0.00    -0.019 A 
HETATM   32  C   UNL     1      43.186 -13.669   3.754  1.00  0.00     0.010 A 
HETATM   33  C   UNL     1      43.721 -14.058   4.984  1.00  0.00     0.001 A 
HETATM   34  C   UNL     1      43.147 -15.107   5.698  1.00  0.00     0.000 A 
HETATM   35  C   UNL     1      42.038 -15.773   5.185  1.00  0.00     0.001 A 
HETATM   36  C   UNL     1      41.500 -15.391   3.956  1.00  0.00     0.010 A 
ENDBRANCH   1  31
TORSDOF 8
ENDMDL
MODEL 8
REMARK VINA RESULT:      -7.9      2.527      7.853
REMARK  8 active torsions:
REMARK  status: ('A' for Active; 'I' for Inactive)
REMARK    1  A    between atoms: C_4  and  N_5 
REMARK       I    between atoms: N_5  and  C_6 
REMARK    2  A    between atoms: C_6  and  C_7 
REMARK    3  A    between atoms: C_7  and  N_8 
REMARK    4  A    between atoms: C_7  and  C_24 
REMARK    5  A    between atoms: N_8  and  C_11 
REMARK    6  A    between atoms: C_11  and  C_12 
REMARK    7  A    between atoms: C_15  and  N_16 
REMARK    8  A    between atoms: C_31  and  O_32 
ROOT
HETATM    1  C   UNL     1      41.925 -13.841   1.994  1.00  0.00     0.310 C 
ENDROOT
BRANCH   1   2
HETATM    2  C   UNL     1      41.148 -12.515   1.802  1.00  0.00     0.257 C 
HETATM    3  N   UNL     1      40.971 -11.937   0.583  1.00  0.00    -0.323 N 
HETATM    4  H   UNL     1      40.746 -10.943   0.624  1.00  0.00     0.169 HD
HETATM    5  O   UNL     1      40.706 -11.952   2.815  1.00  0.00    -0.270 OA
BRANCH   3   6
HETATM    6  C   UNL     1      41.276 -12.397  -0.716  1.00  0.00     0.069 A 
HETATM    7  C   UNL     1      40.409 -13.197  -1.467  1.00  0.00     0.039 A 
HETATM    8  C   UNL     1      40.770 -13.629  -2.751  1.00  0.00    -0.060 A 
HETATM    9  C   UNL     1      39.853 -14.517  -3.541  1.00  0.00     0.048 C 
HETATM   10  C   UNL     1      42.011 -13.254  -3.272  1.00  0.00     0.009 A 
HETATM   11  C   UNL     1      42.863 -12.416  -2.548  1.00  0.00     0.039 A 
HETATM   12  C   UNL     1      42.498 -11.973  -1.276  1.00  0.00     0.095 A 
BRANCH  12  13
HETATM   13  O   UNL     1      43.262 -11.162  -0.472  1.00  0.00    -0.354 OA
HETATM   14  C   UNL     1      43.694  -9.924  -1.031  1.00  0.00     0.210 C 
ENDBRANCH  12  13
ENDBRANCH   3   6
ENDBRANCH   1   2
BRANCH   1  15
HETATM   15  N   UNL     1      41.149 -14.986   1.345  1.00  0.00    -0.054 N 
HETATM   16  H   UNL     1      40.828 -15.589   2.117  1.00  0.00     0.278 HD
HETATM   17  H   UNL     1      40.314 -14.621   0.880  1.00  0.00     0.278 HD
BRANCH  15  18
HETATM   18  C   UNL     1      41.889 -15.877   0.407  1.00  0.00     0.272 C 
BRANCH  18  19
HETATM   19  C   UNL     1      42.483 -17.043   1.146  1.00  0.00    -0.033 A 
HETATM   20  C   UNL     1      41.690 -17.807   2.010  1.00  0.00     0.011 A 
HETATM   21  C   UNL     1      42.238 -18.875   2.727  1.00  0.00     0.030 A 
HETATM   22  C   UNL     1      43.586 -19.226   2.594  1.00  0.00     0.037 A 
HETATM   23  C   UNL     1      44.369 -18.470   1.711  1.00  0.00     0.030 A 
HETATM   24  C   UNL     1      43.831 -17.385   1.004  1.00  0.00     0.011 A 
BRANCH  22  25
HETATM   25  N   UNL     1      44.138 -20.318   3.311  1.00  0.00    -0.318 N 
HETATM   26  C   UNL     1      44.584 -20.290   4.645  1.00  0.00     0.224 C 
HETATM   27  O   UNL     1      44.599 -19.353   5.427  1.00  0.00    -0.273 OA
HETATM   28  C   UNL     1      45.164 -21.649   4.964  1.00  0.00     0.105 C 
HETATM   29  C   UNL     1      44.578 -22.535   3.882  1.00  0.00     0.029 C 
HETATM   30  C   UNL     1      44.429 -21.596   2.704  1.00  0.00     0.133 C 
ENDBRANCH  22  25
ENDBRANCH  18  19
ENDBRANCH  15  18
ENDBRANCH   1  15
BRANCH   1  31
HETATM   31  C   UNL     1      42.322 -14.170   3.420  1.00  0.00    -0.019 A 
HETATM   32  C   UNL     1      43.556 -13.718   3.919  1.00  0.00     0.010 A 
HETATM   33  C   UNL     1      43.958 -14.043   5.216  1.00  0.00     0.001 A 
HETATM   34  C   UNL     1      43.142 -14.827   6.028  1.00  0.00     0.000 A 
HETATM   35  C   UNL     1      41.922 -15.291   5.546  1.00  0.00     0.001 A 
HETATM   36  C   UNL     1      41.514 -14.971   4.251  1.00  0.00     0.010 A 
ENDBRANCH   1  31
TORSDOF 8
ENDMDL
MODEL 9
REMARK VINA RESULT:      -7.9      2.575      7.251
REMARK  8 active torsions:
REMARK  status: ('A' for Active; 'I' for Inactive)
REMARK    1  A    between atoms: C_4  and  N_5 
REMARK       I    between atoms: N_5  and  C_6 
REMARK    2  A    between atoms: C_6  and  C_7 
REMARK    3  A    between atoms: C_7  and  N_8 
REMARK    4  A    between atoms: C_7  and  C_24 
REMARK    5  A    between atoms: N_8  and  C_11 
REMARK    6  A    between atoms: C_11  and  C_12 
REMARK    7  A    between atoms: C_15  and  N_16 
REMARK    8  A    between atoms: C_31  and  O_32 
ROOT
HETATM    1  C   UNL     1      39.872 -12.866   3.713  1.00  0.00     0.310 C 
ENDROOT
BRANCH   1   2
HETATM    2  C   UNL     1      41.342 -12.434   3.488  1.00  0.00     0.257 C 
HETATM    3  N   UNL     1      42.158 -13.048   2.589  1.00  0.00    -0.323 N 
HETATM    4  H   UNL     1      43.152 -12.902   2.765  1.00  0.00     0.169 HD
HETATM    5  O   UNL     1      41.788 -11.514   4.190  1.00  0.00    -0.270 OA
BRANCH   3   6
HETATM    6  C   UNL     1      41.892 -14.033   1.614  1.00  0.00     0.069 A 
HETATM    7  C   UNL     1      41.828 -15.400   1.905  1.00  0.00     0.039 A 
HETATM    8  C   UNL     1      41.566 -16.332   0.892  1.00  0.00    -0.060 A 
HETATM    9  C   UNL     1      41.531 -17.801   1.199  1.00  0.00     0.048 C 
HETATM   10  C   UNL     1      41.374 -15.880  -0.416  1.00  0.00     0.009 A 
HETATM   11  C   UNL     1      41.390 -14.514  -0.708  1.00  0.00     0.039 A 
HETATM   12  C   UNL     1      41.636 -13.584   0.303  1.00  0.00     0.095 A 
BRANCH  12  13
HETATM   13  O   UNL     1      41.689 -12.222   0.128  1.00  0.00    -0.354 OA
HETATM   14  C   UNL     1      42.574 -11.736  -0.877  1.00  0.00     0.210 C 
ENDBRANCH  12  13
ENDBRANCH   3   6
ENDBRANCH   1   2
BRANCH   1  15
HETATM   15  N   UNL     1      39.840 -14.219   4.422  1.00  0.00    -0.054 N 
HETATM   16  H   UNL     1      38.899 -14.305   4.834  1.00  0.00     0.278 HD
HETATM   17  H   UNL     1      39.939 -14.973   3.737  1.00  0.00     0.278 HD
BRANCH  15  18
HETATM   18  C   UNL     1      40.800 -14.436   5.540  1.00  0.00     0.272 C 
BRANCH  18  19
HETATM   19  C   UNL     1      41.589 -15.697   5.321  1.00  0.00    -0.033 A 
HETATM   20  C   UNL     1      40.928 -16.912   5.106  1.00  0.00     0.011 A 
HETATM   21  C   UNL     1      41.650 -18.097   4.933  1.00  0.00     0.030 A 
HETATM   22  C   UNL     1      43.049 -18.106   4.948  1.00  0.00     0.037 A 
HETATM   23  C   UNL     1      43.704 -16.882   5.142  1.00  0.00     0.030 A 
HETATM   24  C   UNL     1      42.987 -15.693   5.338  1.00  0.00     0.011 A 
BRANCH  22  25
HETATM   25  N   UNL     1      43.781 -19.307   4.758  1.00  0.00    -0.318 N 
HETATM   26  C   UNL     1      44.108 -20.242   5.756  1.00  0.00     0.224 C 
HETATM   27  O   UNL     1      43.851 -20.211   6.949  1.00  0.00    -0.273 OA
HETATM   28  C   UNL     1      44.957 -21.317   5.117  1.00  0.00     0.105 C 
HETATM   29  C   UNL     1      44.672 -21.147   3.638  1.00  0.00     0.029 C 
HETATM   30  C   UNL     1      44.400 -19.664   3.503  1.00  0.00     0.133 C 
ENDBRANCH  22  25
ENDBRANCH  18  19
ENDBRANCH  15  18
ENDBRANCH   1  15
BRANCH   1  31
HETATM   31  C   UNL     1      38.988 -12.858   2.480  1.00  0.00    -0.019 A 
HETATM   32  C   UNL     1      38.491 -14.072   1.975  1.00  0.00     0.010 A 
HETATM   33  C   UNL     1      37.708 -14.091   0.818  1.00  0.00     0.001 A 
HETATM   34  C   UNL     1      37.418 -12.905   0.149  1.00  0.00     0.000 A 
HETATM   35  C   UNL     1      37.909 -11.695   0.631  1.00  0.00     0.001 A 
HETATM   36  C   UNL     1      38.693 -11.670   1.785  1.00  0.00     0.010 A 
ENDBRANCH   1  31
TORSDOF 8
ENDMDL
MODEL 10
REMARK VINA RESULT:      -7.8      2.001      3.343
REMARK  8 active torsions:
REMARK  status: ('A' for Active; 'I' for Inactive)
REMARK    1  A    between atoms: C_4  and  N_5 
REMARK       I    between atoms: N_5  and  C_6 
REMARK    2  A    between atoms: C_6  and  C_7 
REMARK    3  A    between atoms: C_7  and  N_8 
REMARK    4  A    between atoms: C_7  and  C_24 
REMARK    5  A    between atoms: N_8  and  C_11 
REMARK    6  A    between atoms: C_11  and  C_12 
REMARK    7  A    between atoms: C_15  and  N_16 
REMARK    8  A    between atoms: C_31  and  O_32 
ROOT
HETATM    1  C   UNL     1      42.468 -17.136   2.411  1.00  0.00     0.310 C 
ENDROOT
BRANCH   1   2
HETATM    2  C   UNL     1      41.090 -16.935   3.087  1.00  0.00     0.257 C 
HETATM    3  N   UNL     1      40.957 -16.632   4.408  1.00  0.00    -0.323 N 
HETATM    4  H   UNL     1      40.037 -16.848   4.792  1.00  0.00     0.169 HD
HETATM    5  O   UNL     1      40.075 -17.098   2.393  1.00  0.00    -0.270 OA
BRANCH   3   6
HETATM    6  C   UNL     1      41.918 -16.302   5.387  1.00  0.00     0.069 A 
HETATM    7  C   UNL     1      42.343 -17.197   6.374  1.00  0.00     0.039 A 
HETATM    8  C   UNL     1      43.298 -16.810   7.324  1.00  0.00    -0.060 A 
HETATM    9  C   UNL     1      43.726 -17.761   8.404  1.00  0.00     0.048 C 
HETATM   10  C   UNL     1      43.819 -15.514   7.276  1.00  0.00     0.009 A 
HETATM   11  C   UNL     1      43.435 -14.629   6.266  1.00  0.00     0.039 A 
HETATM   12  C   UNL     1      42.496 -15.019   5.310  1.00  0.00     0.095 A 
BRANCH  12  13
HETATM   13  O   UNL     1      42.037 -14.228   4.285  1.00  0.00    -0.354 OA
HETATM   14  C   UNL     1      41.987 -12.825   4.526  1.00  0.00     0.210 C 
ENDBRANCH  12  13
ENDBRANCH   3   6
ENDBRANCH   1   2
BRANCH   1  15
HETATM   15  N   UNL     1      42.377 -16.738   0.939  1.00  0.00    -0.054 N 
HETATM   16  H   UNL     1      43.223 -17.116   0.486  1.00  0.00     0.278 HD
HETATM   17  H   UNL     1      41.572 -17.195   0.504  1.00  0.00     0.278 HD
BRANCH  15  18
HETATM   18  C   UNL     1      42.354 -15.283   0.616  1.00  0.00     0.272 C 
BRANCH  18  19
HETATM   19  C   UNL     1      41.212 -14.966  -0.307  1.00  0.00    -0.033 A 
HETATM   20  C   UNL     1      41.240 -15.401  -1.637  1.00  0.00     0.011 A 
HETATM   21  C   UNL     1      40.198 -15.085  -2.514  1.00  0.00     0.030 A 
HETATM   22  C   UNL     1      39.089 -14.344  -2.092  1.00  0.00     0.037 A 
HETATM   23  C   UNL     1      39.058 -13.929  -0.753  1.00  0.00     0.030 A 
HETATM   24  C   UNL     1      40.109 -14.224   0.128  1.00  0.00     0.011 A 
BRANCH  22  25
HETATM   25  N   UNL     1      38.026 -14.035  -2.979  1.00  0.00    -0.318 N 
HETATM   26  C   UNL     1      37.646 -12.748  -3.398  1.00  0.00     0.224 C 
HETATM   27  O   UNL     1      38.127 -11.669  -3.088  1.00  0.00    -0.273 OA
HETATM   28  C   UNL     1      36.422 -12.892  -4.272  1.00  0.00     0.105 C 
HETATM   29  C   UNL     1      36.454 -14.354  -4.671  1.00  0.00     0.029 C 
HETATM   30  C   UNL     1      37.102 -15.027  -3.479  1.00  0.00     0.133 C 
ENDBRANCH  22  25
ENDBRANCH  18  19
ENDBRANCH  15  18
ENDBRANCH   1  15
BRANCH   1  31
HETATM   31  C   UNL     1      43.092 -18.507   2.583  1.00  0.00    -0.019 A 
HETATM   32  C   UNL     1      43.980 -18.736   3.650  1.00  0.00     0.010 A 
HETATM   33  C   UNL     1      44.596 -19.980   3.804  1.00  0.00     0.001 A 
HETATM   34  C   UNL     1      44.343 -21.005   2.897  1.00  0.00     0.000 A 
HETATM   35  C   UNL     1      43.475 -20.792   1.830  1.00  0.00     0.001 A 
HETATM   36  C   UNL     1      42.856 -19.552   1.669  1.00  0.00     0.010 A 
ENDBRANCH   1  31
TORSDOF 8
ENDMDL
