MODEL 1
REMARK VINA RESULT:      -9.3      0.000      0.000
REMARK  6 active torsions:
REMARK  status: ('A' for Active; 'I' for Inactive)
REMARK    1  A    between atoms: C_7  and  C_8 
REMARK    2  A    between atoms: C_8  and  C_9 
REMARK    3  A    between atoms: C_9  and  N_10 
REMARK    4  A    between atoms: C_12  and  C_13 
REMARK    5  A    between atoms: C_13  and  N_14 
REMARK    6  A    between atoms: C_36  and  O_37 
ROOT
HETATM    1  N   UNL     1      42.216 -17.957   4.074  1.00  0.00    -0.054 N 
HETATM    2  H   UNL     1      41.707 -18.781   4.438  1.00  0.00     0.281 HD
HETATM    3  C   UNL     1      42.536 -18.399   2.640  1.00  0.00     0.240 C 
HETATM    4  C   UNL     1      43.323 -19.703   2.699  1.00  0.00    -0.020 A 
HETATM    5  C   UNL     1      44.124 -20.019   3.818  1.00  0.00    -0.048 A 
HETATM    6  C   UNL     1      44.152 -19.154   5.055  1.00  0.00     0.067 C 
HETATM    7  C   UNL     1      43.460 -17.801   4.904  1.00  0.00     0.241 C 
HETATM    8  C   UNL     1      43.281 -20.592   1.612  1.00  0.00     0.010 A 
HETATM    9  C   UNL     1      44.024 -21.771   1.631  1.00  0.00     0.001 A 
HETATM   10  C   UNL     1      44.815 -22.080   2.733  1.00  0.00     0.001 A 
HETATM   11  C   UNL     1      44.863 -21.212   3.823  1.00  0.00     0.008 A 
ENDROOT
BRANCH   1  12
HETATM   12  C   UNL     1      41.194 -16.841   4.273  1.00  0.00     0.319 C 
BRANCH  12  13
HETATM   13  C   UNL     1      41.213 -16.249   5.674  1.00  0.00     0.188 C 
HETATM   14  O   UNL     1      40.870 -16.979   6.610  1.00  0.00    -0.290 OA
BRANCH  13  15
HETATM   15  C   UNL     1      41.684 -14.874   5.869  1.00  0.00     0.046 A 
HETATM   16  C   UNL     1      42.906 -14.551   6.453  1.00  0.00     0.020 A 
HETATM   17  C   UNL     1      43.976 -15.411   7.033  1.00  0.00     0.069 C 
HETATM   18  N   UNL     1      43.045 -13.189   6.428  1.00  0.00    -0.358 N 
HETATM   19  H   UNL     1      43.849 -12.678   6.770  1.00  0.00     0.166 HD
HETATM   20  C   UNL     1      41.940 -12.603   5.864  1.00  0.00     0.043 A 
HETATM   21  C   UNL     1      41.055 -13.624   5.516  1.00  0.00     0.009 A 
HETATM   22  C   UNL     1      41.676 -11.248   5.636  1.00  0.00     0.033 A 
HETATM   23  C   UNL     1      39.832 -13.235   4.919  1.00  0.00     0.051 A 
HETATM   24  C   UNL     1      39.535 -11.881   4.695  1.00  0.00     0.069 A 
HETATM   25  C   UNL     1      40.457 -10.902   5.044  1.00  0.00     0.039 A 
BRANCH  24  26
HETATM   26  O   UNL     1      38.308 -11.670   4.126  1.00  0.00    -0.356 OA
HETATM   27  C   UNL     1      38.188 -10.551   3.252  1.00  0.00     0.210 C 
ENDBRANCH  24  26
ENDBRANCH  13  15
ENDBRANCH  12  13
ENDBRANCH   1  12
BRANCH   3  28
HETATM   28  C   UNL     1      43.353 -17.374   1.793  1.00  0.00     0.173 C 
BRANCH  28  29
HETATM   29  N   UNL     1      42.713 -16.093   1.559  1.00  0.00    -0.278 N 
HETATM   30  C   UNL     1      41.795 -15.853   0.576  1.00  0.00     0.261 A 
HETATM   31  O   UNL     1      41.475 -16.600  -0.329  1.00  0.00    -0.267 OA
HETATM   32  C   UNL     1      41.400 -14.451   0.708  1.00  0.00     0.048 A 
HETATM   33  C   UNL     1      42.153 -13.901   1.735  1.00  0.00     0.048 A 
HETATM   34  C   UNL     1      40.523 -13.694  -0.042  1.00  0.00     0.018 A 
HETATM   35  C   UNL     1      43.019 -14.957   2.256  1.00  0.00     0.261 A 
HETATM   36  C   UNL     1      42.064 -12.568   2.076  1.00  0.00     0.018 A 
HETATM   37  O   UNL     1      43.901 -14.819   3.080  1.00  0.00    -0.267 OA
HETATM   38  C   UNL     1      41.172 -11.783   1.339  1.00  0.00     0.001 A 
HETATM   39  C   UNL     1      40.410 -12.340   0.290  1.00  0.00     0.001 A 
ENDBRANCH  28  29
ENDBRANCH   3  28
TORSDOF 6
ENDMDL
MODEL 2
REMARK VINA RESULT:      -9.3      1.495      2.221
REMARK  6 active torsions:
REMARK  status: ('A' for Active; 'I' for Inactive)
REMARK    1  A    between atoms: C_7  and  C_8 
REMARK    2  A    between atoms: C_8  and  C_9 
REMARK    3  A    between atoms: C_9  and  N_10 
REMARK    4  A    between atoms: C_12  and  C_13 
REMARK    5  A    between atoms: C_13  and  N_14 
REMARK    6  A    between atoms: C_36  and  O_37 
ROOT
HETATM    1  N   UNL     1      43.125 -17.376   5.197  1.00  0.00    -0.054 N 
HETATM    2  H   UNL     1      42.519 -18.143   5.538  1.00  0.00     0.281 HD
HETATM    3  C   UNL     1      43.041 -17.566   3.677  1.00  0.00     0.240 C 
HETATM    4  C   UNL     1      43.493 -18.982   3.340  1.00  0.00    -0.020 A 
HETATM    5  C   UNL     1      44.404 -19.672   4.170  1.00  0.00    -0.048 A 
HETATM    6  C   UNL     1      44.879 -19.103   5.485  1.00  0.00     0.067 C 
HETATM    7  C   UNL     1      44.510 -17.639   5.720  1.00  0.00     0.241 C 
HETATM    8  C   UNL     1      43.028 -19.601   2.167  1.00  0.00     0.010 A 
HETATM    9  C   UNL     1      43.462 -20.880   1.822  1.00  0.00     0.001 A 
HETATM   10  C   UNL     1      44.360 -21.558   2.640  1.00  0.00     0.001 A 
HETATM   11  C   UNL     1      44.826 -20.960   3.810  1.00  0.00     0.008 A 
ENDROOT
BRANCH   1  12
HETATM   12  C   UNL     1      42.455 -16.149   5.809  1.00  0.00     0.319 C 
BRANCH  12  13
HETATM   13  C   UNL     1      40.945 -16.132   5.624  1.00  0.00     0.188 C 
HETATM   14  O   UNL     1      40.283 -16.969   6.246  1.00  0.00    -0.290 OA
BRANCH  13  15
HETATM   15  C   UNL     1      40.334 -15.106   4.774  1.00  0.00     0.046 A 
HETATM   16  C   UNL     1      39.824 -15.359   3.503  1.00  0.00     0.020 A 
HETATM   17  C   UNL     1      39.785 -16.607   2.690  1.00  0.00     0.069 C 
HETATM   18  N   UNL     1      39.285 -14.195   3.019  1.00  0.00    -0.358 N 
HETATM   19  H   UNL     1      38.827 -14.093   2.122  1.00  0.00     0.166 HD
HETATM   20  C   UNL     1      39.446 -13.178   3.926  1.00  0.00     0.043 A 
HETATM   21  C   UNL     1      40.114 -13.703   5.032  1.00  0.00     0.009 A 
HETATM   22  C   UNL     1      39.037 -11.842   3.838  1.00  0.00     0.033 A 
HETATM   23  C   UNL     1      40.391 -12.810   6.095  1.00  0.00     0.051 A 
HETATM   24  C   UNL     1      40.007 -11.462   6.025  1.00  0.00     0.069 A 
HETATM   25  C   UNL     1      39.328 -10.990   4.908  1.00  0.00     0.039 A 
BRANCH  24  26
HETATM   26  O   UNL     1      40.362 -10.727   7.124  1.00  0.00    -0.356 OA
HETATM   27  C   UNL     1      39.619 -10.955   8.318  1.00  0.00     0.210 C 
ENDBRANCH  24  26
ENDBRANCH  13  15
ENDBRANCH  12  13
ENDBRANCH   1  12
BRANCH   3  28
HETATM   28  C   UNL     1      43.891 -16.567   2.832  1.00  0.00     0.173 C 
BRANCH  28  29
HETATM   29  N   UNL     1      43.146 -15.548   2.117  1.00  0.00    -0.278 N 
HETATM   30  C   UNL     1      42.455 -15.763   0.958  1.00  0.00     0.261 A 
HETATM   31  O   UNL     1      42.462 -16.769   0.274  1.00  0.00    -0.267 OA
HETATM   32  C   UNL     1      41.844 -14.485   0.593  1.00  0.00     0.048 A 
HETATM   33  C   UNL     1      42.254 -13.546   1.529  1.00  0.00     0.048 A 
HETATM   34  C   UNL     1      41.064 -14.143  -0.492  1.00  0.00     0.018 A 
HETATM   35  C   UNL     1      43.118 -14.232   2.488  1.00  0.00     0.261 A 
HETATM   36  C   UNL     1      41.900 -12.216   1.436  1.00  0.00     0.018 A 
HETATM   37  O   UNL     1      43.758 -13.709   3.378  1.00  0.00    -0.267 OA
HETATM   38  C   UNL     1      41.099 -11.848   0.351  1.00  0.00     0.001 A 
HETATM   39  C   UNL     1      40.686 -12.802  -0.604  1.00  0.00     0.001 A 
ENDBRANCH  28  29
ENDBRANCH   3  28
TORSDOF 6
ENDMDL
MODEL 3
REMARK VINA RESULT:      -9.2      2.745      7.396
REMARK  6 active torsions:
REMARK  status: ('A' for Active; 'I' for Inactive)
REMARK    1  A    between atoms: C_7  and  C_8 
REMARK    2  A    between atoms: C_8  and  C_9 
REMARK    3  A    between atoms: C_9  and  N_10 
REMARK    4  A    between atoms: C_12  and  C_13 
REMARK    5  A    between atoms: C_13  and  N_14 
REMARK    6  A    between atoms: C_36  and  O_37 
ROOT
HETATM    1  N   UNL     1      41.805 -15.167   1.824  1.00  0.00    -0.054 N 
HETATM    2  H   UNL     1      40.773 -15.109   1.861  1.00  0.00     0.281 HD
HETATM    3  C   UNL     1      42.074 -16.425   2.661  1.00  0.00     0.240 C 
HETATM    4  C   UNL     1      41.459 -16.230   4.042  1.00  0.00    -0.020 A 
HETATM    5  C   UNL     1      41.299 -14.939   4.591  1.00  0.00    -0.048 A 
HETATM    6  C   UNL     1      41.610 -13.689   3.805  1.00  0.00     0.067 C 
HETATM    7  C   UNL     1      42.343 -13.928   2.486  1.00  0.00     0.241 C 
HETATM    8  C   UNL     1      41.076 -17.351   4.797  1.00  0.00     0.010 A 
HETATM    9  C   UNL     1      40.548 -17.195   6.078  1.00  0.00     0.001 A 
HETATM   10  C   UNL     1      40.393 -15.922   6.619  1.00  0.00     0.001 A 
HETATM   11  C   UNL     1      40.763 -14.800   5.879  1.00  0.00     0.008 A 
ENDROOT
BRANCH   1  12
HETATM   12  C   UNL     1      42.066 -15.230   0.322  1.00  0.00     0.319 C 
BRANCH  12  13
HETATM   13  C   UNL     1      40.948 -14.620  -0.510  1.00  0.00     0.188 C 
HETATM   14  O   UNL     1      39.789 -14.766  -0.107  1.00  0.00    -0.290 OA
BRANCH  13  15
HETATM   15  C   UNL     1      41.282 -13.845  -1.708  1.00  0.00     0.046 A 
HETATM   16  C   UNL     1      40.965 -14.249  -3.002  1.00  0.00     0.020 A 
HETATM   17  C   UNL     1      40.298 -15.480  -3.512  1.00  0.00     0.069 C 
HETATM   18  N   UNL     1      41.374 -13.269  -3.868  1.00  0.00    -0.358 N 
HETATM   19  H   UNL     1      41.252 -13.290  -4.874  1.00  0.00     0.166 HD
HETATM   20  C   UNL     1      41.971 -12.241  -3.183  1.00  0.00     0.043 A 
HETATM   21  C   UNL     1      41.949 -12.571  -1.828  1.00  0.00     0.009 A 
HETATM   22  C   UNL     1      42.516 -11.049  -3.675  1.00  0.00     0.033 A 
HETATM   23  C   UNL     1      42.528 -11.639  -0.933  1.00  0.00     0.051 A 
HETATM   24  C   UNL     1      43.096 -10.444  -1.402  1.00  0.00     0.069 A 
HETATM   25  C   UNL     1      43.079 -10.153  -2.761  1.00  0.00     0.039 A 
BRANCH  24  26
HETATM   26  O   UNL     1      43.629  -9.659  -0.415  1.00  0.00    -0.356 OA
HETATM   27  C   UNL     1      44.036  -8.346  -0.786  1.00  0.00     0.210 C 
ENDBRANCH  24  26
ENDBRANCH  13  15
ENDBRANCH  12  13
ENDBRANCH   1  12
BRANCH   3  28
HETATM   28  C   UNL     1      43.579 -16.794   2.843  1.00  0.00     0.173 C 
BRANCH  28  29
HETATM   29  N   UNL     1      43.859 -18.184   3.152  1.00  0.00    -0.278 N 
HETATM   30  C   UNL     1      44.242 -18.643   4.380  1.00  0.00     0.261 A 
HETATM   31  O   UNL     1      44.545 -17.978   5.353  1.00  0.00    -0.267 OA
HETATM   32  C   UNL     1      44.399 -20.093   4.253  1.00  0.00     0.048 A 
HETATM   33  C   UNL     1      44.157 -20.422   2.928  1.00  0.00     0.048 A 
HETATM   34  C   UNL     1      44.789 -21.035   5.182  1.00  0.00     0.018 A 
HETATM   35  C   UNL     1      43.841 -19.183   2.219  1.00  0.00     0.261 A 
HETATM   36  C   UNL     1      44.284 -21.713   2.459  1.00  0.00     0.018 A 
HETATM   37  O   UNL     1      43.691 -19.063   1.019  1.00  0.00    -0.267 OA
HETATM   38  C   UNL     1      44.666 -22.689   3.385  1.00  0.00     0.001 A 
HETATM   39  C   UNL     1      44.917 -22.353   4.733  1.00  0.00     0.001 A 
ENDBRANCH  28  29
ENDBRANCH   3  28
TORSDOF 6
ENDMDL
MODEL 4
REMARK VINA RESULT:      -8.8      2.098      6.649
REMARK  6 active torsions:
REMARK  status: ('A' for Active; 'I' for Inactive)
REMARK    1  A    between atoms: C_7  and  C_8 
REMARK    2  A    between atoms: C_8  and  C_9 
REMARK    3  A    between atoms: C_9  and  N_10 
REMARK    4  A    between atoms: C_12  and  C_13 
REMARK    5  A    between atoms: C_13  and  N_14 
REMARK    6  A    between atoms: C_36  and  O_37 
ROOT
HETATM    1  N   UNL     1      41.829 -15.176   1.672  1.00  0.00    -0.054 N 
HETATM    2  H   UNL     1      40.797 -15.128   1.713  1.00  0.00     0.281 HD
HETATM    3  C   UNL     1      42.115 -16.426   2.517  1.00  0.00     0.240 C 
HETATM    4  C   UNL     1      41.506 -16.225   3.899  1.00  0.00    -0.020 A 
HETATM    5  C   UNL     1      41.337 -14.931   4.439  1.00  0.00    -0.048 A 
HETATM    6  C   UNL     1      41.632 -13.684   3.640  1.00  0.00     0.067 C 
HETATM    7  C   UNL     1      42.359 -13.928   2.320  1.00  0.00     0.241 C 
HETATM    8  C   UNL     1      41.137 -17.343   4.667  1.00  0.00     0.010 A 
HETATM    9  C   UNL     1      40.615 -17.181   5.949  1.00  0.00     0.001 A 
HETATM   10  C   UNL     1      40.450 -15.905   6.480  1.00  0.00     0.001 A 
HETATM   11  C   UNL     1      40.805 -14.786   5.729  1.00  0.00     0.008 A 
ENDROOT
BRANCH   1  12
HETATM   12  C   UNL     1      42.083 -15.250   0.169  1.00  0.00     0.319 C 
BRANCH  12  13
HETATM   13  C   UNL     1      41.607 -14.016  -0.584  1.00  0.00     0.188 C 
HETATM   14  O   UNL     1      42.468 -13.255  -1.037  1.00  0.00    -0.290 OA
BRANCH  13  15
HETATM   15  C   UNL     1      40.171 -13.806  -0.789  1.00  0.00     0.046 A 
HETATM   16  C   UNL     1      39.448 -14.378  -1.833  1.00  0.00     0.020 A 
HETATM   17  C   UNL     1      39.876 -15.252  -2.962  1.00  0.00     0.069 C 
HETATM   18  N   UNL     1      38.134 -14.017  -1.691  1.00  0.00    -0.358 N 
HETATM   19  H   UNL     1      37.380 -14.308  -2.301  1.00  0.00     0.166 HD
HETATM   20  C   UNL     1      37.975 -13.205  -0.597  1.00  0.00     0.043 A 
HETATM   21  C   UNL     1      39.230 -13.034  -0.014  1.00  0.00     0.009 A 
HETATM   22  C   UNL     1      36.807 -12.625  -0.089  1.00  0.00     0.033 A 
HETATM   23  C   UNL     1      39.294 -12.215   1.139  1.00  0.00     0.051 A 
HETATM   24  C   UNL     1      38.140 -11.608   1.659  1.00  0.00     0.069 A 
HETATM   25  C   UNL     1      36.909 -11.822   1.051  1.00  0.00     0.039 A 
BRANCH  24  26
HETATM   26  O   UNL     1      38.372 -10.834   2.764  1.00  0.00    -0.356 OA
HETATM   27  C   UNL     1      38.711 -11.517   3.968  1.00  0.00     0.210 C 
ENDBRANCH  24  26
ENDBRANCH  13  15
ENDBRANCH  12  13
ENDBRANCH   1  12
BRANCH   3  28
HETATM   28  C   UNL     1      43.624 -16.779   2.694  1.00  0.00     0.173 C 
BRANCH  28  29
HETATM   29  N   UNL     1      43.918 -18.162   3.020  1.00  0.00    -0.278 N 
HETATM   30  C   UNL     1      43.789 -19.207   2.149  1.00  0.00     0.261 A 
HETATM   31  O   UNL     1      43.288 -19.184   1.041  1.00  0.00    -0.267 OA
HETATM   32  C   UNL     1      44.203 -20.408   2.875  1.00  0.00     0.048 A 
HETATM   33  C   UNL     1      44.504 -20.025   4.174  1.00  0.00     0.048 A 
HETATM   34  C   UNL     1      44.245 -21.727   2.474  1.00  0.00     0.018 A 
HETATM   35  C   UNL     1      44.287 -18.582   4.267  1.00  0.00     0.261 A 
HETATM   36  C   UNL     1      44.872 -20.938   5.141  1.00  0.00     0.018 A 
HETATM   37  O   UNL     1      44.334 -17.915   5.281  1.00  0.00    -0.267 OA
HETATM   38  C   UNL     1      44.933 -22.280   4.754  1.00  0.00     0.001 A 
HETATM   39  C   UNL     1      44.622 -22.671   3.434  1.00  0.00     0.001 A 
ENDBRANCH  28  29
ENDBRANCH   3  28
TORSDOF 6
ENDMDL
MODEL 5
REMARK VINA RESULT:      -8.7      1.605      2.293
REMARK  6 active torsions:
REMARK  status: ('A' for Active; 'I' for Inactive)
REMARK    1  A    between atoms: C_7  and  C_8 
REMARK    2  A    between atoms: C_8  and  C_9 
REMARK    3  A    between atoms: C_9  and  N_10 
REMARK    4  A    between atoms: C_12  and  C_13 
REMARK    5  A    between atoms: C_13  and  N_14 
REMARK    6  A    between atoms: C_36  and  O_37 
ROOT
HETATM    1  N   UNL     1      41.373 -16.573   3.774  1.00  0.00    -0.054 N 
HETATM    2  H   UNL     1      40.890 -17.414   4.133  1.00  0.00     0.281 HD
HETATM    3  C   UNL     1      41.995 -17.103   2.475  1.00  0.00     0.240 C 
HETATM    4  C   UNL     1      42.882 -18.295   2.814  1.00  0.00    -0.020 A 
HETATM    5  C   UNL     1      43.491 -18.410   4.083  1.00  0.00    -0.048 A 
HETATM    6  C   UNL     1      43.204 -17.439   5.202  1.00  0.00     0.067 C 
HETATM    7  C   UNL     1      42.420 -16.196   4.785  1.00  0.00     0.241 C 
HETATM    8  C   UNL     1      43.130 -19.277   1.841  1.00  0.00     0.010 A 
HETATM    9  C   UNL     1      43.971 -20.354   2.120  1.00  0.00     0.001 A 
HETATM   10  C   UNL     1      44.571 -20.466   3.370  1.00  0.00     0.001 A 
HETATM   11  C   UNL     1      44.331 -19.502   4.348  1.00  0.00     0.008 A 
ENDROOT
BRANCH   1  12
HETATM   12  C   UNL     1      40.226 -15.572   3.668  1.00  0.00     0.319 C 
BRANCH  12  13
HETATM   13  C   UNL     1      40.229 -14.531   4.777  1.00  0.00     0.188 C 
HETATM   14  O   UNL     1      39.992 -14.918   5.926  1.00  0.00    -0.290 OA
BRANCH  13  15
HETATM   15  C   UNL     1      40.563 -13.140   4.459  1.00  0.00     0.046 A 
HETATM   16  C   UNL     1      41.694 -12.486   4.943  1.00  0.00     0.020 A 
HETATM   17  C   UNL     1      42.772 -12.941   5.866  1.00  0.00     0.069 C 
HETATM   18  N   UNL     1      41.721 -11.226   4.408  1.00  0.00    -0.358 N 
HETATM   19  H   UNL     1      42.444 -10.536   4.574  1.00  0.00     0.166 HD
HETATM   20  C   UNL     1      40.629 -11.022   3.603  1.00  0.00     0.043 A 
HETATM   21  C   UNL     1      39.869 -12.191   3.622  1.00  0.00     0.009 A 
HETATM   22  C   UNL     1      40.276  -9.889   2.860  1.00  0.00     0.033 A 
HETATM   23  C   UNL     1      38.680 -12.194   2.854  1.00  0.00     0.051 A 
HETATM   24  C   UNL     1      38.294 -11.065   2.114  1.00  0.00     0.069 A 
HETATM   25  C   UNL     1      39.094  -9.929   2.114  1.00  0.00     0.039 A 
BRANCH  24  26
HETATM   26  O   UNL     1      37.113 -11.221   1.440  1.00  0.00    -0.356 OA
HETATM   27  C   UNL     1      36.991 -12.375   0.614  1.00  0.00     0.210 C 
ENDBRANCH  24  26
ENDBRANCH  13  15
ENDBRANCH  12  13
ENDBRANCH   1  12
BRANCH   3  28
HETATM   28  C   UNL     1      42.847 -16.070   1.675  1.00  0.00     0.173 C 
BRANCH  28  29
HETATM   29  N   UNL     1      42.102 -15.120   0.870  1.00  0.00    -0.278 N 
HETATM   30  C   UNL     1      41.346 -15.452  -0.219  1.00  0.00     0.261 A 
HETATM   31  O   UNL     1      41.285 -16.535  -0.770  1.00  0.00    -0.267 OA
HETATM   32  C   UNL     1      40.760 -14.206  -0.715  1.00  0.00     0.048 A 
HETATM   33  C   UNL     1      41.248 -13.175   0.074  1.00  0.00     0.048 A 
HETATM   34  C   UNL     1      39.938 -13.973  -1.798  1.00  0.00     0.018 A 
HETATM   35  C   UNL     1      42.136 -13.768   1.072  1.00  0.00     0.261 A 
HETATM   36  C   UNL     1      40.934 -11.854  -0.170  1.00  0.00     0.018 A 
HETATM   37  O   UNL     1      42.837 -13.163   1.858  1.00  0.00    -0.267 OA
HETATM   38  C   UNL     1      40.092 -11.593  -1.255  1.00  0.00     0.001 A 
HETATM   39  C   UNL     1      39.600 -12.642  -2.062  1.00  0.00     0.001 A 
ENDBRANCH  28  29
ENDBRANCH   3  28
TORSDOF 6
ENDMDL
MODEL 6
REMARK VINA RESULT:      -8.7      2.185      6.244
REMARK  6 active torsions:
REMARK  status: ('A' for Active; 'I' for Inactive)
REMARK    1  A    between atoms: C_7  and  C_8 
REMARK    2  A    between atoms: C_8  and  C_9 
REMARK    3  A    between atoms: C_9  and  N_10 
REMARK    4  A    between atoms: C_12  and  C_13 
REMARK    5  A    between atoms: C_13  and  N_14 
REMARK    6  A    between atoms: C_36  and  O_37 
ROOT
HETATM    1  N   UNL     1      41.837 -15.835   2.749  1.00  0.00    -0.054 N 
HETATM    2  H   UNL     1      42.601 -15.861   3.447  1.00  0.00     0.281 HD
HETATM    3  C   UNL     1      41.731 -14.330   2.465  1.00  0.00     0.240 C 
HETATM    4  C   UNL     1      41.467 -13.606   3.779  1.00  0.00    -0.020 A 
HETATM    5  C   UNL     1      40.809 -14.254   4.847  1.00  0.00    -0.048 A 
HETATM    6  C   UNL     1      40.443 -15.717   4.795  1.00  0.00     0.067 C 
HETATM    7  C   UNL     1      40.603 -16.367   3.422  1.00  0.00     0.241 C 
HETATM    8  C   UNL     1      41.851 -12.262   3.923  1.00  0.00     0.010 A 
HETATM    9  C   UNL     1      41.584 -11.571   5.104  1.00  0.00     0.001 A 
HETATM   10  C   UNL     1      40.934 -12.210   6.155  1.00  0.00     0.001 A 
HETATM   11  C   UNL     1      40.551 -13.545   6.030  1.00  0.00     0.008 A 
ENDROOT
BRANCH   1  12
HETATM   12  C   UNL     1      42.383 -16.740   1.648  1.00  0.00     0.319 C 
BRANCH  12  13
HETATM   13  C   UNL     1      43.726 -17.365   1.992  1.00  0.00     0.188 C 
HETATM   14  O   UNL     1      44.694 -17.067   1.285  1.00  0.00    -0.290 OA
BRANCH  13  15
HETATM   15  C   UNL     1      43.835 -18.239   3.163  1.00  0.00     0.046 A 
HETATM   16  C   UNL     1      43.894 -19.628   3.088  1.00  0.00     0.020 A 
HETATM   17  C   UNL     1      43.830 -20.553   1.921  1.00  0.00     0.069 C 
HETATM   18  N   UNL     1      44.046 -20.120   4.358  1.00  0.00    -0.358 N 
HETATM   19  H   UNL     1      44.136 -21.100   4.598  1.00  0.00     0.166 HD
HETATM   20  C   UNL     1      44.067 -19.096   5.270  1.00  0.00     0.043 A 
HETATM   21  C   UNL     1      43.920 -17.901   4.564  1.00  0.00     0.009 A 
HETATM   22  C   UNL     1      44.213 -19.152   6.661  1.00  0.00     0.033 A 
HETATM   23  C   UNL     1      43.907 -16.706   5.323  1.00  0.00     0.051 A 
HETATM   24  C   UNL     1      44.035 -16.737   6.721  1.00  0.00     0.069 A 
HETATM   25  C   UNL     1      44.195 -17.951   7.377  1.00  0.00     0.039 A 
BRANCH  24  26
HETATM   26  O   UNL     1      43.986 -15.502   7.309  1.00  0.00    -0.356 OA
HETATM   27  C   UNL     1      44.201 -14.377   6.461  1.00  0.00     0.210 C 
ENDBRANCH  24  26
ENDBRANCH  13  15
ENDBRANCH  12  13
ENDBRANCH   1  12
BRANCH   3  28
HETATM   28  C   UNL     1      40.618 -13.922   1.449  1.00  0.00     0.173 C 
BRANCH  28  29
HETATM   29  N   UNL     1      41.073 -13.249   0.247  1.00  0.00    -0.278 N 
HETATM   30  C   UNL     1      41.273 -11.901   0.142  1.00  0.00     0.261 A 
HETATM   31  O   UNL     1      40.980 -11.048   0.957  1.00  0.00    -0.267 OA
HETATM   32  C   UNL     1      41.744 -11.655  -1.222  1.00  0.00     0.048 A 
HETATM   33  C   UNL     1      41.743 -12.872  -1.888  1.00  0.00     0.048 A 
HETATM   34  C   UNL     1      42.071 -10.475  -1.856  1.00  0.00     0.018 A 
HETATM   35  C   UNL     1      41.279 -13.888  -0.944  1.00  0.00     0.261 A 
HETATM   36  C   UNL     1      42.078 -12.978  -3.222  1.00  0.00     0.018 A 
HETATM   37  O   UNL     1      41.035 -15.049  -1.204  1.00  0.00    -0.267 OA
HETATM   38  C   UNL     1      42.426 -11.797  -3.883  1.00  0.00     0.001 A 
HETATM   39  C   UNL     1      42.422 -10.557  -3.207  1.00  0.00     0.001 A 
ENDBRANCH  28  29
ENDBRANCH   3  28
TORSDOF 6
ENDMDL
MODEL 7
REMARK VINA RESULT:      -8.7      1.999      7.223
REMARK  6 active torsions:
REMARK  status: ('A' for Active; 'I' for Inactive)
REMARK    1  A    between atoms: C_7  and  C_8 
REMARK    2  A    between atoms: C_8  and  C_9 
REMARK    3  A    between atoms: C_9  and  N_10 
REMARK    4  A    between atoms: C_12  and  C_13 
REMARK    5  A    between atoms: C_13  and  N_14 
REMARK    6  A    between atoms: C_36  and  O_37 
ROOT
HETATM    1  N   UNL     1      40.776 -15.585   0.289  1.00  0.00    -0.054 N 
HETATM    2  H   UNL     1      39.853 -16.045   0.199  1.00  0.00     0.281 HD
HETATM    3  C   UNL     1      40.404 -14.284   1.014  1.00  0.00     0.240 C 
HETATM    4  C   UNL     1      39.361 -13.546   0.181  1.00  0.00    -0.020 A 
HETATM    5  C   UNL     1      39.299 -13.713  -1.220  1.00  0.00    -0.048 A 
HETATM    6  C   UNL     1      40.167 -14.709  -1.949  1.00  0.00     0.067 C 
HETATM    7  C   UNL     1      41.280 -15.326  -1.104  1.00  0.00     0.241 C 
HETATM    8  C   UNL     1      38.470 -12.660   0.808  1.00  0.00     0.010 A 
HETATM    9  C   UNL     1      37.536 -11.946   0.059  1.00  0.00     0.001 A 
HETATM   10  C   UNL     1      37.476 -12.110  -1.321  1.00  0.00     0.001 A 
HETATM   11  C   UNL     1      38.349 -12.991  -1.958  1.00  0.00     0.008 A 
ENDROOT
BRANCH   1  12
HETATM   12  C   UNL     1      41.579 -16.632   1.054  1.00  0.00     0.319 C 
BRANCH  12  13
HETATM   13  C   UNL     1      40.885 -17.119   2.318  1.00  0.00     0.188 C 
HETATM   14  O   UNL     1      39.657 -17.251   2.282  1.00  0.00    -0.290 OA
BRANCH  13  15
HETATM   15  C   UNL     1      41.688 -17.461   3.495  1.00  0.00     0.046 A 
HETATM   16  C   UNL     1      41.521 -16.867   4.743  1.00  0.00     0.020 A 
HETATM   17  C   UNL     1      40.600 -15.790   5.204  1.00  0.00     0.069 C 
HETATM   18  N   UNL     1      42.395 -17.458   5.618  1.00  0.00    -0.358 N 
HETATM   19  H   UNL     1      42.476 -17.234   6.603  1.00  0.00     0.166 HD
HETATM   20  C   UNL     1      43.148 -18.408   4.977  1.00  0.00     0.043 A 
HETATM   21  C   UNL     1      42.749 -18.429   3.640  1.00  0.00     0.009 A 
HETATM   22  C   UNL     1      44.142 -19.246   5.494  1.00  0.00     0.033 A 
HETATM   23  C   UNL     1      43.412 -19.344   2.788  1.00  0.00     0.051 A 
HETATM   24  C   UNL     1      44.425 -20.184   3.279  1.00  0.00     0.069 A 
HETATM   25  C   UNL     1      44.776 -20.137   4.622  1.00  0.00     0.039 A 
BRANCH  24  26
HETATM   26  O   UNL     1      44.979 -20.998   2.327  1.00  0.00    -0.356 OA
HETATM   27  C   UNL     1      44.089 -21.852   1.613  1.00  0.00     0.210 C 
ENDBRANCH  24  26
ENDBRANCH  13  15
ENDBRANCH  12  13
ENDBRANCH   1  12
BRANCH   3  28
HETATM   28  C   UNL     1      41.592 -13.309   1.285  1.00  0.00     0.173 C 
BRANCH  28  29
HETATM   29  N   UNL     1      42.057 -13.242   2.658  1.00  0.00    -0.278 N 
HETATM   30  C   UNL     1      43.110 -13.956   3.155  1.00  0.00     0.261 A 
HETATM   31  O   UNL     1      43.726 -14.844   2.597  1.00  0.00    -0.267 OA
HETATM   32  C   UNL     1      43.244 -13.576   4.562  1.00  0.00     0.048 A 
HETATM   33  C   UNL     1      42.215 -12.691   4.853  1.00  0.00     0.048 A 
HETATM   34  C   UNL     1      44.128 -14.013   5.526  1.00  0.00     0.018 A 
HETATM   35  C   UNL     1      41.437 -12.506   3.629  1.00  0.00     0.261 A 
HETATM   36  C   UNL     1      42.020 -12.188   6.122  1.00  0.00     0.018 A 
HETATM   37  O   UNL     1      40.392 -11.895   3.531  1.00  0.00    -0.267 OA
HETATM   38  C   UNL     1      42.911 -12.606   7.114  1.00  0.00     0.001 A 
HETATM   39  C   UNL     1      43.954 -13.510   6.820  1.00  0.00     0.001 A 
ENDBRANCH  28  29
ENDBRANCH   3  28
TORSDOF 6
ENDMDL
MODEL 8
REMARK VINA RESULT:      -8.6      2.350      7.129
REMARK  6 active torsions:
REMARK  status: ('A' for Active; 'I' for Inactive)
REMARK    1  A    between atoms: C_7  and  C_8 
REMARK    2  A    between atoms: C_8  and  C_9 
REMARK    3  A    between atoms: C_9  and  N_10 
REMARK    4  A    between atoms: C_12  and  C_13 
REMARK    5  A    between atoms: C_13  and  N_14 
REMARK    6  A    between atoms: C_36  and  O_37 
ROOT
HETATM    1  N   UNL     1      41.388 -15.738   3.816  1.00  0.00    -0.054 N 
HETATM    2  H   UNL     1      42.262 -15.321   4.182  1.00  0.00     0.281 HD
HETATM    3  C   UNL     1      40.834 -14.592   2.959  1.00  0.00     0.240 C 
HETATM    4  C   UNL     1      40.673 -13.360   3.841  1.00  0.00    -0.020 A 
HETATM    5  C   UNL     1      40.448 -13.484   5.230  1.00  0.00    -0.048 A 
HETATM    6  C   UNL     1      40.475 -14.821   5.930  1.00  0.00     0.067 C 
HETATM    7  C   UNL     1      40.507 -16.031   4.998  1.00  0.00     0.241 C 
HETATM    8  C   UNL     1      40.714 -12.080   3.264  1.00  0.00     0.010 A 
HETATM    9  C   UNL     1      40.530 -10.942   4.048  1.00  0.00     0.001 A 
HETATM   10  C   UNL     1      40.307 -11.066   5.416  1.00  0.00     0.001 A 
HETATM   11  C   UNL     1      40.269 -12.329   6.005  1.00  0.00     0.008 A 
ENDROOT
BRANCH   1  12
HETATM   12  C   UNL     1      41.906 -16.985   3.106  1.00  0.00     0.319 C 
BRANCH  12  13
HETATM   13  C   UNL     1      43.394 -17.224   3.316  1.00  0.00     0.188 C 
HETATM   14  O   UNL     1      44.182 -16.555   2.639  1.00  0.00    -0.290 OA
BRANCH  13  15
HETATM   15  C   UNL     1      43.833 -18.181   4.335  1.00  0.00     0.046 A 
HETATM   16  C   UNL     1      44.003 -17.857   5.678  1.00  0.00     0.020 A 
HETATM   17  C   UNL     1      43.847 -16.565   6.404  1.00  0.00     0.069 C 
HETATM   18  N   UNL     1      44.366 -18.994   6.350  1.00  0.00    -0.358 N 
HETATM   19  H   UNL     1      44.537 -19.054   7.347  1.00  0.00     0.166 HD
HETATM   20  C   UNL     1      44.462 -20.054   5.484  1.00  0.00     0.043 A 
HETATM   21  C   UNL     1      44.152 -19.583   4.208  1.00  0.00     0.009 A 
HETATM   22  C   UNL     1      44.791 -21.388   5.752  1.00  0.00     0.033 A 
HETATM   23  C   UNL     1      44.198 -20.523   3.151  1.00  0.00     0.051 A 
HETATM   24  C   UNL     1      44.542 -21.863   3.390  1.00  0.00     0.069 A 
HETATM   25  C   UNL     1      44.826 -22.287   4.682  1.00  0.00     0.039 A 
BRANCH  24  26
HETATM   26  O   UNL     1      44.558 -22.640   2.263  1.00  0.00    -0.356 OA
HETATM   27  C   UNL     1      43.972 -22.084   1.089  1.00  0.00     0.210 C 
ENDBRANCH  24  26
ENDBRANCH  13  15
ENDBRANCH  12  13
ENDBRANCH   1  12
BRANCH   3  28
HETATM   28  C   UNL     1      39.465 -14.880   2.267  1.00  0.00     0.173 C 
BRANCH  28  29
HETATM   29  N   UNL     1      39.357 -14.468   0.879  1.00  0.00    -0.278 N 
HETATM   30  C   UNL     1      38.250 -13.887   0.328  1.00  0.00     0.261 A 
HETATM   31  O   UNL     1      37.157 -13.750   0.844  1.00  0.00    -0.267 OA
HETATM   32  C   UNL     1      38.574 -13.621  -1.074  1.00  0.00     0.048 A 
HETATM   33  C   UNL     1      39.848 -14.118  -1.307  1.00  0.00     0.048 A 
HETATM   34  C   UNL     1      37.808 -13.069  -2.080  1.00  0.00     0.018 A 
HETATM   35  C   UNL     1      40.332 -14.690  -0.052  1.00  0.00     0.261 A 
HETATM   36  C   UNL     1      40.431 -14.081  -2.557  1.00  0.00     0.018 A 
HETATM   37  O   UNL     1      41.359 -15.321   0.098  1.00  0.00    -0.267 OA
HETATM   38  C   UNL     1      39.680 -13.514  -3.590  1.00  0.00     0.001 A 
HETATM   39  C   UNL     1      38.381 -13.014  -3.355  1.00  0.00     0.001 A 
ENDBRANCH  28  29
ENDBRANCH   3  28
TORSDOF 6
ENDMDL
MODEL 9
REMARK VINA RESULT:      -8.4      2.440      7.255
REMARK  6 active torsions:
REMARK  status: ('A' for Active; 'I' for Inactive)
REMARK    1  A    between atoms: C_7  and  C_8 
REMARK    2  A    between atoms: C_8  and  C_9 
REMARK    3  A    between atoms: C_9  and  N_10 
REMARK    4  A    between atoms: C_12  and  C_13 
REMARK    5  A    between atoms: C_13  and  N_14 
REMARK    6  A    between atoms: C_36  and  O_37 
ROOT
HETATM    1  N   UNL     1      41.483 -14.476   1.178  1.00  0.00    -0.054 N 
HETATM    2  H   UNL     1      40.454 -14.375   1.217  1.00  0.00     0.281 HD
HETATM    3  C   UNL     1      41.746 -15.422   2.358  1.00  0.00     0.240 C 
HETATM    4  C   UNL     1      41.180 -14.787   3.623  1.00  0.00    -0.020 A 
HETATM    5  C   UNL     1      41.070 -13.385   3.747  1.00  0.00    -0.048 A 
HETATM    6  C   UNL     1      41.388 -12.451   2.604  1.00  0.00     0.067 C 
HETATM    7  C   UNL     1      42.073 -13.113   1.409  1.00  0.00     0.241 C 
HETATM    8  C   UNL     1      40.792 -15.605   4.698  1.00  0.00     0.010 A 
HETATM    9  C   UNL     1      40.309 -15.041   5.878  1.00  0.00     0.001 A 
HETATM   10  C   UNL     1      40.202 -13.659   5.999  1.00  0.00     0.001 A 
HETATM   11  C   UNL     1      40.577 -12.835   4.939  1.00  0.00     0.008 A 
ENDROOT
BRANCH   1  12
HETATM   12  C   UNL     1      41.695 -15.011  -0.236  1.00  0.00     0.319 C 
BRANCH  12  13
HETATM   13  C   UNL     1      41.454 -13.969  -1.317  1.00  0.00     0.188 C 
HETATM   14  O   UNL     1      42.444 -13.461  -1.854  1.00  0.00    -0.290 OA
BRANCH  13  15
HETATM   15  C   UNL     1      40.080 -13.649  -1.716  1.00  0.00     0.046 A 
HETATM   16  C   UNL     1      39.357 -14.385  -2.652  1.00  0.00     0.020 A 
HETATM   17  C   UNL     1      39.733 -15.569  -3.474  1.00  0.00     0.069 C 
HETATM   18  N   UNL     1      38.101 -13.844  -2.742  1.00  0.00    -0.358 N 
HETATM   19  H   UNL     1      37.357 -14.192  -3.335  1.00  0.00     0.166 HD
HETATM   20  C   UNL     1      37.984 -12.760  -1.910  1.00  0.00     0.043 A 
HETATM   21  C   UNL     1      39.208 -12.593  -1.262  1.00  0.00     0.009 A 
HETATM   22  C   UNL     1      36.879 -11.930  -1.688  1.00  0.00     0.033 A 
HETATM   23  C   UNL     1      39.309 -11.514  -0.352  1.00  0.00     0.051 A 
HETATM   24  C   UNL     1      38.220 -10.657  -0.124  1.00  0.00     0.069 A 
HETATM   25  C   UNL     1      37.016 -10.874  -0.782  1.00  0.00     0.039 A 
BRANCH  24  26
HETATM   26  O   UNL     1      38.483  -9.653   0.770  1.00  0.00    -0.356 OA
HETATM   27  C   UNL     1      39.452  -8.684   0.383  1.00  0.00     0.210 C 
ENDBRANCH  24  26
ENDBRANCH  13  15
ENDBRANCH  12  13
ENDBRANCH   1  12
BRANCH   3  28
HETATM   28  C   UNL     1      43.247 -15.767   2.613  1.00  0.00     0.173 C 
BRANCH  28  29
HETATM   29  N   UNL     1      43.547 -17.170   2.827  1.00  0.00    -0.278 N 
HETATM   30  C   UNL     1      43.836 -17.724   4.042  1.00  0.00     0.261 A 
HETATM   31  O   UNL     1      44.027 -17.138   5.091  1.00  0.00    -0.267 OA
HETATM   32  C   UNL     1      44.056 -19.152   3.807  1.00  0.00     0.048 A 
HETATM   33  C   UNL     1      43.945 -19.370   2.442  1.00  0.00     0.048 A 
HETATM   34  C   UNL     1      44.395 -20.161   4.684  1.00  0.00     0.018 A 
HETATM   35  C   UNL     1      43.649 -18.083   1.815  1.00  0.00     0.261 A 
HETATM   36  C   UNL     1      44.159 -20.611   1.879  1.00  0.00     0.018 A 
HETATM   37  O   UNL     1      43.602 -17.862   0.621  1.00  0.00    -0.267 OA
HETATM   38  C   UNL     1      44.492 -21.653   2.749  1.00  0.00     0.001 A 
HETATM   39  C   UNL     1      44.611 -21.430   4.138  1.00  0.00     0.001 A 
ENDBRANCH  28  29
ENDBRANCH   3  28
TORSDOF 6
ENDMDL
MODEL 10
REMARK VINA RESULT:      -8.4      2.730      7.592
REMARK  6 active torsions:
REMARK  status: ('A' for Active; 'I' for Inactive)
REMARK    1  A    between atoms: C_7  and  C_8 
REMARK    2  A    between atoms: C_8  and  C_9 
REMARK    3  A    between atoms: C_9  and  N_10 
REMARK    4  A    between atoms: C_12  and  C_13 
REMARK    5  A    between atoms: C_13  and  N_14 
REMARK    6  A    between atoms: C_36  and  O_37 
ROOT
HETATM    1  N   UNL     1      41.552 -14.137   1.356  1.00  0.00    -0.054 N 
HETATM    2  H   UNL     1      40.524 -14.035   1.423  1.00  0.00     0.281 HD
HETATM    3  C   UNL     1      41.815 -15.273   2.354  1.00  0.00     0.240 C 
HETATM    4  C   UNL     1      41.268 -14.859   3.715  1.00  0.00    -0.020 A 
HETATM    5  C   UNL     1      41.175 -13.498   4.078  1.00  0.00    -0.048 A 
HETATM    6  C   UNL     1      41.492 -12.386   3.108  1.00  0.00     0.067 C 
HETATM    7  C   UNL     1      42.158 -12.839   1.810  1.00  0.00     0.241 C 
HETATM    8  C   UNL     1      40.882 -15.845   4.638  1.00  0.00     0.010 A 
HETATM    9  C   UNL     1      40.415 -15.487   5.903  1.00  0.00     0.001 A 
HETATM   10  C   UNL     1      40.325 -14.145   6.259  1.00  0.00     0.001 A 
HETATM   11  C   UNL     1      40.699 -13.155   5.352  1.00  0.00     0.008 A 
ENDROOT
BRANCH   1  12
HETATM   12  C   UNL     1      41.745 -14.425  -0.131  1.00  0.00     0.319 C 
BRANCH  12  13
HETATM   13  C   UNL     1      41.692 -13.176  -0.998  1.00  0.00     0.188 C 
HETATM   14  O   UNL     1      42.761 -12.736  -1.433  1.00  0.00    -0.290 OA
BRANCH  13  15
HETATM   15  C   UNL     1      40.394 -12.581  -1.326  1.00  0.00     0.046 A 
HETATM   16  C   UNL     1      39.966 -11.346  -0.845  1.00  0.00     0.020 A 
HETATM   17  C   UNL     1      40.611 -10.376   0.084  1.00  0.00     0.069 C 
HETATM   18  N   UNL     1      38.738 -11.077  -1.391  1.00  0.00    -0.358 N 
HETATM   19  H   UNL     1      38.199 -10.234  -1.229  1.00  0.00     0.166 HD
HETATM   20  C   UNL     1      38.335 -12.109  -2.200  1.00  0.00     0.043 A 
HETATM   21  C   UNL     1      39.337 -13.079  -2.173  1.00  0.00     0.009 A 
HETATM   22  C   UNL     1      37.162 -12.237  -2.952  1.00  0.00     0.033 A 
HETATM   23  C   UNL     1      39.118 -14.247  -2.943  1.00  0.00     0.051 A 
HETATM   24  C   UNL     1      37.942 -14.407  -3.693  1.00  0.00     0.069 A 
HETATM   25  C   UNL     1      36.980 -13.404  -3.700  1.00  0.00     0.039 A 
BRANCH  24  26
HETATM   26  O   UNL     1      37.873 -15.596  -4.368  1.00  0.00    -0.356 OA
HETATM   27  C   UNL     1      38.946 -16.512  -4.170  1.00  0.00     0.210 C 
ENDBRANCH  24  26
ENDBRANCH  13  15
ENDBRANCH  12  13
ENDBRANCH   1  12
BRANCH   3  28
HETATM   28  C   UNL     1      43.314 -15.670   2.530  1.00  0.00     0.173 C 
BRANCH  28  29
HETATM   29  N   UNL     1      43.577 -17.084   2.725  1.00  0.00    -0.278 N 
HETATM   30  C   UNL     1      43.867 -17.659   3.930  1.00  0.00     0.261 A 
HETATM   31  O   UNL     1      44.090 -17.091   4.982  1.00  0.00    -0.267 OA
HETATM   32  C   UNL     1      44.041 -19.090   3.677  1.00  0.00     0.048 A 
HETATM   33  C   UNL     1      43.905 -19.290   2.311  1.00  0.00     0.048 A 
HETATM   34  C   UNL     1      44.364 -20.118   4.538  1.00  0.00     0.018 A 
HETATM   35  C   UNL     1      43.638 -17.989   1.702  1.00  0.00     0.261 A 
HETATM   36  C   UNL     1      44.075 -20.531   1.732  1.00  0.00     0.018 A 
HETATM   37  O   UNL     1      43.580 -17.753   0.511  1.00  0.00    -0.267 OA
HETATM   38  C   UNL     1      44.390 -21.591   2.587  1.00  0.00     0.001 A 
HETATM   39  C   UNL     1      44.534 -21.387   3.976  1.00  0.00     0.001 A 
ENDBRANCH  28  29
ENDBRANCH   3  28
TORSDOF 6
ENDMDL
