MODEL 1
REMARK VINA RESULT:     -10.1      0.000      0.000
REMARK  7 active torsions:
REMARK  status: ('A' for Active; 'I' for Inactive)
REMARK    1  A    between atoms: C_3  and  C_4 
REMARK       I    between atoms: C_4  and  N_5 
REMARK    2  A    between atoms: N_5  and  C_6 
REMARK    3  A    between atoms: C_6  and  C_7 
REMARK    4  A    between atoms: N_23  and  C_24 
REMARK    5  A    between atoms: C_24  and  C_25 
REMARK       I    between atoms: C_25  and  N_26 
REMARK    6  A    between atoms: N_26  and  C_27 
REMARK    7  A    between atoms: C_29  and  C_30 
ROOT
HETATM    1  C   UNL     1      42.676 -12.666   5.474  1.00  0.00     0.051 C 
HETATM    2  C   UNL     1      43.195 -14.043   5.765  1.00  0.00    -0.021 A 
HETATM    3  C   UNL     1      44.113 -14.346   6.770  1.00  0.00     0.081 A 
HETATM    4  S   UNL     1      44.421 -16.035   6.851  1.00  0.00    -0.063 SA
HETATM    5  C   UNL     1      43.376 -16.375   5.560  1.00  0.00     0.116 A 
HETATM    6  C   UNL     1      42.820 -15.231   5.033  1.00  0.00     0.075 A 
HETATM    7  C   UNL     1      41.952 -15.387   3.874  1.00  0.00     0.262 A 
HETATM    8  O   UNL     1      41.491 -14.437   3.249  1.00  0.00    -0.267 OA
HETATM    9  N   UNL     1      41.725 -16.714   3.507  1.00  0.00    -0.299 N 
HETATM   10  C   UNL     1      42.330 -17.766   4.171  1.00  0.00     0.214 A 
HETATM   11  N   UNL     1      43.163 -17.650   5.152  1.00  0.00    -0.235 NA
ENDROOT
BRANCH   3  12
HETATM   12  C   UNL     1      44.787 -13.426   7.694  1.00  0.00     0.259 C 
HETATM   13  N   UNL     1      44.032 -12.995   8.764  1.00  0.00    -0.354 N 
HETATM   14  H   UNL     1      43.129 -13.437   8.892  1.00  0.00     0.162 HD
HETATM   15  O   UNL     1      45.954 -13.061   7.562  1.00  0.00    -0.267 OA
BRANCH  13  16
HETATM   16  C   UNL     1      44.594 -12.215   9.846  1.00  0.00     0.157 C 
BRANCH  16  17
HETATM   17  C   UNL     1      44.128 -10.748   9.923  1.00  0.00     0.171 C 
HETATM   18  O   UNL     1      44.356 -10.205  11.234  1.00  0.00    -0.339 OA
HETATM   19  C   UNL     1      43.259 -10.250  12.053  1.00  0.00     0.102 A 
HETATM   20  C   UNL     1      41.988 -10.637  11.625  1.00  0.00     0.102 A 
HETATM   21  C   UNL     1      43.471  -9.923  13.391  1.00  0.00     0.039 A 
HETATM   22  O   UNL     1      41.714 -11.003  10.334  1.00  0.00    -0.346 OA
HETATM   23  C   UNL     1      40.940 -10.735  12.539  1.00  0.00     0.039 A 
HETATM   24  C   UNL     1      42.702 -10.496   9.436  1.00  0.00     0.209 C 
HETATM   25  C   UNL     1      41.157 -10.419  13.880  1.00  0.00     0.003 A 
HETATM   26  C   UNL     1      42.420 -10.008  14.305  1.00  0.00     0.003 A 
ENDBRANCH  16  17
ENDBRANCH  13  16
ENDBRANCH   3  12
BRANCH   9  27
HETATM   27  C   UNL     1      40.785 -16.997   2.431  1.00  0.00     0.236 C 
BRANCH  27  28
HETATM   28  C   UNL     1      41.285 -16.676   1.016  1.00  0.00     0.240 C 
HETATM   29  N   UNL     1      40.645 -15.625   0.385  1.00  0.00    -0.326 N 
HETATM   30  H   UNL     1      39.795 -15.282   0.817  1.00  0.00     0.169 HD
HETATM   31  O   UNL     1      42.218 -17.328   0.550  1.00  0.00    -0.271 OA
BRANCH  29  32
HETATM   32  C   UNL     1      41.022 -14.986  -0.815  1.00  0.00     0.035 A 
HETATM   33  C   UNL     1      41.551 -13.693  -0.881  1.00  0.00     0.045 A 
HETATM   34  C   UNL     1      41.868 -13.102  -2.118  1.00  0.00     0.050 A 
HETATM   35  C   UNL     1      41.645 -13.827  -3.298  1.00  0.00     0.016 A 
HETATM   36  C   UNL     1      41.122 -15.116  -3.241  1.00  0.00     0.003 A 
HETATM   37  C   UNL     1      40.812 -15.692  -2.006  1.00  0.00     0.029 A 
BRANCH  34  38
HETATM   38  C   UNL     1      42.426 -11.702  -2.192  1.00  0.00     0.417 C 
HETATM   39  F   UNL     1      42.800 -11.319  -3.443  1.00  0.00    -0.166 F 
HETATM   40  F   UNL     1      41.536 -10.762  -1.764  1.00  0.00    -0.166 F 
HETATM   41  F   UNL     1      43.532 -11.547  -1.410  1.00  0.00    -0.166 F 
ENDBRANCH  34  38
ENDBRANCH  29  32
ENDBRANCH  27  28
ENDBRANCH   9  27
TORSDOF 7
ENDMDL
MODEL 2
REMARK VINA RESULT:     -10.0      4.587      6.153
REMARK  7 active torsions:
REMARK  status: ('A' for Active; 'I' for Inactive)
REMARK    1  A    between atoms: C_3  and  C_4 
REMARK       I    between atoms: C_4  and  N_5 
REMARK    2  A    between atoms: N_5  and  C_6 
REMARK    3  A    between atoms: C_6  and  C_7 
REMARK    4  A    between atoms: N_23  and  C_24 
REMARK    5  A    between atoms: C_24  and  C_25 
REMARK       I    between atoms: C_25  and  N_26 
REMARK    6  A    between atoms: N_26  and  C_27 
REMARK    7  A    between atoms: C_29  and  C_30 
ROOT
HETATM    1  C   UNL     1      40.914  -9.949   4.043  1.00  0.00     0.051 C 
HETATM    2  C   UNL     1      40.471 -11.113   4.880  1.00  0.00    -0.021 A 
HETATM    3  C   UNL     1      39.831 -11.001   6.114  1.00  0.00     0.081 A 
HETATM    4  S   UNL     1      39.414 -12.545   6.746  1.00  0.00    -0.063 SA
HETATM    5  C   UNL     1      40.086 -13.364   5.423  1.00  0.00     0.116 A 
HETATM    6  C   UNL     1      40.662 -12.499   4.520  1.00  0.00     0.075 A 
HETATM    7  C   UNL     1      41.333 -13.088   3.369  1.00  0.00     0.262 A 
HETATM    8  O   UNL     1      41.978 -12.430   2.560  1.00  0.00    -0.267 OA
HETATM    9  N   UNL     1      41.216 -14.476   3.291  1.00  0.00    -0.299 N 
HETATM   10  C   UNL     1      40.561 -15.207   4.267  1.00  0.00     0.214 A 
HETATM   11  N   UNL     1      40.025 -14.716   5.335  1.00  0.00    -0.235 NA
ENDROOT
BRANCH   3  12
HETATM   12  C   UNL     1      39.507  -9.783   6.864  1.00  0.00     0.259 C 
HETATM   13  N   UNL     1      40.349  -9.486   7.915  1.00  0.00    -0.354 N 
HETATM   14  H   UNL     1      41.182 -10.057   8.005  1.00  0.00     0.162 HD
HETATM   15  O   UNL     1      38.565  -9.042   6.587  1.00  0.00    -0.267 OA
BRANCH  13  16
HETATM   16  C   UNL     1      40.262  -8.243   8.652  1.00  0.00     0.157 C 
BRANCH  16  17
HETATM   17  C   UNL     1      39.784  -8.367  10.112  1.00  0.00     0.171 C 
HETATM   18  O   UNL     1      40.817  -7.963  11.026  1.00  0.00    -0.339 OA
HETATM   19  C   UNL     1      41.554  -9.003  11.528  1.00  0.00     0.102 A 
HETATM   20  C   UNL     1      41.246 -10.348  11.308  1.00  0.00     0.102 A 
HETATM   21  C   UNL     1      42.690  -8.662  12.260  1.00  0.00     0.039 A 
HETATM   22  O   UNL     1      40.166 -10.755  10.572  1.00  0.00    -0.346 OA
HETATM   23  C   UNL     1      42.092 -11.347  11.785  1.00  0.00     0.039 A 
HETATM   24  C   UNL     1      39.184  -9.722  10.484  1.00  0.00     0.209 C 
HETATM   25  C   UNL     1      43.235 -11.004  12.507  1.00  0.00     0.003 A 
HETATM   26  C   UNL     1      43.531  -9.662  12.749  1.00  0.00     0.003 A 
ENDBRANCH  16  17
ENDBRANCH  13  16
ENDBRANCH   3  12
BRANCH   9  27
HETATM   27  C   UNL     1      41.752 -15.165   2.124  1.00  0.00     0.236 C 
BRANCH  27  28
HETATM   28  C   UNL     1      42.080 -16.650   2.328  1.00  0.00     0.240 C 
HETATM   29  N   UNL     1      43.316 -16.913   2.888  1.00  0.00    -0.326 N 
HETATM   30  H   UNL     1      43.967 -16.138   2.944  1.00  0.00     0.169 HD
HETATM   31  O   UNL     1      41.240 -17.495   2.021  1.00  0.00    -0.271 OA
BRANCH  29  32
HETATM   32  C   UNL     1      43.795 -18.149   3.371  1.00  0.00     0.035 A 
HETATM   33  C   UNL     1      43.823 -19.326   2.617  1.00  0.00     0.045 A 
HETATM   34  C   UNL     1      44.276 -20.535   3.176  1.00  0.00     0.050 A 
HETATM   35  C   UNL     1      44.703 -20.551   4.513  1.00  0.00     0.016 A 
HETATM   36  C   UNL     1      44.681 -19.383   5.270  1.00  0.00     0.003 A 
HETATM   37  C   UNL     1      44.229 -18.189   4.702  1.00  0.00     0.029 A 
BRANCH  34  38
HETATM   38  C   UNL     1      44.296 -21.809   2.367  1.00  0.00     0.417 C 
HETATM   39  F   UNL     1      45.244 -21.833   1.391  1.00  0.00    -0.166 F 
HETATM   40  F   UNL     1      44.524 -22.911   3.137  1.00  0.00    -0.166 F 
HETATM   41  F   UNL     1      43.108 -22.037   1.738  1.00  0.00    -0.166 F 
ENDBRANCH  34  38
ENDBRANCH  29  32
ENDBRANCH  27  28
ENDBRANCH   9  27
TORSDOF 7
ENDMDL
MODEL 3
REMARK VINA RESULT:      -9.9      4.279      6.202
REMARK  7 active torsions:
REMARK  status: ('A' for Active; 'I' for Inactive)
REMARK    1  A    between atoms: C_3  and  C_4 
REMARK       I    between atoms: C_4  and  N_5 
REMARK    2  A    between atoms: N_5  and  C_6 
REMARK    3  A    between atoms: C_6  and  C_7 
REMARK    4  A    between atoms: N_23  and  C_24 
REMARK    5  A    between atoms: C_24  and  C_25 
REMARK       I    between atoms: C_25  and  N_26 
REMARK    6  A    between atoms: N_26  and  C_27 
REMARK    7  A    between atoms: C_29  and  C_30 
ROOT
HETATM    1  C   UNL     1      42.143 -12.564   6.005  1.00  0.00     0.051 C 
HETATM    2  C   UNL     1      40.915 -12.396   5.161  1.00  0.00    -0.021 A 
HETATM    3  C   UNL     1      39.820 -11.603   5.506  1.00  0.00     0.081 A 
HETATM    4  S   UNL     1      38.632 -11.601   4.265  1.00  0.00    -0.063 SA
HETATM    5  C   UNL     1      39.529 -12.651   3.283  1.00  0.00     0.116 A 
HETATM    6  C   UNL     1      40.702 -13.044   3.887  1.00  0.00     0.075 A 
HETATM    7  C   UNL     1      41.533 -14.001   3.168  1.00  0.00     0.262 A 
HETATM    8  O   UNL     1      42.539 -14.511   3.651  1.00  0.00    -0.267 OA
HETATM    9  N   UNL     1      41.059 -14.323   1.896  1.00  0.00    -0.299 N 
HETATM   10  C   UNL     1      39.871 -13.806   1.410  1.00  0.00     0.214 A 
HETATM   11  N   UNL     1      39.080 -13.016   2.057  1.00  0.00    -0.235 NA
ENDROOT
BRANCH   3  12
HETATM   12  C   UNL     1      39.608 -10.831   6.735  1.00  0.00     0.259 C 
HETATM   13  N   UNL     1      40.093 -11.404   7.892  1.00  0.00    -0.354 N 
HETATM   14  H   UNL     1      40.657 -12.240   7.784  1.00  0.00     0.162 HD
HETATM   15  O   UNL     1      39.056  -9.733   6.764  1.00  0.00    -0.267 OA
BRANCH  13  16
HETATM   16  C   UNL     1      40.106 -10.705   9.159  1.00  0.00     0.157 C 
BRANCH  16  17
HETATM   17  C   UNL     1      41.259  -9.701   9.356  1.00  0.00     0.171 C 
HETATM   18  O   UNL     1      42.452 -10.156   8.695  1.00  0.00    -0.339 OA
HETATM   19  C   UNL     1      43.327 -10.815   9.518  1.00  0.00     0.102 A 
HETATM   20  C   UNL     1      43.167 -10.909  10.902  1.00  0.00     0.102 A 
HETATM   21  C   UNL     1      44.402 -11.449   8.898  1.00  0.00     0.039 A 
HETATM   22  O   UNL     1      42.117 -10.341  11.573  1.00  0.00    -0.346 OA
HETATM   23  C   UNL     1      44.057 -11.668  11.660  1.00  0.00     0.039 A 
HETATM   24  C   UNL     1      41.523  -9.294  10.804  1.00  0.00     0.209 C 
HETATM   25  C   UNL     1      45.126 -12.312  11.037  1.00  0.00     0.003 A 
HETATM   26  C   UNL     1      45.302 -12.198   9.658  1.00  0.00     0.003 A 
ENDBRANCH  16  17
ENDBRANCH  13  16
ENDBRANCH   3  12
BRANCH   9  27
HETATM   27  C   UNL     1      41.864 -15.186   1.041  1.00  0.00     0.236 C 
BRANCH  27  28
HETATM   28  C   UNL     1      42.045 -16.626   1.540  1.00  0.00     0.240 C 
HETATM   29  N   UNL     1      43.309 -16.937   2.006  1.00  0.00    -0.326 N 
HETATM   30  H   UNL     1      44.045 -16.268   1.812  1.00  0.00     0.169 HD
HETATM   31  O   UNL     1      41.080 -17.388   1.528  1.00  0.00    -0.271 OA
BRANCH  29  32
HETATM   32  C   UNL     1      43.705 -18.099   2.701  1.00  0.00     0.035 A 
HETATM   33  C   UNL     1      43.811 -19.365   2.116  1.00  0.00     0.045 A 
HETATM   34  C   UNL     1      44.172 -20.489   2.880  1.00  0.00     0.050 A 
HETATM   35  C   UNL     1      44.428 -20.330   4.250  1.00  0.00     0.016 A 
HETATM   36  C   UNL     1      44.328 -19.073   4.840  1.00  0.00     0.003 A 
HETATM   37  C   UNL     1      43.969 -17.964   4.070  1.00  0.00     0.029 A 
BRANCH  34  38
HETATM   38  C   UNL     1      44.274 -21.858   2.252  1.00  0.00     0.417 C 
HETATM   39  F   UNL     1      45.288 -21.982   1.352  1.00  0.00    -0.166 F 
HETATM   40  F   UNL     1      44.471 -22.841   3.175  1.00  0.00    -0.166 F 
HETATM   41  F   UNL     1      43.138 -22.202   1.581  1.00  0.00    -0.166 F 
ENDBRANCH  34  38
ENDBRANCH  29  32
ENDBRANCH  27  28
ENDBRANCH   9  27
TORSDOF 7
ENDMDL
MODEL 4
REMARK VINA RESULT:      -9.7      4.782     10.939
REMARK  7 active torsions:
REMARK  status: ('A' for Active; 'I' for Inactive)
REMARK    1  A    between atoms: C_3  and  C_4 
REMARK       I    between atoms: C_4  and  N_5 
REMARK    2  A    between atoms: N_5  and  C_6 
REMARK    3  A    between atoms: C_6  and  C_7 
REMARK    4  A    between atoms: N_23  and  C_24 
REMARK    5  A    between atoms: C_24  and  C_25 
REMARK       I    between atoms: C_25  and  N_26 
REMARK    6  A    between atoms: N_26  and  C_27 
REMARK    7  A    between atoms: C_29  and  C_30 
ROOT
HETATM    1  C   UNL     1      40.125 -14.621   5.605  1.00  0.00     0.051 C 
HETATM    2  C   UNL     1      39.849 -13.605   4.537  1.00  0.00    -0.021 A 
HETATM    3  C   UNL     1      39.728 -13.898   3.179  1.00  0.00     0.081 A 
HETATM    4  S   UNL     1      39.343 -12.493   2.267  1.00  0.00    -0.063 SA
HETATM    5  C   UNL     1      39.356 -11.494   3.636  1.00  0.00     0.116 A 
HETATM    6  C   UNL     1      39.685 -12.189   4.777  1.00  0.00     0.075 A 
HETATM    7  C   UNL     1      39.793 -11.426   6.013  1.00  0.00     0.262 A 
HETATM    8  O   UNL     1      40.190 -11.911   7.068  1.00  0.00    -0.267 OA
HETATM    9  N   UNL     1      39.448 -10.080   5.883  1.00  0.00    -0.299 N 
HETATM   10  C   UNL     1      39.093  -9.535   4.662  1.00  0.00     0.214 A 
HETATM   11  N   UNL     1      39.064 -10.173   3.539  1.00  0.00    -0.235 NA
ENDROOT
BRANCH   3  12
HETATM   12  C   UNL     1      39.886 -15.194   2.511  1.00  0.00     0.259 C 
HETATM   13  N   UNL     1      41.140 -15.762   2.597  1.00  0.00    -0.354 N 
HETATM   14  H   UNL     1      41.805 -15.304   3.210  1.00  0.00     0.162 HD
HETATM   15  O   UNL     1      38.975 -15.773   1.922  1.00  0.00    -0.267 OA
BRANCH  13  16
HETATM   16  C   UNL     1      41.419 -17.103   2.130  1.00  0.00     0.157 C 
BRANCH  16  17
HETATM   17  C   UNL     1      42.837 -17.333   1.572  1.00  0.00     0.171 C 
HETATM   18  O   UNL     1      43.003 -18.694   1.140  1.00  0.00    -0.339 OA
HETATM   19  C   UNL     1      43.598 -19.504   2.072  1.00  0.00     0.102 A 
HETATM   20  C   UNL     1      44.140 -19.037   3.271  1.00  0.00     0.102 A 
HETATM   21  C   UNL     1      43.606 -20.869   1.791  1.00  0.00     0.039 A 
HETATM   22  O   UNL     1      44.137 -17.715   3.627  1.00  0.00    -0.346 OA
HETATM   23  C   UNL     1      44.655 -19.936   4.204  1.00  0.00     0.039 A 
HETATM   24  C   UNL     1      43.974 -16.875   2.484  1.00  0.00     0.209 C 
HETATM   25  C   UNL     1      44.651 -21.303   3.927  1.00  0.00     0.003 A 
HETATM   26  C   UNL     1      44.132 -21.769   2.719  1.00  0.00     0.003 A 
ENDBRANCH  16  17
ENDBRANCH  13  16
ENDBRANCH   3  12
BRANCH   9  27
HETATM   27  C   UNL     1      39.412  -9.243   7.075  1.00  0.00     0.236 C 
BRANCH  27  28
HETATM   28  C   UNL     1      40.749  -9.085   7.812  1.00  0.00     0.240 C 
HETATM   29  N   UNL     1      40.810  -9.672   9.062  1.00  0.00    -0.326 N 
HETATM   30  H   UNL     1      39.934  -9.987   9.462  1.00  0.00     0.169 HD
HETATM   31  O   UNL     1      41.672  -8.494   7.254  1.00  0.00    -0.271 OA
BRANCH  29  32
HETATM   32  C   UNL     1      41.953  -9.861   9.867  1.00  0.00     0.035 A 
HETATM   33  C   UNL     1      43.044 -10.656   9.504  1.00  0.00     0.045 A 
HETATM   34  C   UNL     1      44.134 -10.833  10.375  1.00  0.00     0.050 A 
HETATM   35  C   UNL     1      44.118 -10.198  11.626  1.00  0.00     0.016 A 
HETATM   36  C   UNL     1      43.037  -9.402  11.995  1.00  0.00     0.003 A 
HETATM   37  C   UNL     1      41.961  -9.235  11.120  1.00  0.00     0.029 A 
BRANCH  34  38
HETATM   38  C   UNL     1      45.307 -11.702   9.990  1.00  0.00     0.417 C 
HETATM   39  F   UNL     1      46.329 -11.025   9.398  1.00  0.00    -0.166 F 
HETATM   40  F   UNL     1      45.854 -12.343  11.061  1.00  0.00    -0.166 F 
HETATM   41  F   UNL     1      44.954 -12.683   9.112  1.00  0.00    -0.166 F 
ENDBRANCH  34  38
ENDBRANCH  29  32
ENDBRANCH  27  28
ENDBRANCH   9  27
TORSDOF 7
ENDMDL
MODEL 5
REMARK VINA RESULT:      -9.6      4.671     10.272
REMARK  7 active torsions:
REMARK  status: ('A' for Active; 'I' for Inactive)
REMARK    1  A    between atoms: C_3  and  C_4 
REMARK       I    between atoms: C_4  and  N_5 
REMARK    2  A    between atoms: N_5  and  C_6 
REMARK    3  A    between atoms: C_6  and  C_7 
REMARK    4  A    between atoms: N_23  and  C_24 
REMARK    5  A    between atoms: C_24  and  C_25 
REMARK       I    between atoms: C_25  and  N_26 
REMARK    6  A    between atoms: N_26  and  C_27 
REMARK    7  A    between atoms: C_29  and  C_30 
ROOT
HETATM    1  C   UNL     1      39.801 -14.435   5.310  1.00  0.00     0.051 C 
HETATM    2  C   UNL     1      39.746 -13.361   4.264  1.00  0.00    -0.021 A 
HETATM    3  C   UNL     1      39.719 -13.597   2.889  1.00  0.00     0.081 A 
HETATM    4  S   UNL     1      39.587 -12.129   2.005  1.00  0.00    -0.063 SA
HETATM    5  C   UNL     1      39.588 -11.180   3.409  1.00  0.00     0.116 A 
HETATM    6  C   UNL     1      39.726 -11.944   4.546  1.00  0.00     0.075 A 
HETATM    7  C   UNL     1      39.807 -11.237   5.817  1.00  0.00     0.262 A 
HETATM    8  O   UNL     1      40.044 -11.797   6.882  1.00  0.00    -0.267 OA
HETATM    9  N   UNL     1      39.635  -9.856   5.712  1.00  0.00    -0.299 N 
HETATM   10  C   UNL     1      39.461  -9.236   4.487  1.00  0.00     0.214 A 
HETATM   11  N   UNL     1      39.463  -9.832   3.341  1.00  0.00    -0.235 NA
ENDROOT
BRANCH   3  12
HETATM   12  C   UNL     1      39.787 -14.882   2.185  1.00  0.00     0.259 C 
HETATM   13  N   UNL     1      41.050 -15.295   1.818  1.00  0.00    -0.354 N 
HETATM   14  H   UNL     1      41.828 -14.747   2.166  1.00  0.00     0.162 HD
HETATM   15  O   UNL     1      38.803 -15.578   1.942  1.00  0.00    -0.267 OA
BRANCH  13  16
HETATM   16  C   UNL     1      41.306 -16.606   1.259  1.00  0.00     0.157 C 
BRANCH  16  17
HETATM   17  C   UNL     1      42.515 -17.358   1.849  1.00  0.00     0.171 C 
HETATM   18  O   UNL     1      42.150 -18.045   3.057  1.00  0.00    -0.339 OA
HETATM   19  C   UNL     1      42.444 -17.352   4.202  1.00  0.00     0.102 A 
HETATM   20  C   UNL     1      43.170 -16.160   4.220  1.00  0.00     0.102 A 
HETATM   21  C   UNL     1      41.937 -17.875   5.390  1.00  0.00     0.039 A 
HETATM   22  O   UNL     1      43.669 -15.571   3.089  1.00  0.00    -0.346 OA
HETATM   23  C   UNL     1      43.357 -15.471   5.418  1.00  0.00     0.039 A 
HETATM   24  C   UNL     1      43.778 -16.517   2.024  1.00  0.00     0.209 C 
HETATM   25  C   UNL     1      42.839 -15.989   6.605  1.00  0.00     0.003 A 
HETATM   26  C   UNL     1      42.134 -17.193   6.592  1.00  0.00     0.003 A 
ENDBRANCH  16  17
ENDBRANCH  13  16
ENDBRANCH   3  12
BRANCH   9  27
HETATM   27  C   UNL     1      39.586  -9.057   6.929  1.00  0.00     0.236 C 
BRANCH  27  28
HETATM   28  C   UNL     1      40.879  -9.030   7.754  1.00  0.00     0.240 C 
HETATM   29  N   UNL     1      40.747  -9.417   9.075  1.00  0.00    -0.326 N 
HETATM   30  H   UNL     1      39.803  -9.502   9.434  1.00  0.00     0.169 HD
HETATM   31  O   UNL     1      41.932  -8.709   7.205  1.00  0.00    -0.271 OA
BRANCH  29  32
HETATM   32  C   UNL     1      41.780  -9.682   9.999  1.00  0.00     0.035 A 
HETATM   33  C   UNL     1      42.629 -10.791   9.930  1.00  0.00     0.045 A 
HETATM   34  C   UNL     1      43.612 -11.014  10.910  1.00  0.00     0.050 A 
HETATM   35  C   UNL     1      43.736 -10.107  11.972  1.00  0.00     0.016 A 
HETATM   36  C   UNL     1      42.896  -8.998  12.048  1.00  0.00     0.003 A 
HETATM   37  C   UNL     1      41.924  -8.787  11.068  1.00  0.00     0.029 A 
BRANCH  34  38
HETATM   38  C   UNL     1      44.520 -12.218  10.842  1.00  0.00     0.417 C 
HETATM   39  F   UNL     1      44.395 -12.945   9.698  1.00  0.00    -0.166 F 
HETATM   40  F   UNL     1      45.838 -11.881  10.928  1.00  0.00    -0.166 F 
HETATM   41  F   UNL     1      44.294 -13.092  11.864  1.00  0.00    -0.166 F 
ENDBRANCH  34  38
ENDBRANCH  29  32
ENDBRANCH  27  28
ENDBRANCH   9  27
TORSDOF 7
ENDMDL
MODEL 6
REMARK VINA RESULT:      -9.4      5.432     11.257
REMARK  7 active torsions:
REMARK  status: ('A' for Active; 'I' for Inactive)
REMARK    1  A    between atoms: C_3  and  C_4 
REMARK       I    between atoms: C_4  and  N_5 
REMARK    2  A    between atoms: N_5  and  C_6 
REMARK    3  A    between atoms: C_6  and  C_7 
REMARK    4  A    between atoms: N_23  and  C_24 
REMARK    5  A    between atoms: C_24  and  C_25 
REMARK       I    between atoms: C_25  and  N_26 
REMARK    6  A    between atoms: N_26  and  C_27 
REMARK    7  A    between atoms: C_29  and  C_30 
ROOT
HETATM    1  C   UNL     1      42.742 -15.357   5.778  1.00  0.00     0.051 C 
HETATM    2  C   UNL     1      41.673 -14.790   4.891  1.00  0.00    -0.021 A 
HETATM    3  C   UNL     1      40.977 -15.518   3.928  1.00  0.00     0.081 A 
HETATM    4  S   UNL     1      39.782 -14.553   3.155  1.00  0.00    -0.063 SA
HETATM    5  C   UNL     1      40.185 -13.177   4.058  1.00  0.00     0.116 A 
HETATM    6  C   UNL     1      41.238 -13.412   4.913  1.00  0.00     0.075 A 
HETATM    7  C   UNL     1      41.721 -12.285   5.699  1.00  0.00     0.262 A 
HETATM    8  O   UNL     1      42.721 -12.342   6.408  1.00  0.00    -0.267 OA
HETATM    9  N   UNL     1      40.973 -11.118   5.541  1.00  0.00    -0.299 N 
HETATM   10  C   UNL     1      39.905 -11.052   4.664  1.00  0.00     0.214 A 
HETATM   11  N   UNL     1      39.504 -12.014   3.901  1.00  0.00    -0.235 NA
ENDROOT
BRANCH   3  12
HETATM   12  C   UNL     1      41.155 -16.923   3.544  1.00  0.00     0.259 C 
HETATM   13  N   UNL     1      41.518 -17.141   2.231  1.00  0.00    -0.354 N 
HETATM   14  H   UNL     1      41.748 -16.322   1.680  1.00  0.00     0.162 HD
HETATM   15  O   UNL     1      41.018 -17.865   4.322  1.00  0.00    -0.267 OA
BRANCH  13  16
HETATM   16  C   UNL     1      41.885 -18.451   1.735  1.00  0.00     0.157 C 
BRANCH  16  17
HETATM   17  C   UNL     1      43.393 -18.681   1.514  1.00  0.00     0.171 C 
HETATM   18  O   UNL     1      43.696 -20.085   1.466  1.00  0.00    -0.339 OA
HETATM   19  C   UNL     1      44.129 -20.602   2.658  1.00  0.00     0.102 A 
HETATM   20  C   UNL     1      44.408 -19.825   3.784  1.00  0.00     0.102 A 
HETATM   21  C   UNL     1      44.247 -21.989   2.725  1.00  0.00     0.039 A 
HETATM   22  O   UNL     1      44.282 -18.461   3.799  1.00  0.00    -0.346 OA
HETATM   23  C   UNL     1      44.766 -20.434   4.985  1.00  0.00     0.039 A 
HETATM   24  C   UNL     1      44.311 -17.927   2.475  1.00  0.00     0.209 C 
HETATM   25  C   UNL     1      44.872 -21.823   5.055  1.00  0.00     0.003 A 
HETATM   26  C   UNL     1      44.619 -22.600   3.924  1.00  0.00     0.003 A 
ENDBRANCH  16  17
ENDBRANCH  13  16
ENDBRANCH   3  12
BRANCH   9  27
HETATM   27  C   UNL     1      41.295  -9.957   6.359  1.00  0.00     0.236 C 
BRANCH  27  28
HETATM   28  C   UNL     1      41.195 -10.170   7.876  1.00  0.00     0.240 C 
HETATM   29  N   UNL     1      42.382 -10.489   8.510  1.00  0.00    -0.326 N 
HETATM   30  H   UNL     1      43.165 -10.736   7.916  1.00  0.00     0.169 HD
HETATM   31  O   UNL     1      40.107 -10.018   8.429  1.00  0.00    -0.271 OA
BRANCH  29  32
HETATM   32  C   UNL     1      42.627 -10.539   9.898  1.00  0.00     0.035 A 
HETATM   33  C   UNL     1      41.626 -10.657  10.867  1.00  0.00     0.045 A 
HETATM   34  C   UNL     1      41.939 -10.660  12.238  1.00  0.00     0.050 A 
HETATM   35  C   UNL     1      43.280 -10.539  12.631  1.00  0.00     0.016 A 
HETATM   36  C   UNL     1      44.284 -10.422  11.673  1.00  0.00     0.003 A 
HETATM   37  C   UNL     1      43.959 -10.422  10.315  1.00  0.00     0.029 A 
BRANCH  34  38
HETATM   38  C   UNL     1      40.858 -10.775  13.285  1.00  0.00     0.417 C 
HETATM   39  F   UNL     1      41.312 -10.680  14.565  1.00  0.00    -0.166 F 
HETATM   40  F   UNL     1      39.902  -9.812  13.155  1.00  0.00    -0.166 F 
HETATM   41  F   UNL     1      40.197 -11.965  13.213  1.00  0.00    -0.166 F 
ENDBRANCH  34  38
ENDBRANCH  29  32
ENDBRANCH  27  28
ENDBRANCH   9  27
TORSDOF 7
ENDMDL
MODEL 7
REMARK VINA RESULT:      -9.4      4.587      6.258
REMARK  7 active torsions:
REMARK  status: ('A' for Active; 'I' for Inactive)
REMARK    1  A    between atoms: C_3  and  C_4 
REMARK       I    between atoms: C_4  and  N_5 
REMARK    2  A    between atoms: N_5  and  C_6 
REMARK    3  A    between atoms: C_6  and  C_7 
REMARK    4  A    between atoms: N_23  and  C_24 
REMARK    5  A    between atoms: C_24  and  C_25 
REMARK       I    between atoms: C_25  and  N_26 
REMARK    6  A    between atoms: N_26  and  C_27 
REMARK    7  A    between atoms: C_29  and  C_30 
ROOT
HETATM    1  C   UNL     1      39.267 -12.485   6.519  1.00  0.00     0.051 C 
HETATM    2  C   UNL     1      39.649 -11.563   5.400  1.00  0.00    -0.021 A 
HETATM    3  C   UNL     1      39.665 -10.171   5.493  1.00  0.00     0.081 A 
HETATM    4  S   UNL     1      40.219  -9.452   4.033  1.00  0.00    -0.063 SA
HETATM    5  C   UNL     1      40.416 -10.950   3.267  1.00  0.00     0.116 A 
HETATM    6  C   UNL     1      40.035 -11.997   4.076  1.00  0.00     0.075 A 
HETATM    7  C   UNL     1      40.097 -13.336   3.506  1.00  0.00     0.262 A 
HETATM    8  O   UNL     1      39.677 -14.331   4.087  1.00  0.00    -0.267 OA
HETATM    9  N   UNL     1      40.635 -13.382   2.220  1.00  0.00    -0.299 N 
HETATM   10  C   UNL     1      41.016 -12.234   1.549  1.00  0.00     0.214 A 
HETATM   11  N   UNL     1      40.900 -11.030   2.003  1.00  0.00    -0.235 NA
ENDROOT
BRANCH   3  12
HETATM   12  C   UNL     1      39.284  -9.331   6.634  1.00  0.00     0.259 C 
HETATM   13  N   UNL     1      40.266  -9.129   7.581  1.00  0.00    -0.354 N 
HETATM   14  H   UNL     1      41.194  -9.469   7.354  1.00  0.00     0.162 HD
HETATM   15  O   UNL     1      38.178  -8.810   6.757  1.00  0.00    -0.267 OA
BRANCH  13  16
HETATM   16  C   UNL     1      40.105  -8.202   8.681  1.00  0.00     0.157 C 
BRANCH  16  17
HETATM   17  C   UNL     1      39.632  -8.822  10.011  1.00  0.00     0.171 C 
HETATM   18  O   UNL     1      40.442  -8.364  11.106  1.00  0.00    -0.339 OA
HETATM   19  C   UNL     1      41.453  -9.222  11.448  1.00  0.00     0.102 A 
HETATM   20  C   UNL     1      41.604 -10.498  10.901  1.00  0.00     0.102 A 
HETATM   21  C   UNL     1      42.387  -8.744  12.365  1.00  0.00     0.039 A 
HETATM   22  O   UNL     1      40.745 -11.018   9.971  1.00  0.00    -0.346 OA
HETATM   23  C   UNL     1      42.707 -11.280  11.240  1.00  0.00     0.039 A 
HETATM   24  C   UNL     1      39.486 -10.343  10.000  1.00  0.00     0.209 C 
HETATM   25  C   UNL     1      43.648 -10.796  12.150  1.00  0.00     0.003 A 
HETATM   26  C   UNL     1      43.485  -9.531  12.716  1.00  0.00     0.003 A 
ENDBRANCH  16  17
ENDBRANCH  13  16
ENDBRANCH   3  12
BRANCH   9  27
HETATM   27  C   UNL     1      40.849 -14.679   1.592  1.00  0.00     0.236 C 
BRANCH  27  28
HETATM   28  C   UNL     1      41.951 -15.543   2.218  1.00  0.00     0.240 C 
HETATM   29  N   UNL     1      41.611 -16.863   2.449  1.00  0.00    -0.326 N 
HETATM   30  H   UNL     1      40.631 -17.104   2.365  1.00  0.00     0.169 HD
HETATM   31  O   UNL     1      43.050 -15.038   2.443  1.00  0.00    -0.271 OA
BRANCH  29  32
HETATM   32  C   UNL     1      42.471 -17.919   2.818  1.00  0.00     0.035 A 
HETATM   33  C   UNL     1      42.907 -18.154   4.125  1.00  0.00     0.045 A 
HETATM   34  C   UNL     1      43.799 -19.202   4.415  1.00  0.00     0.050 A 
HETATM   35  C   UNL     1      44.254 -20.020   3.370  1.00  0.00     0.016 A 
HETATM   36  C   UNL     1      43.823 -19.795   2.065  1.00  0.00     0.003 A 
HETATM   37  C   UNL     1      42.937 -18.751   1.791  1.00  0.00     0.029 A 
BRANCH  34  38
HETATM   38  C   UNL     1      44.280 -19.449   5.824  1.00  0.00     0.417 C 
HETATM   39  F   UNL     1      45.356 -18.695   6.183  1.00  0.00    -0.166 F 
HETATM   40  F   UNL     1      43.318 -19.195   6.756  1.00  0.00    -0.166 F 
HETATM   41  F   UNL     1      44.653 -20.746   6.022  1.00  0.00    -0.166 F 
ENDBRANCH  34  38
ENDBRANCH  29  32
ENDBRANCH  27  28
ENDBRANCH   9  27
TORSDOF 7
ENDMDL
MODEL 8
REMARK VINA RESULT:      -9.3      6.307     10.892
REMARK  7 active torsions:
REMARK  status: ('A' for Active; 'I' for Inactive)
REMARK    1  A    between atoms: C_3  and  C_4 
REMARK       I    between atoms: C_4  and  N_5 
REMARK    2  A    between atoms: N_5  and  C_6 
REMARK    3  A    between atoms: C_6  and  C_7 
REMARK    4  A    between atoms: N_23  and  C_24 
REMARK    5  A    between atoms: C_24  and  C_25 
REMARK       I    between atoms: C_25  and  N_26 
REMARK    6  A    between atoms: N_26  and  C_27 
REMARK    7  A    between atoms: C_29  and  C_30 
ROOT
HETATM    1  C   UNL     1      41.705 -13.298   0.114  1.00  0.00     0.051 C 
HETATM    2  C   UNL     1      40.800 -12.926   1.251  1.00  0.00    -0.021 A 
HETATM    3  C   UNL     1      39.688 -12.091   1.136  1.00  0.00     0.081 A 
HETATM    4  S   UNL     1      38.854 -11.948   2.632  1.00  0.00    -0.063 SA
HETATM    5  C   UNL     1      39.953 -12.954   3.440  1.00  0.00     0.116 A 
HETATM    6  C   UNL     1      40.971 -13.373   2.614  1.00  0.00     0.075 A 
HETATM    7  C   UNL     1      42.017 -14.193   3.211  1.00  0.00     0.262 A 
HETATM    8  O   UNL     1      43.030 -14.530   2.607  1.00  0.00    -0.267 OA
HETATM    9  N   UNL     1      41.788 -14.525   4.546  1.00  0.00    -0.299 N 
HETATM   10  C   UNL     1      40.682 -14.055   5.233  1.00  0.00     0.214 A 
HETATM   11  N   UNL     1      39.782 -13.265   4.749  1.00  0.00    -0.235 NA
ENDROOT
BRANCH   3  12
HETATM   12  C   UNL     1      39.203 -11.381  -0.053  1.00  0.00     0.259 C 
HETATM   13  N   UNL     1      38.023 -11.853  -0.590  1.00  0.00    -0.354 N 
HETATM   14  H   UNL     1      37.532 -12.561  -0.057  1.00  0.00     0.162 HD
HETATM   15  O   UNL     1      39.775 -10.413  -0.549  1.00  0.00    -0.267 OA
BRANCH  13  16
HETATM   16  C   UNL     1      37.331 -11.169  -1.662  1.00  0.00     0.157 C 
BRANCH  16  17
HETATM   17  C   UNL     1      37.335 -11.890  -3.024  1.00  0.00     0.171 C 
HETATM   18  O   UNL     1      37.658 -13.282  -2.866  1.00  0.00    -0.339 OA
HETATM   19  C   UNL     1      38.979 -13.575  -3.081  1.00  0.00     0.102 A 
HETATM   20  C   UNL     1      39.909 -12.650  -3.561  1.00  0.00     0.102 A 
HETATM   21  C   UNL     1      39.389 -14.865  -2.750  1.00  0.00     0.039 A 
HETATM   22  O   UNL     1      39.584 -11.358  -3.874  1.00  0.00    -0.346 OA
HETATM   23  C   UNL     1      41.253 -13.003  -3.674  1.00  0.00     0.039 A 
HETATM   24  C   UNL     1      38.181 -11.222  -4.107  1.00  0.00     0.209 C 
HETATM   25  C   UNL     1      41.664 -14.291  -3.332  1.00  0.00     0.003 A 
HETATM   26  C   UNL     1      40.732 -15.223  -2.876  1.00  0.00     0.003 A 
ENDBRANCH  16  17
ENDBRANCH  13  16
ENDBRANCH   3  12
BRANCH   9  27
HETATM   27  C   UNL     1      42.710 -15.432   5.216  1.00  0.00     0.236 C 
BRANCH  27  28
HETATM   28  C   UNL     1      42.579 -16.911   4.829  1.00  0.00     0.240 C 
HETATM   29  N   UNL     1      43.555 -17.389   3.974  1.00  0.00    -0.326 N 
HETATM   30  H   UNL     1      44.153 -16.700   3.533  1.00  0.00     0.169 HD
HETATM   31  O   UNL     1      41.663 -17.576   5.310  1.00  0.00    -0.271 OA
BRANCH  29  32
HETATM   32  C   UNL     1      43.802 -18.732   3.618  1.00  0.00     0.035 A 
HETATM   33  C   UNL     1      44.143 -19.735   4.530  1.00  0.00     0.045 A 
HETATM   34  C   UNL     1      44.415 -21.045   4.100  1.00  0.00     0.050 A 
HETATM   35  C   UNL     1      44.344 -21.343   2.730  1.00  0.00     0.016 A 
HETATM   36  C   UNL     1      44.003 -20.350   1.815  1.00  0.00     0.003 A 
HETATM   37  C   UNL     1      43.734 -19.053   2.256  1.00  0.00     0.029 A 
BRANCH  34  38
HETATM   38  C   UNL     1      44.796 -22.126   5.083  1.00  0.00     0.417 C 
HETATM   39  F   UNL     1      46.135 -22.356   5.164  1.00  0.00    -0.166 F 
HETATM   40  F   UNL     1      44.387 -21.843   6.352  1.00  0.00    -0.166 F 
HETATM   41  F   UNL     1      44.231 -23.327   4.771  1.00  0.00    -0.166 F 
ENDBRANCH  34  38
ENDBRANCH  29  32
ENDBRANCH  27  28
ENDBRANCH   9  27
TORSDOF 7
ENDMDL
MODEL 9
REMARK VINA RESULT:      -9.1      4.234      5.708
REMARK  7 active torsions:
REMARK  status: ('A' for Active; 'I' for Inactive)
REMARK    1  A    between atoms: C_3  and  C_4 
REMARK       I    between atoms: C_4  and  N_5 
REMARK    2  A    between atoms: N_5  and  C_6 
REMARK    3  A    between atoms: C_6  and  C_7 
REMARK    4  A    between atoms: N_23  and  C_24 
REMARK    5  A    between atoms: C_24  and  C_25 
REMARK       I    between atoms: C_25  and  N_26 
REMARK    6  A    between atoms: N_26  and  C_27 
REMARK    7  A    between atoms: C_29  and  C_30 
ROOT
HETATM    1  C   UNL     1      42.987 -13.390   6.258  1.00  0.00     0.051 C 
HETATM    2  C   UNL     1      41.715 -12.817   5.707  1.00  0.00    -0.021 A 
HETATM    3  C   UNL     1      40.930 -11.864   6.356  1.00  0.00     0.081 A 
HETATM    4  S   UNL     1      39.588 -11.394   5.391  1.00  0.00    -0.063 SA
HETATM    5  C   UNL     1      40.012 -12.449   4.134  1.00  0.00     0.116 A 
HETATM    6  C   UNL     1      41.133 -13.188   4.437  1.00  0.00     0.075 A 
HETATM    7  C   UNL     1      41.561 -14.179   3.460  1.00  0.00     0.262 A 
HETATM    8  O   UNL     1      42.473 -14.973   3.666  1.00  0.00    -0.267 OA
HETATM    9  N   UNL     1      40.812 -14.178   2.282  1.00  0.00    -0.299 N 
HETATM   10  C   UNL     1      39.728 -13.335   2.110  1.00  0.00     0.214 A 
HETATM   11  N   UNL     1      39.283 -12.502   2.991  1.00  0.00    -0.235 NA
ENDROOT
BRANCH   3  12
HETATM   12  C   UNL     1      41.131 -11.271   7.683  1.00  0.00     0.259 C 
HETATM   13  N   UNL     1      40.051 -11.340   8.537  1.00  0.00    -0.354 N 
HETATM   14  H   UNL     1      39.260 -11.894   8.227  1.00  0.00     0.162 HD
HETATM   15  O   UNL     1      42.187 -10.759   8.048  1.00  0.00    -0.267 OA
BRANCH  13  16
HETATM   16  C   UNL     1      40.134 -10.946   9.928  1.00  0.00     0.157 C 
BRANCH  16  17
HETATM   17  C   UNL     1      40.453  -9.460  10.181  1.00  0.00     0.171 C 
HETATM   18  O   UNL     1      41.799  -9.299  10.659  1.00  0.00    -0.339 OA
HETATM   19  C   UNL     1      41.899  -9.210  12.022  1.00  0.00     0.102 A 
HETATM   20  C   UNL     1      40.797  -9.124  12.875  1.00  0.00     0.102 A 
HETATM   21  C   UNL     1      43.186  -9.253  12.553  1.00  0.00     0.039 A 
HETATM   22  O   UNL     1      39.503  -9.111  12.426  1.00  0.00    -0.346 OA
HETATM   23  C   UNL     1      40.979  -9.120  14.257  1.00  0.00     0.039 A 
HETATM   24  C   UNL     1      39.440  -8.720  11.053  1.00  0.00     0.209 C 
HETATM   25  C   UNL     1      42.268  -9.175  14.788  1.00  0.00     0.003 A 
HETATM   26  C   UNL     1      43.371  -9.235  13.936  1.00  0.00     0.003 A 
ENDBRANCH  16  17
ENDBRANCH  13  16
ENDBRANCH   3  12
BRANCH   9  27
HETATM   27  C   UNL     1      41.217 -15.051   1.188  1.00  0.00     0.236 C 
BRANCH  27  28
HETATM   28  C   UNL     1      41.401 -16.529   1.557  1.00  0.00     0.240 C 
HETATM   29  N   UNL     1      42.712 -16.945   1.700  1.00  0.00    -0.326 N 
HETATM   30  H   UNL     1      43.431 -16.310   1.374  1.00  0.00     0.169 HD
HETATM   31  O   UNL     1      40.406 -17.230   1.731  1.00  0.00    -0.271 OA
BRANCH  29  32
HETATM   32  C   UNL     1      43.171 -18.173   2.224  1.00  0.00     0.035 A 
HETATM   33  C   UNL     1      43.547 -18.364   3.557  1.00  0.00     0.045 A 
HETATM   34  C   UNL     1      44.034 -19.606   4.002  1.00  0.00     0.050 A 
HETATM   35  C   UNL     1      44.143 -20.664   3.087  1.00  0.00     0.016 A 
HETATM   36  C   UNL     1      43.768 -20.483   1.758  1.00  0.00     0.003 A 
HETATM   37  C   UNL     1      43.285 -19.245   1.329  1.00  0.00     0.029 A 
BRANCH  34  38
HETATM   38  C   UNL     1      44.453 -19.810   5.437  1.00  0.00     0.417 C 
HETATM   39  F   UNL     1      45.380 -18.916   5.878  1.00  0.00    -0.166 F 
HETATM   40  F   UNL     1      43.405 -19.719   6.304  1.00  0.00    -0.166 F 
HETATM   41  F   UNL     1      44.998 -21.043   5.644  1.00  0.00    -0.166 F 
ENDBRANCH  34  38
ENDBRANCH  29  32
ENDBRANCH  27  28
ENDBRANCH   9  27
TORSDOF 7
ENDMDL
MODEL 10
REMARK VINA RESULT:      -9.0      5.066     10.018
REMARK  7 active torsions:
REMARK  status: ('A' for Active; 'I' for Inactive)
REMARK    1  A    between atoms: C_3  and  C_4 
REMARK       I    between atoms: C_4  and  N_5 
REMARK    2  A    between atoms: N_5  and  C_6 
REMARK    3  A    between atoms: C_6  and  C_7 
REMARK    4  A    between atoms: N_23  and  C_24 
REMARK    5  A    between atoms: C_24  and  C_25 
REMARK       I    between atoms: C_25  and  N_26 
REMARK    6  A    between atoms: N_26  and  C_27 
REMARK    7  A    between atoms: C_29  and  C_30 
ROOT
HETATM    1  C   UNL     1      40.128 -12.321   0.744  1.00  0.00     0.051 C 
HETATM    2  C   UNL     1      40.366 -11.444   1.938  1.00  0.00    -0.021 A 
HETATM    3  C   UNL     1      40.507 -10.058   1.885  1.00  0.00     0.081 A 
HETATM    4  S   UNL     1      40.698  -9.387   3.456  1.00  0.00    -0.063 SA
HETATM    5  C   UNL     1      40.622 -10.904   4.208  1.00  0.00     0.116 A 
HETATM    6  C   UNL     1      40.493 -11.926   3.295  1.00  0.00     0.075 A 
HETATM    7  C   UNL     1      40.482 -13.286   3.815  1.00  0.00     0.262 A 
HETATM    8  O   UNL     1      40.487 -14.279   3.095  1.00  0.00    -0.267 OA
HETATM    9  N   UNL     1      40.510 -13.363   5.208  1.00  0.00    -0.299 N 
HETATM   10  C   UNL     1      40.598 -12.230   5.997  1.00  0.00     0.214 A 
HETATM   11  N   UNL     1      40.686 -11.018   5.558  1.00  0.00    -0.235 NA
ENDROOT
BRANCH   3  12
HETATM   12  C   UNL     1      40.506  -9.188   0.704  1.00  0.00     0.259 C 
HETATM   13  N   UNL     1      41.731  -8.670   0.343  1.00  0.00    -0.354 N 
HETATM   14  H   UNL     1      42.540  -9.024   0.840  1.00  0.00     0.162 HD
HETATM   15  O   UNL     1      39.499  -8.934   0.045  1.00  0.00    -0.267 OA
BRANCH  13  16
HETATM   16  C   UNL     1      41.929  -7.925  -0.883  1.00  0.00     0.157 C 
BRANCH  16  17
HETATM   17  C   UNL     1      43.084  -8.412  -1.780  1.00  0.00     0.171 C 
HETATM   18  O   UNL     1      42.579  -9.037  -2.971  1.00  0.00    -0.339 OA
HETATM   19  C   UNL     1      42.504 -10.403  -2.893  1.00  0.00     0.102 A 
HETATM   20  C   UNL     1      43.013 -11.147  -1.827  1.00  0.00     0.102 A 
HETATM   21  C   UNL     1      41.840 -11.048  -3.936  1.00  0.00     0.039 A 
HETATM   22  O   UNL     1      43.646 -10.578  -0.754  1.00  0.00    -0.346 OA
HETATM   23  C   UNL     1      42.825 -12.527  -1.782  1.00  0.00     0.039 A 
HETATM   24  C   UNL     1      44.131  -9.273  -1.077  1.00  0.00     0.209 C 
HETATM   25  C   UNL     1      42.150 -13.170  -2.820  1.00  0.00     0.003 A 
HETATM   26  C   UNL     1      41.663 -12.432  -3.899  1.00  0.00     0.003 A 
ENDBRANCH  16  17
ENDBRANCH  13  16
ENDBRANCH   3  12
BRANCH   9  27
HETATM   27  C   UNL     1      40.392 -14.667   5.845  1.00  0.00     0.236 C 
BRANCH  27  28
HETATM   28  C   UNL     1      41.668 -15.519   5.849  1.00  0.00     0.240 C 
HETATM   29  N   UNL     1      41.485 -16.863   5.584  1.00  0.00    -0.326 N 
HETATM   30  H   UNL     1      40.531 -17.205   5.596  1.00  0.00     0.169 HD
HETATM   31  O   UNL     1      42.751 -14.971   6.048  1.00  0.00    -0.271 OA
BRANCH  29  32
HETATM   32  C   UNL     1      42.479 -17.831   5.325  1.00  0.00     0.035 A 
HETATM   33  C   UNL     1      42.795 -18.307   4.049  1.00  0.00     0.045 A 
HETATM   34  C   UNL     1      43.771 -19.304   3.868  1.00  0.00     0.050 A 
HETATM   35  C   UNL     1      44.432 -19.823   4.991  1.00  0.00     0.016 A 
HETATM   36  C   UNL     1      44.125 -19.353   6.265  1.00  0.00     0.003 A 
HETATM   37  C   UNL     1      43.155 -18.362   6.431  1.00  0.00     0.029 A 
BRANCH  34  38
HETATM   38  C   UNL     1      44.103 -19.829   2.492  1.00  0.00     0.417 C 
HETATM   39  F   UNL     1      45.228 -20.595   2.447  1.00  0.00    -0.166 F 
HETATM   40  F   UNL     1      43.106 -20.599   1.973  1.00  0.00    -0.166 F 
HETATM   41  F   UNL     1      44.302 -18.824   1.592  1.00  0.00    -0.166 F 
ENDBRANCH  34  38
ENDBRANCH  29  32
ENDBRANCH  27  28
ENDBRANCH   9  27
TORSDOF 7
ENDMDL
