MODEL 1
REMARK VINA RESULT:      -9.4      0.000      0.000
REMARK  9 active torsions:
REMARK  status: ('A' for Active; 'I' for Inactive)
REMARK       I    between atoms: C_2  and  N_3 
REMARK    1  A    between atoms: N_3  and  C_4 
REMARK    2  A    between atoms: C_7  and  O_8 
REMARK    3  A    between atoms: O_8  and  C_9 
REMARK    4  A    between atoms: C_9  and  C_10 
REMARK    5  A    between atoms: C_11  and  O_12 
REMARK    6  A    between atoms: C_16  and  C_17 
REMARK    7  A    between atoms: C_31  and  O_32 
REMARK    8  A    between atoms: O_32  and  C_33 
REMARK    9  A    between atoms: C_33  and  C_34 
ROOT
HETATM    1  C   UNL     1      39.900 -13.266   5.279  1.00  0.00     0.269 C 
HETATM    2  N   UNL     1      40.793 -12.940   6.454  1.00  0.00    -0.061 N 
HETATM    3  H   UNL     1      40.636 -13.661   7.165  1.00  0.00     0.278 HD
HETATM    4  H   UNL     1      40.492 -12.044   6.850  1.00  0.00     0.278 HD
HETATM    5  C   UNL     1      42.270 -12.889   6.136  1.00  0.00     0.238 C 
HETATM    6  C   UNL     1      42.778 -14.251   5.630  1.00  0.00     0.069 C 
HETATM    7  C   UNL     1      41.827 -14.831   4.640  1.00  0.00    -0.019 A 
HETATM    8  C   UNL     1      40.527 -14.378   4.513  1.00  0.00     0.052 A 
HETATM    9  N   UNL     1      39.911 -15.121   3.539  1.00  0.00    -0.356 N 
HETATM   10  H   UNL     1      38.961 -15.013   3.203  1.00  0.00     0.166 HD
HETATM   11  C   UNL     1      40.800 -16.042   3.029  1.00  0.00     0.043 A 
HETATM   12  C   UNL     1      42.018 -15.871   3.691  1.00  0.00     0.002 A 
HETATM   13  C   UNL     1      40.614 -17.006   2.034  1.00  0.00     0.033 A 
HETATM   14  C   UNL     1      41.716 -17.794   1.688  1.00  0.00     0.039 A 
HETATM   15  C   UNL     1      42.956 -17.622   2.302  1.00  0.00     0.070 A 
HETATM   16  C   UNL     1      43.112 -16.684   3.329  1.00  0.00     0.051 A 
ENDROOT
BRANCH   1  17
HETATM   17  C   UNL     1      39.585 -12.017   4.477  1.00  0.00    -0.021 A 
HETATM   18  C   UNL     1      38.571 -11.153   4.919  1.00  0.00     0.012 A 
HETATM   19  C   UNL     1      38.307  -9.951   4.251  1.00  0.00     0.038 A 
HETATM   20  C   UNL     1      39.050  -9.583   3.127  1.00  0.00     0.076 A 
HETATM   21  C   UNL     1      40.055 -10.441   2.650  1.00  0.00    -0.000 A 
HETATM   22  C   UNL     1      40.321 -11.642   3.340  1.00  0.00     0.021 A 
BRANCH  20  23
HETATM   23  O   UNL     1      38.890  -8.408   2.444  1.00  0.00    -0.355 OA
HETATM   24  C   UNL     1      37.934  -7.476   2.933  1.00  0.00     0.210 C 
ENDBRANCH  20  23
BRANCH  21  25
HETATM   25  C   UNL     1      40.906 -10.057   1.451  1.00  0.00     0.217 C 
BRANCH  25  26
HETATM   26  O   UNL     1      41.787 -11.137   1.119  1.00  0.00    -0.347 OA
BRANCH  26  27
HETATM   27  C   UNL     1      41.251 -12.112   0.321  1.00  0.00     0.069 A 
HETATM   28  C   UNL     1      40.312 -11.673  -0.613  1.00  0.00     0.039 A 
HETATM   29  C   UNL     1      39.700 -12.579  -1.488  1.00  0.00     0.032 A 
HETATM   30  C   UNL     1      40.006 -13.943  -1.431  1.00  0.00     0.034 A 
HETATM   31  C   UNL     1      40.933 -14.379  -0.483  1.00  0.00     0.032 A 
HETATM   32  C   UNL     1      41.551 -13.471   0.387  1.00  0.00     0.039 A 
BRANCH  30  33
HETATM   33  N   UNL     1      39.353 -14.795  -2.344  1.00  0.00    -0.328 N 
HETATM   34  C   UNL     1      39.912 -15.456  -3.425  1.00  0.00     0.218 C 
HETATM   35  C   UNL     1      38.891 -16.265  -4.184  1.00  0.00     0.117 C 
HETATM   36  O   UNL     1      41.083 -15.419  -3.786  1.00  0.00    -0.274 OA
HETATM   37  H   UNL     1      38.362 -14.935  -2.194  1.00  0.00     0.169 HD
ENDBRANCH  30  33
ENDBRANCH  26  27
ENDBRANCH  25  26
ENDBRANCH  21  25
ENDBRANCH   1  17
BRANCH  15  38
HETATM   38  O   UNL     1      43.949 -18.439   1.833  1.00  0.00    -0.347 OA
BRANCH  38  39
HETATM   39  C   UNL     1      43.596 -19.812   1.645  1.00  0.00     0.214 C 
BRANCH  39  40
HETATM   40  C   UNL     1      44.135 -20.633   2.791  1.00  0.00    -0.034 A 
HETATM   41  C   UNL     1      44.440 -20.028   4.020  1.00  0.00     0.009 A 
HETATM   42  C   UNL     1      44.887 -20.794   5.099  1.00  0.00     0.001 A 
HETATM   43  C   UNL     1      45.025 -22.173   4.963  1.00  0.00     0.000 A 
HETATM   44  C   UNL     1      44.716 -22.788   3.752  1.00  0.00     0.001 A 
HETATM   45  C   UNL     1      44.270 -22.024   2.671  1.00  0.00     0.009 A 
ENDBRANCH  39  40
ENDBRANCH  38  39
ENDBRANCH  15  38
TORSDOF 9
ENDMDL
MODEL 2
REMARK VINA RESULT:      -9.2      2.801      6.878
REMARK  9 active torsions:
REMARK  status: ('A' for Active; 'I' for Inactive)
REMARK       I    between atoms: C_2  and  N_3 
REMARK    1  A    between atoms: N_3  and  C_4 
REMARK    2  A    between atoms: C_7  and  O_8 
REMARK    3  A    between atoms: O_8  and  C_9 
REMARK    4  A    between atoms: C_9  and  C_10 
REMARK    5  A    between atoms: C_11  and  O_12 
REMARK    6  A    between atoms: C_16  and  C_17 
REMARK    7  A    between atoms: C_31  and  O_32 
REMARK    8  A    between atoms: O_32  and  C_33 
REMARK    9  A    between atoms: C_33  and  C_34 
ROOT
HETATM    1  C   UNL     1      38.752 -12.777   2.970  1.00  0.00     0.269 C 
HETATM    2  N   UNL     1      38.859 -11.271   3.036  1.00  0.00    -0.061 N 
HETATM    3  H   UNL     1      38.427 -10.974   3.916  1.00  0.00     0.278 HD
HETATM    4  H   UNL     1      38.306 -10.873   2.270  1.00  0.00     0.278 HD
HETATM    5  C   UNL     1      40.269 -10.730   2.983  1.00  0.00     0.238 C 
HETATM    6  C   UNL     1      41.103 -11.231   4.177  1.00  0.00     0.069 C 
HETATM    7  C   UNL     1      40.876 -12.686   4.402  1.00  0.00    -0.019 A 
HETATM    8  C   UNL     1      39.797 -13.358   3.858  1.00  0.00     0.052 A 
HETATM    9  N   UNL     1      39.861 -14.666   4.262  1.00  0.00    -0.356 N 
HETATM   10  H   UNL     1      39.222 -15.412   4.011  1.00  0.00     0.166 HD
HETATM   11  C   UNL     1      40.974 -14.850   5.055  1.00  0.00     0.043 A 
HETATM   12  C   UNL     1      41.640 -13.625   5.145  1.00  0.00     0.002 A 
HETATM   13  C   UNL     1      41.436 -16.006   5.690  1.00  0.00     0.033 A 
HETATM   14  C   UNL     1      42.629 -15.910   6.412  1.00  0.00     0.039 A 
HETATM   15  C   UNL     1      43.339 -14.712   6.490  1.00  0.00     0.070 A 
HETATM   16  C   UNL     1      42.837 -13.554   5.886  1.00  0.00     0.051 A 
ENDROOT
BRANCH   1  17
HETATM   17  C   UNL     1      38.779 -13.258   1.530  1.00  0.00    -0.021 A 
HETATM   18  C   UNL     1      37.821 -12.774   0.626  1.00  0.00     0.012 A 
HETATM   19  C   UNL     1      37.864 -13.131  -0.727  1.00  0.00     0.038 A 
HETATM   20  C   UNL     1      38.863 -13.978  -1.210  1.00  0.00     0.076 A 
HETATM   21  C   UNL     1      39.822 -14.495  -0.320  1.00  0.00    -0.000 A 
HETATM   22  C   UNL     1      39.776 -14.116   1.037  1.00  0.00     0.021 A 
BRANCH  20  23
HETATM   23  O   UNL     1      39.007 -14.340  -2.521  1.00  0.00    -0.355 OA
HETATM   24  C   UNL     1      37.857 -14.811  -3.213  1.00  0.00     0.210 C 
ENDBRANCH  20  23
BRANCH  21  25
HETATM   25  C   UNL     1      40.944 -15.390  -0.816  1.00  0.00     0.217 C 
BRANCH  25  26
HETATM   26  O   UNL     1      42.113 -15.189  -0.011  1.00  0.00    -0.347 OA
BRANCH  26  27
HETATM   27  C   UNL     1      42.363 -16.161   0.920  1.00  0.00     0.069 A 
HETATM   28  C   UNL     1      43.287 -15.822   1.908  1.00  0.00     0.039 A 
HETATM   29  C   UNL     1      43.619 -16.734   2.917  1.00  0.00     0.032 A 
HETATM   30  C   UNL     1      43.042 -18.008   2.944  1.00  0.00     0.034 A 
HETATM   31  C   UNL     1      42.131 -18.350   1.943  1.00  0.00     0.032 A 
HETATM   32  C   UNL     1      41.794 -17.433   0.938  1.00  0.00     0.039 A 
BRANCH  30  33
HETATM   33  N   UNL     1      43.421 -18.873   3.991  1.00  0.00    -0.328 N 
HETATM   34  C   UNL     1      44.365 -19.884   3.946  1.00  0.00     0.218 C 
HETATM   35  C   UNL     1      44.482 -20.609   5.263  1.00  0.00     0.117 C 
HETATM   36  O   UNL     1      45.048 -20.213   2.983  1.00  0.00    -0.274 OA
HETATM   37  H   UNL     1      42.943 -18.742   4.873  1.00  0.00     0.169 HD
ENDBRANCH  30  33
ENDBRANCH  26  27
ENDBRANCH  25  26
ENDBRANCH  21  25
ENDBRANCH   1  17
BRANCH  15  38
HETATM   38  O   UNL     1      44.508 -14.780   7.199  1.00  0.00    -0.347 OA
BRANCH  38  39
HETATM   39  C   UNL     1      45.396 -13.668   7.054  1.00  0.00     0.214 C 
BRANCH  39  40
HETATM   40  C   UNL     1      45.322 -12.799   8.287  1.00  0.00    -0.034 A 
HETATM   41  C   UNL     1      44.374 -13.062   9.288  1.00  0.00     0.009 A 
HETATM   42  C   UNL     1      44.340 -12.294  10.454  1.00  0.00     0.001 A 
HETATM   43  C   UNL     1      45.258 -11.262  10.635  1.00  0.00     0.000 A 
HETATM   44  C   UNL     1      46.210 -10.998   9.653  1.00  0.00     0.001 A 
HETATM   45  C   UNL     1      46.246 -11.764   8.486  1.00  0.00     0.009 A 
ENDBRANCH  39  40
ENDBRANCH  38  39
ENDBRANCH  15  38
TORSDOF 9
ENDMDL
MODEL 3
REMARK VINA RESULT:      -9.1      2.230      5.412
REMARK  9 active torsions:
REMARK  status: ('A' for Active; 'I' for Inactive)
REMARK       I    between atoms: C_2  and  N_3 
REMARK    1  A    between atoms: N_3  and  C_4 
REMARK    2  A    between atoms: C_7  and  O_8 
REMARK    3  A    between atoms: O_8  and  C_9 
REMARK    4  A    between atoms: C_9  and  C_10 
REMARK    5  A    between atoms: C_11  and  O_12 
REMARK    6  A    between atoms: C_16  and  C_17 
REMARK    7  A    between atoms: C_31  and  O_32 
REMARK    8  A    between atoms: O_32  and  C_33 
REMARK    9  A    between atoms: C_33  and  C_34 
ROOT
HETATM    1  C   UNL     1      40.283 -11.904   0.752  1.00  0.00     0.269 C 
HETATM    2  N   UNL     1      39.221 -12.116  -0.302  1.00  0.00    -0.061 N 
HETATM    3  H   UNL     1      39.700 -12.212  -1.202  1.00  0.00     0.278 HD
HETATM    4  H   UNL     1      38.640 -11.272  -0.349  1.00  0.00     0.278 HD
HETATM    5  C   UNL     1      38.346 -13.329  -0.088  1.00  0.00     0.238 C 
HETATM    6  C   UNL     1      39.175 -14.625  -0.109  1.00  0.00     0.069 C 
HETATM    7  C   UNL     1      40.423 -14.463   0.689  1.00  0.00    -0.019 A 
HETATM    8  C   UNL     1      40.911 -13.220   1.052  1.00  0.00     0.052 A 
HETATM    9  N   UNL     1      42.071 -13.408   1.757  1.00  0.00    -0.356 N 
HETATM   10  H   UNL     1      42.651 -12.688   2.174  1.00  0.00     0.166 HD
HETATM   11  C   UNL     1      42.335 -14.756   1.862  1.00  0.00     0.043 A 
HETATM   12  C   UNL     1      41.306 -15.444   1.214  1.00  0.00     0.002 A 
HETATM   13  C   UNL     1      43.402 -15.411   2.482  1.00  0.00     0.033 A 
HETATM   14  C   UNL     1      43.398 -16.809   2.463  1.00  0.00     0.039 A 
HETATM   15  C   UNL     1      42.366 -17.526   1.860  1.00  0.00     0.070 A 
HETATM   16  C   UNL     1      41.329 -16.854   1.203  1.00  0.00     0.051 A 
ENDROOT
BRANCH   1  17
HETATM   17  C   UNL     1      39.716 -11.163   1.950  1.00  0.00    -0.021 A 
HETATM   18  C   UNL     1      39.008  -9.968   1.748  1.00  0.00     0.012 A 
HETATM   19  C   UNL     1      38.402  -9.301   2.819  1.00  0.00     0.038 A 
HETATM   20  C   UNL     1      38.486  -9.812   4.116  1.00  0.00     0.076 A 
HETATM   21  C   UNL     1      39.208 -10.995   4.349  1.00  0.00    -0.000 A 
HETATM   22  C   UNL     1      39.802 -11.664   3.260  1.00  0.00     0.021 A 
BRANCH  20  23
HETATM   23  O   UNL     1      37.886  -9.251   5.210  1.00  0.00    -0.355 OA
HETATM   24  C   UNL     1      38.373  -7.996   5.669  1.00  0.00     0.210 C 
ENDBRANCH  20  23
BRANCH  21  25
HETATM   25  C   UNL     1      39.291 -11.598   5.741  1.00  0.00     0.217 C 
BRANCH  25  26
HETATM   26  O   UNL     1      39.175 -13.024   5.656  1.00  0.00    -0.347 OA
BRANCH  26  27
HETATM   27  C   UNL     1      40.350 -13.719   5.750  1.00  0.00     0.069 A 
HETATM   28  C   UNL     1      40.227 -15.109   5.749  1.00  0.00     0.039 A 
HETATM   29  C   UNL     1      41.361 -15.925   5.835  1.00  0.00     0.032 A 
HETATM   30  C   UNL     1      42.638 -15.362   5.940  1.00  0.00     0.034 A 
HETATM   31  C   UNL     1      42.755 -13.972   5.958  1.00  0.00     0.032 A 
HETATM   32  C   UNL     1      41.620 -13.155   5.865  1.00  0.00     0.039 A 
BRANCH  30  33
HETATM   33  N   UNL     1      43.734 -16.245   6.019  1.00  0.00    -0.328 N 
HETATM   34  C   UNL     1      44.058 -17.090   7.066  1.00  0.00     0.218 C 
HETATM   35  C   UNL     1      45.320 -17.871   6.794  1.00  0.00     0.117 C 
HETATM   36  O   UNL     1      43.447 -17.227   8.120  1.00  0.00    -0.274 OA
HETATM   37  H   UNL     1      44.357 -16.256   5.221  1.00  0.00     0.169 HD
ENDBRANCH  30  33
ENDBRANCH  26  27
ENDBRANCH  25  26
ENDBRANCH  21  25
ENDBRANCH   1  17
BRANCH  15  38
HETATM   38  O   UNL     1      42.477 -18.887   1.955  1.00  0.00    -0.347 OA
BRANCH  38  39
HETATM   39  C   UNL     1      43.775 -19.430   1.697  1.00  0.00     0.214 C 
BRANCH  39  40
HETATM   40  C   UNL     1      44.115 -20.451   2.755  1.00  0.00    -0.034 A 
HETATM   41  C   UNL     1      44.283 -21.802   2.414  1.00  0.00     0.009 A 
HETATM   42  C   UNL     1      44.651 -22.740   3.381  1.00  0.00     0.001 A 
HETATM   43  C   UNL     1      44.863 -22.335   4.697  1.00  0.00     0.000 A 
HETATM   44  C   UNL     1      44.710 -20.995   5.047  1.00  0.00     0.001 A 
HETATM   45  C   UNL     1      44.341 -20.056   4.081  1.00  0.00     0.009 A 
ENDBRANCH  39  40
ENDBRANCH  38  39
ENDBRANCH  15  38
TORSDOF 9
ENDMDL
MODEL 4
REMARK VINA RESULT:      -9.0      1.661      2.075
REMARK  9 active torsions:
REMARK  status: ('A' for Active; 'I' for Inactive)
REMARK       I    between atoms: C_2  and  N_3 
REMARK    1  A    between atoms: N_3  and  C_4 
REMARK    2  A    between atoms: C_7  and  O_8 
REMARK    3  A    between atoms: O_8  and  C_9 
REMARK    4  A    between atoms: C_9  and  C_10 
REMARK    5  A    between atoms: C_11  and  O_12 
REMARK    6  A    between atoms: C_16  and  C_17 
REMARK    7  A    between atoms: C_31  and  O_32 
REMARK    8  A    between atoms: O_32  and  C_33 
REMARK    9  A    between atoms: C_33  and  C_34 
ROOT
HETATM    1  C   UNL     1      39.813 -13.124   5.065  1.00  0.00     0.269 C 
HETATM    2  N   UNL     1      40.701 -12.965   6.278  1.00  0.00    -0.061 N 
HETATM    3  H   UNL     1      40.409 -13.669   6.963  1.00  0.00     0.278 HD
HETATM    4  H   UNL     1      40.524 -12.043   6.690  1.00  0.00     0.278 HD
HETATM    5  C   UNL     1      42.179 -13.133   6.011  1.00  0.00     0.238 C 
HETATM    6  C   UNL     1      42.493 -14.544   5.484  1.00  0.00     0.069 C 
HETATM    7  C   UNL     1      41.503 -14.949   4.446  1.00  0.00    -0.019 A 
HETATM    8  C   UNL     1      40.292 -14.300   4.288  1.00  0.00     0.052 A 
HETATM    9  N   UNL     1      39.608 -14.917   3.273  1.00  0.00    -0.356 N 
HETATM   10  H   UNL     1      38.698 -14.658   2.909  1.00  0.00     0.166 HD
HETATM   11  C   UNL     1      40.365 -15.952   2.768  1.00  0.00     0.043 A 
HETATM   12  C   UNL     1      41.569 -15.984   3.475  1.00  0.00     0.002 A 
HETATM   13  C   UNL     1      40.073 -16.852   1.740  1.00  0.00     0.033 A 
HETATM   14  C   UNL     1      41.055 -17.791   1.409  1.00  0.00     0.039 A 
HETATM   15  C   UNL     1      42.283 -17.825   2.068  1.00  0.00     0.070 A 
HETATM   16  C   UNL     1      42.540 -16.945   3.126  1.00  0.00     0.051 A 
ENDROOT
BRANCH   1  17
HETATM   17  C   UNL     1      39.721 -11.823   4.288  1.00  0.00    -0.021 A 
HETATM   18  C   UNL     1      40.808 -10.935   4.304  1.00  0.00     0.012 A 
HETATM   19  C   UNL     1      40.793  -9.765   3.535  1.00  0.00     0.038 A 
HETATM   20  C   UNL     1      39.694  -9.455   2.732  1.00  0.00     0.076 A 
HETATM   21  C   UNL     1      38.583 -10.316   2.715  1.00  0.00    -0.000 A 
HETATM   22  C   UNL     1      38.617 -11.498   3.483  1.00  0.00     0.021 A 
BRANCH  20  23
HETATM   23  O   UNL     1      39.615  -8.360   1.915  1.00  0.00    -0.355 OA
HETATM   24  C   UNL     1      40.824  -7.694   1.572  1.00  0.00     0.210 C 
ENDBRANCH  20  23
BRANCH  21  25
HETATM   25  C   UNL     1      37.385 -10.029   1.826  1.00  0.00     0.217 C 
BRANCH  25  26
HETATM   26  O   UNL     1      36.681 -11.247   1.557  1.00  0.00    -0.347 OA
BRANCH  26  27
HETATM   27  C   UNL     1      37.163 -11.990   0.513  1.00  0.00     0.069 A 
HETATM   28  C   UNL     1      37.522 -13.301   0.825  1.00  0.00     0.039 A 
HETATM   29  C   UNL     1      38.023 -14.157  -0.164  1.00  0.00     0.032 A 
HETATM   30  C   UNL     1      38.187 -13.708  -1.479  1.00  0.00     0.034 A 
HETATM   31  C   UNL     1      37.843 -12.390  -1.782  1.00  0.00     0.032 A 
HETATM   32  C   UNL     1      37.335 -11.536  -0.794  1.00  0.00     0.039 A 
BRANCH  30  33
HETATM   33  N   UNL     1      38.693 -14.626  -2.422  1.00  0.00    -0.328 N 
HETATM   34  C   UNL     1      38.016 -15.199  -3.485  1.00  0.00     0.218 C 
HETATM   35  C   UNL     1      38.888 -16.151  -4.265  1.00  0.00     0.117 C 
HETATM   36  O   UNL     1      36.848 -15.010  -3.802  1.00  0.00    -0.274 OA
HETATM   37  H   UNL     1      39.660 -14.900  -2.303  1.00  0.00     0.169 HD
ENDBRANCH  30  33
ENDBRANCH  26  27
ENDBRANCH  25  26
ENDBRANCH  21  25
ENDBRANCH   1  17
BRANCH  15  38
HETATM   38  O   UNL     1      43.158 -18.772   1.610  1.00  0.00    -0.347 OA
BRANCH  38  39
HETATM   39  C   UNL     1      44.433 -18.815   2.257  1.00  0.00     0.214 C 
BRANCH  39  40
HETATM   40  C   UNL     1      44.559 -20.100   3.040  1.00  0.00    -0.034 A 
HETATM   41  C   UNL     1      44.707 -20.072   4.435  1.00  0.00     0.009 A 
HETATM   42  C   UNL     1      44.769 -21.259   5.167  1.00  0.00     0.001 A 
HETATM   43  C   UNL     1      44.675 -22.486   4.513  1.00  0.00     0.000 A 
HETATM   44  C   UNL     1      44.517 -22.527   3.130  1.00  0.00     0.001 A 
HETATM   45  C   UNL     1      44.456 -21.341   2.395  1.00  0.00     0.009 A 
ENDBRANCH  39  40
ENDBRANCH  38  39
ENDBRANCH  15  38
TORSDOF 9
ENDMDL
MODEL 5
REMARK VINA RESULT:      -9.0      1.885      2.648
REMARK  9 active torsions:
REMARK  status: ('A' for Active; 'I' for Inactive)
REMARK       I    between atoms: C_2  and  N_3 
REMARK    1  A    between atoms: N_3  and  C_4 
REMARK    2  A    between atoms: C_7  and  O_8 
REMARK    3  A    between atoms: O_8  and  C_9 
REMARK    4  A    between atoms: C_9  and  C_10 
REMARK    5  A    between atoms: C_11  and  O_12 
REMARK    6  A    between atoms: C_16  and  C_17 
REMARK    7  A    between atoms: C_31  and  O_32 
REMARK    8  A    between atoms: O_32  and  C_33 
REMARK    9  A    between atoms: C_33  and  C_34 
ROOT
HETATM    1  C   UNL     1      39.160 -11.025   3.183  1.00  0.00     0.269 C 
HETATM    2  N   UNL     1      39.528 -10.422   4.519  1.00  0.00    -0.061 N 
HETATM    3  H   UNL     1      38.842 -10.754   5.203  1.00  0.00     0.278 HD
HETATM    4  H   UNL     1      39.430  -9.403   4.452  1.00  0.00     0.278 HD
HETATM    5  C   UNL     1      40.913 -10.771   5.015  1.00  0.00     0.238 C 
HETATM    6  C   UNL     1      41.063 -12.289   5.221  1.00  0.00     0.069 C 
HETATM    7  C   UNL     1      40.479 -13.036   4.071  1.00  0.00    -0.019 A 
HETATM    8  C   UNL     1      39.608 -12.445   3.174  1.00  0.00     0.052 A 
HETATM    9  N   UNL     1      39.238 -13.391   2.253  1.00  0.00    -0.356 N 
HETATM   10  H   UNL     1      38.625 -13.257   1.458  1.00  0.00     0.166 HD
HETATM   11  C   UNL     1      39.865 -14.584   2.541  1.00  0.00     0.043 A 
HETATM   12  C   UNL     1      40.665 -14.385   3.669  1.00  0.00     0.002 A 
HETATM   13  C   UNL     1      39.784 -15.815   1.885  1.00  0.00     0.033 A 
HETATM   14  C   UNL     1      40.568 -16.862   2.381  1.00  0.00     0.039 A 
HETATM   15  C   UNL     1      41.407 -16.686   3.481  1.00  0.00     0.070 A 
HETATM   16  C   UNL     1      41.440 -15.459   4.154  1.00  0.00     0.051 A 
ENDROOT
BRANCH   1  17
HETATM   17  C   UNL     1      39.680 -10.169   2.042  1.00  0.00    -0.021 A 
HETATM   18  C   UNL     1      38.961  -9.027   1.655  1.00  0.00     0.012 A 
HETATM   19  C   UNL     1      39.451  -8.170   0.663  1.00  0.00     0.038 A 
HETATM   20  C   UNL     1      40.670  -8.431   0.034  1.00  0.00     0.076 A 
HETATM   21  C   UNL     1      41.398  -9.580   0.386  1.00  0.00    -0.000 A 
HETATM   22  C   UNL     1      40.901 -10.428   1.397  1.00  0.00     0.021 A 
BRANCH  20  23
HETATM   23  O   UNL     1      41.243  -7.624  -0.910  1.00  0.00    -0.355 OA
HETATM   24  C   UNL     1      40.568  -7.465  -2.152  1.00  0.00     0.210 C 
ENDBRANCH  20  23
BRANCH  21  25
HETATM   25  C   UNL     1      42.745  -9.877  -0.252  1.00  0.00     0.217 C 
BRANCH  25  26
HETATM   26  O   UNL     1      43.076 -11.258  -0.059  1.00  0.00    -0.347 OA
BRANCH  26  27
HETATM   27  C   UNL     1      42.499 -12.132  -0.940  1.00  0.00     0.069 A 
HETATM   28  C   UNL     1      41.878 -13.241  -0.364  1.00  0.00     0.039 A 
HETATM   29  C   UNL     1      41.248 -14.201  -1.166  1.00  0.00     0.032 A 
HETATM   30  C   UNL     1      41.243 -14.074  -2.559  1.00  0.00     0.034 A 
HETATM   31  C   UNL     1      41.881 -12.972  -3.131  1.00  0.00     0.032 A 
HETATM   32  C   UNL     1      42.505 -12.008  -2.328  1.00  0.00     0.039 A 
BRANCH  30  33
HETATM   33  N   UNL     1      40.587 -15.077  -3.302  1.00  0.00    -0.328 N 
HETATM   34  C   UNL     1      39.246 -15.131  -3.640  1.00  0.00     0.218 C 
HETATM   35  C   UNL     1      38.910 -16.372  -4.428  1.00  0.00     0.117 C 
HETATM   36  O   UNL     1      38.380 -14.312  -3.355  1.00  0.00    -0.274 OA
HETATM   37  H   UNL     1      41.164 -15.847  -3.618  1.00  0.00     0.169 HD
ENDBRANCH  30  33
ENDBRANCH  26  27
ENDBRANCH  25  26
ENDBRANCH  21  25
ENDBRANCH   1  17
BRANCH  15  38
HETATM   38  O   UNL     1      42.141 -17.787   3.828  1.00  0.00    -0.347 OA
BRANCH  38  39
HETATM   39  C   UNL     1      43.451 -17.872   3.261  1.00  0.00     0.214 C 
BRANCH  39  40
HETATM   40  C   UNL     1      43.816 -19.322   3.047  1.00  0.00    -0.034 A 
HETATM   41  C   UNL     1      44.509 -20.036   4.036  1.00  0.00     0.009 A 
HETATM   42  C   UNL     1      44.800 -21.390   3.864  1.00  0.00     0.001 A 
HETATM   43  C   UNL     1      44.391 -22.048   2.706  1.00  0.00     0.000 A 
HETATM   44  C   UNL     1      43.692 -21.353   1.721  1.00  0.00     0.001 A 
HETATM   45  C   UNL     1      43.402 -19.998   1.890  1.00  0.00     0.009 A 
ENDBRANCH  39  40
ENDBRANCH  38  39
ENDBRANCH  15  38
TORSDOF 9
ENDMDL
MODEL 6
REMARK VINA RESULT:      -8.9      2.686      7.731
REMARK  9 active torsions:
REMARK  status: ('A' for Active; 'I' for Inactive)
REMARK       I    between atoms: C_2  and  N_3 
REMARK    1  A    between atoms: N_3  and  C_4 
REMARK    2  A    between atoms: C_7  and  O_8 
REMARK    3  A    between atoms: O_8  and  C_9 
REMARK    4  A    between atoms: C_9  and  C_10 
REMARK    5  A    between atoms: C_11  and  O_12 
REMARK    6  A    between atoms: C_16  and  C_17 
REMARK    7  A    between atoms: C_31  and  O_32 
REMARK    8  A    between atoms: O_32  and  C_33 
REMARK    9  A    between atoms: C_33  and  C_34 
ROOT
HETATM    1  C   UNL     1      40.510 -12.391   4.860  1.00  0.00     0.269 C 
HETATM    2  N   UNL     1      39.540 -13.507   5.176  1.00  0.00    -0.061 N 
HETATM    3  H   UNL     1      38.622 -13.220   4.822  1.00  0.00     0.278 HD
HETATM    4  H   UNL     1      39.466 -13.592   6.195  1.00  0.00     0.278 HD
HETATM    5  C   UNL     1      39.894 -14.847   4.573  1.00  0.00     0.238 C 
HETATM    6  C   UNL     1      39.917 -14.778   3.036  1.00  0.00     0.069 C 
HETATM    7  C   UNL     1      40.626 -13.550   2.576  1.00  0.00    -0.019 A 
HETATM    8  C   UNL     1      40.867 -12.479   3.417  1.00  0.00     0.052 A 
HETATM    9  N   UNL     1      41.514 -11.509   2.696  1.00  0.00    -0.356 N 
HETATM   10  H   UNL     1      41.842 -10.614   3.041  1.00  0.00     0.166 HD
HETATM   11  C   UNL     1      41.700 -11.943   1.402  1.00  0.00     0.043 A 
HETATM   12  C   UNL     1      41.167 -13.230   1.303  1.00  0.00     0.002 A 
HETATM   13  C   UNL     1      42.302 -11.293   0.321  1.00  0.00     0.033 A 
HETATM   14  C   UNL     1      42.385 -11.994  -0.886  1.00  0.00     0.039 A 
HETATM   15  C   UNL     1      41.899 -13.296  -1.008  1.00  0.00     0.070 A 
HETATM   16  C   UNL     1      41.258 -13.913   0.072  1.00  0.00     0.051 A 
ENDROOT
BRANCH   1  17
HETATM   17  C   UNL     1      41.683 -12.406   5.824  1.00  0.00    -0.021 A 
HETATM   18  C   UNL     1      41.770 -11.417   6.816  1.00  0.00     0.012 A 
HETATM   19  C   UNL     1      42.792 -11.446   7.773  1.00  0.00     0.038 A 
HETATM   20  C   UNL     1      43.749 -12.463   7.763  1.00  0.00     0.076 A 
HETATM   21  C   UNL     1      43.698 -13.452   6.766  1.00  0.00    -0.000 A 
HETATM   22  C   UNL     1      42.656 -13.420   5.818  1.00  0.00     0.021 A 
BRANCH  20  23
HETATM   23  O   UNL     1      44.751 -12.593   8.686  1.00  0.00    -0.355 OA
HETATM   24  C   UNL     1      44.510 -12.119  10.005  1.00  0.00     0.210 C 
ENDBRANCH  20  23
BRANCH  21  25
HETATM   25  C   UNL     1      44.701 -14.593   6.746  1.00  0.00     0.217 C 
BRANCH  25  26
HETATM   26  O   UNL     1      44.087 -15.785   7.252  1.00  0.00    -0.347 OA
BRANCH  26  27
HETATM   27  C   UNL     1      44.004 -16.828   6.369  1.00  0.00     0.069 A 
HETATM   28  C   UNL     1      45.080 -17.716   6.388  1.00  0.00     0.039 A 
HETATM   29  C   UNL     1      45.104 -18.824   5.532  1.00  0.00     0.032 A 
HETATM   30  C   UNL     1      44.057 -19.052   4.632  1.00  0.00     0.034 A 
HETATM   31  C   UNL     1      42.992 -18.151   4.605  1.00  0.00     0.032 A 
HETATM   32  C   UNL     1      42.965 -17.046   5.466  1.00  0.00     0.039 A 
BRANCH  30  33
HETATM   33  N   UNL     1      44.147 -20.189   3.803  1.00  0.00    -0.328 N 
HETATM   34  C   UNL     1      43.964 -20.246   2.432  1.00  0.00     0.218 C 
HETATM   35  C   UNL     1      44.124 -21.648   1.897  1.00  0.00     0.117 C 
HETATM   36  O   UNL     1      43.691 -19.314   1.685  1.00  0.00    -0.274 OA
HETATM   37  H   UNL     1      44.364 -21.063   4.266  1.00  0.00     0.169 HD
ENDBRANCH  30  33
ENDBRANCH  26  27
ENDBRANCH  25  26
ENDBRANCH  21  25
ENDBRANCH   1  17
BRANCH  15  38
HETATM   38  O   UNL     1      42.085 -13.868  -2.237  1.00  0.00    -0.347 OA
BRANCH  38  39
HETATM   39  C   UNL     1      41.384 -13.260  -3.326  1.00  0.00     0.214 C 
BRANCH  39  40
HETATM   40  C   UNL     1      40.035 -13.918  -3.487  1.00  0.00    -0.034 A 
HETATM   41  C   UNL     1      39.940 -15.290  -3.768  1.00  0.00     0.009 A 
HETATM   42  C   UNL     1      38.693 -15.911  -3.864  1.00  0.00     0.001 A 
HETATM   43  C   UNL     1      37.529 -15.170  -3.671  1.00  0.00     0.000 A 
HETATM   44  C   UNL     1      37.610 -13.810  -3.381  1.00  0.00     0.001 A 
HETATM   45  C   UNL     1      38.856 -13.186  -3.286  1.00  0.00     0.009 A 
ENDBRANCH  39  40
ENDBRANCH  38  39
ENDBRANCH  15  38
TORSDOF 9
ENDMDL
MODEL 7
REMARK VINA RESULT:      -8.8      0.868      1.388
REMARK  9 active torsions:
REMARK  status: ('A' for Active; 'I' for Inactive)
REMARK       I    between atoms: C_2  and  N_3 
REMARK    1  A    between atoms: N_3  and  C_4 
REMARK    2  A    between atoms: C_7  and  O_8 
REMARK    3  A    between atoms: O_8  and  C_9 
REMARK    4  A    between atoms: C_9  and  C_10 
REMARK    5  A    between atoms: C_11  and  O_12 
REMARK    6  A    between atoms: C_16  and  C_17 
REMARK    7  A    between atoms: C_31  and  O_32 
REMARK    8  A    between atoms: O_32  and  C_33 
REMARK    9  A    between atoms: C_33  and  C_34 
ROOT
HETATM    1  C   UNL     1      39.234 -12.326   4.894  1.00  0.00     0.269 C 
HETATM    2  N   UNL     1      39.902 -11.857   6.167  1.00  0.00    -0.061 N 
HETATM    3  H   UNL     1      39.597 -12.483   6.918  1.00  0.00     0.278 HD
HETATM    4  H   UNL     1      39.554 -10.918   6.387  1.00  0.00     0.278 HD
HETATM    5  C   UNL     1      41.412 -11.848   6.127  1.00  0.00     0.238 C 
HETATM    6  C   UNL     1      41.972 -13.263   5.896  1.00  0.00     0.069 C 
HETATM    7  C   UNL     1      41.207 -13.961   4.823  1.00  0.00    -0.019 A 
HETATM    8  C   UNL     1      39.965 -13.526   4.400  1.00  0.00     0.052 A 
HETATM    9  N   UNL     1      39.522 -14.383   3.426  1.00  0.00    -0.356 N 
HETATM   10  H   UNL     1      38.654 -14.317   2.908  1.00  0.00     0.166 HD
HETATM   11  C   UNL     1      40.467 -15.362   3.209  1.00  0.00     0.043 A 
HETATM   12  C   UNL     1      41.545 -15.112   4.062  1.00  0.00     0.002 A 
HETATM   13  C   UNL     1      40.446 -16.442   2.323  1.00  0.00     0.033 A 
HETATM   14  C   UNL     1      41.572 -17.269   2.289  1.00  0.00     0.039 A 
HETATM   15  C   UNL     1      42.681 -17.024   3.098  1.00  0.00     0.070 A 
HETATM   16  C   UNL     1      42.666 -15.965   4.013  1.00  0.00     0.051 A 
ENDROOT
BRANCH   1  17
HETATM   17  C   UNL     1      39.105 -11.186   3.900  1.00  0.00    -0.021 A 
HETATM   18  C   UNL     1      38.018 -10.303   4.003  1.00  0.00     0.012 A 
HETATM   19  C   UNL     1      37.910  -9.194   3.156  1.00  0.00     0.038 A 
HETATM   20  C   UNL     1      38.883  -8.939   2.188  1.00  0.00     0.076 A 
HETATM   21  C   UNL     1      39.969  -9.820   2.049  1.00  0.00    -0.000 A 
HETATM   22  C   UNL     1      40.075 -10.925   2.917  1.00  0.00     0.021 A 
BRANCH  20  23
HETATM   23  O   UNL     1      38.879  -7.855   1.352  1.00  0.00    -0.355 OA
HETATM   24  C   UNL     1      37.898  -7.809   0.323  1.00  0.00     0.210 C 
ENDBRANCH  20  23
BRANCH  21  25
HETATM   25  C   UNL     1      41.065  -9.554   1.030  1.00  0.00     0.217 C 
BRANCH  25  26
HETATM   26  O   UNL     1      41.771 -10.770   0.752  1.00  0.00    -0.347 OA
BRANCH  26  27
HETATM   27  C   UNL     1      41.138 -11.640  -0.094  1.00  0.00     0.069 A 
HETATM   28  C   UNL     1      41.244 -12.989   0.244  1.00  0.00     0.039 A 
HETATM   29  C   UNL     1      40.634 -13.971  -0.545  1.00  0.00     0.032 A 
HETATM   30  C   UNL     1      39.918 -13.619  -1.695  1.00  0.00     0.034 A 
HETATM   31  C   UNL     1      39.829 -12.269  -2.038  1.00  0.00     0.032 A 
HETATM   32  C   UNL     1      40.434 -11.286  -1.244  1.00  0.00     0.039 A 
BRANCH  30  33
HETATM   33  N   UNL     1      39.327 -14.661  -2.439  1.00  0.00    -0.328 N 
HETATM   34  C   UNL     1      39.928 -15.450  -3.405  1.00  0.00     0.218 C 
HETATM   35  C   UNL     1      38.967 -16.451  -3.996  1.00  0.00     0.117 C 
HETATM   36  O   UNL     1      41.089 -15.387  -3.790  1.00  0.00    -0.274 OA
HETATM   37  H   UNL     1      38.350 -14.847  -2.247  1.00  0.00     0.169 HD
ENDBRANCH  30  33
ENDBRANCH  26  27
ENDBRANCH  25  26
ENDBRANCH  21  25
ENDBRANCH   1  17
BRANCH  15  38
HETATM   38  O   UNL     1      43.723 -17.895   2.927  1.00  0.00    -0.347 OA
BRANCH  38  39
HETATM   39  C   UNL     1      44.240 -18.496   4.118  1.00  0.00     0.214 C 
BRANCH  39  40
HETATM   40  C   UNL     1      44.423 -19.978   3.896  1.00  0.00    -0.034 A 
HETATM   41  C   UNL     1      44.757 -20.823   4.966  1.00  0.00     0.009 A 
HETATM   42  C   UNL     1      44.874 -22.201   4.774  1.00  0.00     0.001 A 
HETATM   43  C   UNL     1      44.648 -22.750   3.514  1.00  0.00     0.000 A 
HETATM   44  C   UNL     1      44.306 -21.924   2.446  1.00  0.00     0.001 A 
HETATM   45  C   UNL     1      44.190 -20.545   2.635  1.00  0.00     0.009 A 
ENDBRANCH  39  40
ENDBRANCH  38  39
ENDBRANCH  15  38
TORSDOF 9
ENDMDL
MODEL 8
REMARK VINA RESULT:      -8.8      2.013      5.271
REMARK  9 active torsions:
REMARK  status: ('A' for Active; 'I' for Inactive)
REMARK       I    between atoms: C_2  and  N_3 
REMARK    1  A    between atoms: N_3  and  C_4 
REMARK    2  A    between atoms: C_7  and  O_8 
REMARK    3  A    between atoms: O_8  and  C_9 
REMARK    4  A    between atoms: C_9  and  C_10 
REMARK    5  A    between atoms: C_11  and  O_12 
REMARK    6  A    between atoms: C_16  and  C_17 
REMARK    7  A    between atoms: C_31  and  O_32 
REMARK    8  A    between atoms: O_32  and  C_33 
REMARK    9  A    between atoms: C_33  and  C_34 
ROOT
HETATM    1  C   UNL     1      40.998 -12.273  -0.877  1.00  0.00     0.269 C 
HETATM    2  N   UNL     1      40.633 -12.681  -2.286  1.00  0.00    -0.061 N 
HETATM    3  H   UNL     1      41.508 -12.804  -2.804  1.00  0.00     0.278 HD
HETATM    4  H   UNL     1      40.121 -11.908  -2.724  1.00  0.00     0.278 HD
HETATM    5  C   UNL     1      39.826 -13.955  -2.390  1.00  0.00     0.238 C 
HETATM    6  C   UNL     1      40.607 -15.156  -1.829  1.00  0.00     0.069 C 
HETATM    7  C   UNL     1      41.265 -14.800  -0.540  1.00  0.00    -0.019 A 
HETATM    8  C   UNL     1      41.443 -13.488  -0.141  1.00  0.00     0.052 A 
HETATM    9  N   UNL     1      42.088 -13.495   1.069  1.00  0.00    -0.356 N 
HETATM   10  H   UNL     1      42.341 -12.688   1.627  1.00  0.00     0.166 HD
HETATM   11  C   UNL     1      42.322 -14.796   1.460  1.00  0.00     0.043 A 
HETATM   12  C   UNL     1      41.799 -15.638   0.475  1.00  0.00     0.002 A 
HETATM   13  C   UNL     1      42.951 -15.283   2.608  1.00  0.00     0.033 A 
HETATM   14  C   UNL     1      43.019 -16.671   2.765  1.00  0.00     0.039 A 
HETATM   15  C   UNL     1      42.472 -17.539   1.821  1.00  0.00     0.070 A 
HETATM   16  C   UNL     1      41.887 -17.034   0.654  1.00  0.00     0.051 A 
ENDROOT
BRANCH   1  17
HETATM   17  C   UNL     1      39.867 -11.495  -0.229  1.00  0.00    -0.021 A 
HETATM   18  C   UNL     1      39.007 -10.732  -1.035  1.00  0.00     0.012 A 
HETATM   19  C   UNL     1      37.905 -10.068  -0.483  1.00  0.00     0.038 A 
HETATM   20  C   UNL     1      37.635 -10.150   0.884  1.00  0.00     0.076 A 
HETATM   21  C   UNL     1      38.494 -10.888   1.717  1.00  0.00    -0.000 A 
HETATM   22  C   UNL     1      39.592 -11.564   1.147  1.00  0.00     0.021 A 
BRANCH  20  23
HETATM   23  O   UNL     1      36.557  -9.572   1.498  1.00  0.00    -0.355 OA
HETATM   24  C   UNL     1      35.269 -10.115   1.233  1.00  0.00     0.210 C 
ENDBRANCH  20  23
BRANCH  21  25
HETATM   25  C   UNL     1      38.211 -11.029   3.203  1.00  0.00     0.217 C 
BRANCH  25  26
HETATM   26  O   UNL     1      39.358 -10.613   3.954  1.00  0.00    -0.347 OA
BRANCH  26  27
HETATM   27  C   UNL     1      40.094 -11.622   4.515  1.00  0.00     0.069 A 
HETATM   28  C   UNL     1      39.379 -12.509   5.320  1.00  0.00     0.039 A 
HETATM   29  C   UNL     1      40.025 -13.584   5.943  1.00  0.00     0.032 A 
HETATM   30  C   UNL     1      41.401 -13.779   5.783  1.00  0.00     0.034 A 
HETATM   31  C   UNL     1      42.115 -12.878   4.991  1.00  0.00     0.032 A 
HETATM   32  C   UNL     1      41.467 -11.807   4.362  1.00  0.00     0.039 A 
BRANCH  30  33
HETATM   33  N   UNL     1      41.983 -14.884   6.437  1.00  0.00    -0.328 N 
HETATM   34  C   UNL     1      41.694 -16.224   6.242  1.00  0.00     0.218 C 
HETATM   35  C   UNL     1      42.511 -17.116   7.143  1.00  0.00     0.117 C 
HETATM   36  O   UNL     1      40.877 -16.696   5.460  1.00  0.00    -0.274 OA
HETATM   37  H   UNL     1      42.687 -14.671   7.132  1.00  0.00     0.169 HD
ENDBRANCH  30  33
ENDBRANCH  26  27
ENDBRANCH  25  26
ENDBRANCH  21  25
ENDBRANCH   1  17
BRANCH  15  38
HETATM   38  O   UNL     1      42.580 -18.868   2.128  1.00  0.00    -0.347 OA
BRANCH  38  39
HETATM   39  C   UNL     1      43.819 -19.494   1.781  1.00  0.00     0.214 C 
BRANCH  39  40
HETATM   40  C   UNL     1      44.226 -20.450   2.877  1.00  0.00    -0.034 A 
HETATM   41  C   UNL     1      44.417 -19.990   4.189  1.00  0.00     0.009 A 
HETATM   42  C   UNL     1      44.740 -20.881   5.214  1.00  0.00     0.001 A 
HETATM   43  C   UNL     1      44.865 -22.241   4.941  1.00  0.00     0.000 A 
HETATM   44  C   UNL     1      44.667 -22.712   3.645  1.00  0.00     0.001 A 
HETATM   45  C   UNL     1      44.345 -21.822   2.617  1.00  0.00     0.009 A 
ENDBRANCH  39  40
ENDBRANCH  38  39
ENDBRANCH  15  38
TORSDOF 9
ENDMDL
MODEL 9
REMARK VINA RESULT:      -8.7      4.177      8.901
REMARK  9 active torsions:
REMARK  status: ('A' for Active; 'I' for Inactive)
REMARK       I    between atoms: C_2  and  N_3 
REMARK    1  A    between atoms: N_3  and  C_4 
REMARK    2  A    between atoms: C_7  and  O_8 
REMARK    3  A    between atoms: O_8  and  C_9 
REMARK    4  A    between atoms: C_9  and  C_10 
REMARK    5  A    between atoms: C_11  and  O_12 
REMARK    6  A    between atoms: C_16  and  C_17 
REMARK    7  A    between atoms: C_31  and  O_32 
REMARK    8  A    between atoms: O_32  and  C_33 
REMARK    9  A    between atoms: C_33  and  C_34 
ROOT
HETATM    1  C   UNL     1      39.866 -10.408   4.678  1.00  0.00     0.269 C 
HETATM    2  N   UNL     1      40.380  -9.122   4.073  1.00  0.00    -0.061 N 
HETATM    3  H   UNL     1      39.663  -8.406   4.226  1.00  0.00     0.278 HD
HETATM    4  H   UNL     1      40.473  -9.255   3.061  1.00  0.00     0.278 HD
HETATM    5  C   UNL     1      41.687  -8.627   4.647  1.00  0.00     0.238 C 
HETATM    6  C   UNL     1      41.556  -8.322   6.150  1.00  0.00     0.069 C 
HETATM    7  C   UNL     1      40.809  -9.409   6.843  1.00  0.00    -0.019 A 
HETATM    8  C   UNL     1      40.039 -10.330   6.155  1.00  0.00     0.052 A 
HETATM    9  N   UNL     1      39.472 -11.179   7.070  1.00  0.00    -0.356 N 
HETATM   10  H   UNL     1      38.871 -11.971   6.872  1.00  0.00     0.166 HD
HETATM   11  C   UNL     1      39.871 -10.823   8.339  1.00  0.00     0.043 A 
HETATM   12  C   UNL     1      40.727  -9.724   8.225  1.00  0.00     0.002 A 
HETATM   13  C   UNL     1      39.542 -11.394   9.572  1.00  0.00     0.033 A 
HETATM   14  C   UNL     1      40.129 -10.842  10.714  1.00  0.00     0.039 A 
HETATM   15  C   UNL     1      41.017  -9.770  10.632  1.00  0.00     0.070 A 
HETATM   16  C   UNL     1      41.300  -9.181   9.394  1.00  0.00     0.051 A 
ENDROOT
BRANCH   1  17
HETATM   17  C   UNL     1      40.504 -11.613   4.009  1.00  0.00    -0.021 A 
HETATM   18  C   UNL     1      39.951 -12.111   2.819  1.00  0.00     0.012 A 
HETATM   19  C   UNL     1      40.560 -13.168   2.131  1.00  0.00     0.038 A 
HETATM   20  C   UNL     1      41.733 -13.751   2.613  1.00  0.00     0.076 A 
HETATM   21  C   UNL     1      42.294 -13.285   3.815  1.00  0.00    -0.000 A 
HETATM   22  C   UNL     1      41.680 -12.211   4.491  1.00  0.00     0.021 A 
BRANCH  20  23
HETATM   23  O   UNL     1      42.417 -14.754   1.982  1.00  0.00    -0.355 OA
HETATM   24  C   UNL     1      41.894 -15.249   0.755  1.00  0.00     0.210 C 
ENDBRANCH  20  23
BRANCH  21  25
HETATM   25  C   UNL     1      43.590 -13.872   4.351  1.00  0.00     0.217 C 
BRANCH  25  26
HETATM   26  O   UNL     1      43.360 -14.447   5.644  1.00  0.00    -0.347 OA
BRANCH  26  27
HETATM   27  C   UNL     1      43.667 -15.776   5.762  1.00  0.00     0.069 A 
HETATM   28  C   UNL     1      43.115 -16.607   4.787  1.00  0.00     0.039 A 
HETATM   29  C   UNL     1      43.363 -17.985   4.803  1.00  0.00     0.032 A 
HETATM   30  C   UNL     1      44.157 -18.555   5.804  1.00  0.00     0.034 A 
HETATM   31  C   UNL     1      44.693 -17.722   6.786  1.00  0.00     0.032 A 
HETATM   32  C   UNL     1      44.450 -16.341   6.766  1.00  0.00     0.039 A 
BRANCH  30  33
HETATM   33  N   UNL     1      44.367 -19.948   5.754  1.00  0.00    -0.328 N 
HETATM   34  C   UNL     1      44.779 -20.698   4.666  1.00  0.00     0.218 C 
HETATM   35  C   UNL     1      44.873 -22.167   4.993  1.00  0.00     0.117 C 
HETATM   36  O   UNL     1      45.040 -20.285   3.542  1.00  0.00    -0.274 OA
HETATM   37  H   UNL     1      44.190 -20.457   6.611  1.00  0.00     0.169 HD
ENDBRANCH  30  33
ENDBRANCH  26  27
ENDBRANCH  25  26
ENDBRANCH  21  25
ENDBRANCH   1  17
BRANCH  15  38
HETATM   38  O   UNL     1      41.541  -9.362  11.828  1.00  0.00    -0.347 OA
BRANCH  38  39
HETATM   39  C   UNL     1      42.936  -9.042  11.827  1.00  0.00     0.214 C 
BRANCH  39  40
HETATM   40  C   UNL     1      43.737 -10.281  11.504  1.00  0.00    -0.034 A 
HETATM   41  C   UNL     1      43.458 -11.497  12.146  1.00  0.00     0.009 A 
HETATM   42  C   UNL     1      44.161 -12.656  11.810  1.00  0.00     0.001 A 
HETATM   43  C   UNL     1      45.143 -12.613  10.824  1.00  0.00     0.000 A 
HETATM   44  C   UNL     1      45.423 -11.414  10.172  1.00  0.00     0.001 A 
HETATM   45  C   UNL     1      44.722 -10.253  10.507  1.00  0.00     0.009 A 
ENDBRANCH  39  40
ENDBRANCH  38  39
ENDBRANCH  15  38
TORSDOF 9
ENDMDL
MODEL 10
REMARK VINA RESULT:      -8.7      1.967      5.026
REMARK  9 active torsions:
REMARK  status: ('A' for Active; 'I' for Inactive)
REMARK       I    between atoms: C_2  and  N_3 
REMARK    1  A    between atoms: N_3  and  C_4 
REMARK    2  A    between atoms: C_7  and  O_8 
REMARK    3  A    between atoms: O_8  and  C_9 
REMARK    4  A    between atoms: C_9  and  C_10 
REMARK    5  A    between atoms: C_11  and  O_12 
REMARK    6  A    between atoms: C_16  and  C_17 
REMARK    7  A    between atoms: C_31  and  O_32 
REMARK    8  A    between atoms: O_32  and  C_33 
REMARK    9  A    between atoms: C_33  and  C_34 
ROOT
HETATM    1  C   UNL     1      39.624 -14.185  -0.981  1.00  0.00     0.269 C 
HETATM    2  N   UNL     1      38.190 -14.201  -0.504  1.00  0.00    -0.061 N 
HETATM    3  H   UNL     1      37.771 -15.077  -0.829  1.00  0.00     0.278 HD
HETATM    4  H   UNL     1      37.689 -13.431  -0.960  1.00  0.00     0.278 HD
HETATM    5  C   UNL     1      38.017 -14.109   0.994  1.00  0.00     0.238 C 
HETATM    6  C   UNL     1      38.674 -15.305   1.705  1.00  0.00     0.069 C 
HETATM    7  C   UNL     1      40.022 -15.581   1.132  1.00  0.00    -0.019 A 
HETATM    8  C   UNL     1      40.420 -15.075  -0.092  1.00  0.00     0.052 A 
HETATM    9  N   UNL     1      41.692 -15.521  -0.343  1.00  0.00    -0.356 N 
HETATM   10  H   UNL     1      42.263 -15.304  -1.152  1.00  0.00     0.166 HD
HETATM   11  C   UNL     1      42.123 -16.302   0.707  1.00  0.00     0.043 A 
HETATM   12  C   UNL     1      41.099 -16.343   1.657  1.00  0.00     0.002 A 
HETATM   13  C   UNL     1      43.339 -16.968   0.884  1.00  0.00     0.033 A 
HETATM   14  C   UNL     1      43.521 -17.668   2.080  1.00  0.00     0.039 A 
HETATM   15  C   UNL     1      42.535 -17.696   3.065  1.00  0.00     0.070 A 
HETATM   16  C   UNL     1      41.306 -17.063   2.852  1.00  0.00     0.051 A 
ENDROOT
BRANCH   1  17
HETATM   17  C   UNL     1      40.136 -12.761  -1.107  1.00  0.00    -0.021 A 
HETATM   18  C   UNL     1      40.769 -12.361  -2.294  1.00  0.00     0.012 A 
HETATM   19  C   UNL     1      41.181 -11.035  -2.478  1.00  0.00     0.038 A 
HETATM   20  C   UNL     1      40.970 -10.079  -1.482  1.00  0.00     0.076 A 
HETATM   21  C   UNL     1      40.360 -10.460  -0.274  1.00  0.00    -0.000 A 
HETATM   22  C   UNL     1      39.937 -11.794  -0.108  1.00  0.00     0.021 A 
BRANCH  20  23
HETATM   23  O   UNL     1      41.298  -8.756  -1.597  1.00  0.00    -0.355 OA
HETATM   24  C   UNL     1      42.239  -8.385  -2.597  1.00  0.00     0.210 C 
ENDBRANCH  20  23
BRANCH  21  25
HETATM   25  C   UNL     1      40.084  -9.439   0.817  1.00  0.00     0.217 C 
BRANCH  25  26
HETATM   26  O   UNL     1      40.956  -9.674   1.929  1.00  0.00    -0.347 OA
BRANCH  26  27
HETATM   27  C   UNL     1      40.660 -10.772   2.691  1.00  0.00     0.069 A 
HETATM   28  C   UNL     1      41.633 -11.771   2.706  1.00  0.00     0.039 A 
HETATM   29  C   UNL     1      41.443 -12.939   3.454  1.00  0.00     0.032 A 
HETATM   30  C   UNL     1      40.268 -13.133   4.188  1.00  0.00     0.034 A 
HETATM   31  C   UNL     1      39.290 -12.138   4.155  1.00  0.00     0.032 A 
HETATM   32  C   UNL     1      39.483 -10.966   3.412  1.00  0.00     0.039 A 
BRANCH  30  33
HETATM   33  N   UNL     1      40.147 -14.331   4.920  1.00  0.00    -0.328 N 
HETATM   34  C   UNL     1      41.109 -14.932   5.713  1.00  0.00     0.218 C 
HETATM   35  C   UNL     1      40.616 -16.220   6.325  1.00  0.00     0.117 C 
HETATM   36  O   UNL     1      42.247 -14.529   5.925  1.00  0.00    -0.274 OA
HETATM   37  H   UNL     1      39.256 -14.808   4.853  1.00  0.00     0.169 HD
ENDBRANCH  30  33
ENDBRANCH  26  27
ENDBRANCH  25  26
ENDBRANCH  21  25
ENDBRANCH   1  17
BRANCH  15  38
HETATM   38  O   UNL     1      42.870 -18.389   4.197  1.00  0.00    -0.347 OA
BRANCH  38  39
HETATM   39  C   UNL     1      44.258 -18.700   4.355  1.00  0.00     0.214 C 
BRANCH  39  40
HETATM   40  C   UNL     1      44.465 -20.186   4.186  1.00  0.00    -0.034 A 
HETATM   41  C   UNL     1      44.659 -21.010   5.306  1.00  0.00     0.009 A 
HETATM   42  C   UNL     1      44.796 -22.391   5.157  1.00  0.00     0.001 A 
HETATM   43  C   UNL     1      44.731 -22.965   3.889  1.00  0.00     0.000 A 
HETATM   44  C   UNL     1      44.528 -22.159   2.771  1.00  0.00     0.001 A 
HETATM   45  C   UNL     1      44.392 -20.777   2.917  1.00  0.00     0.009 A 
ENDBRANCH  39  40
ENDBRANCH  38  39
ENDBRANCH  15  38
TORSDOF 9
ENDMDL
