MODEL 1
REMARK VINA RESULT:      -8.8      0.000      0.000
REMARK  8 active torsions:
REMARK  status: ('A' for Active; 'I' for Inactive)
REMARK    1  A    between atoms: C_6  and  N_7 
REMARK    2  A    between atoms: N_7  and  C_8 
REMARK    3  A    between atoms: C_8  and  N_9 
REMARK    4  A    between atoms: N_9  and  C_10 
REMARK    5  A    between atoms: N_9  and  C_25 
REMARK    6  A    between atoms: C_10  and  C_11 
REMARK    7  A    between atoms: C_25  and  C_26 
REMARK    8  A    between atoms: C_26  and  N_27 
ROOT
HETATM    1  N   UNL     1      43.839 -16.148   6.487  1.00  0.00    -0.352 N 
ENDROOT
BRANCH   1   2
HETATM    2  C   UNL     1      44.246 -17.462   6.562  1.00  0.00     0.174 C 
HETATM    3  S   UNL     1      43.593 -18.495   7.710  1.00  0.00    -0.041 SA
BRANCH   2   4
HETATM    4  N   UNL     1      44.959 -18.033   5.558  1.00  0.00    -0.333 N 
HETATM    5  H   UNL     1      45.913 -17.681   5.502  1.00  0.00     0.168 HD
BRANCH   4   6
HETATM    6  C   UNL     1      44.555 -18.740   4.406  1.00  0.00     0.035 A 
HETATM    7  C   UNL     1      44.736 -20.128   4.420  1.00  0.00     0.053 A 
HETATM    8  C   UNL     1      44.366 -20.897   3.316  1.00  0.00     0.036 A 
HETATM    9  C   UNL     1      43.838 -20.292   2.180  1.00  0.00     0.024 A 
HETATM   10 CL   UNL     1      44.561 -22.604   3.368  1.00  0.00    -0.084 Cl
HETATM   11  C   UNL     1      43.690 -18.907   2.146  1.00  0.00     0.004 A 
HETATM   12  C   UNL     1      44.056 -18.134   3.252  1.00  0.00     0.029 A 
ENDBRANCH   4   6
ENDBRANCH   2   4
ENDBRANCH   1   2
BRANCH   1  13
HETATM   13  C   UNL     1      42.383 -15.885   6.425  1.00  0.00     0.169 C 
BRANCH  13  14
HETATM   14  C   UNL     1      41.832 -15.843   5.027  1.00  0.00     0.029 A 
HETATM   15  C   UNL     1      41.078 -17.042   4.547  1.00  0.00     0.253 A 
HETATM   16  O   UNL     1      40.747 -17.940   5.317  1.00  0.00    -0.268 OA
HETATM   17  N   UNL     1      40.748 -17.101   3.222  1.00  0.00    -0.322 N 
HETATM   18  C   UNL     1      41.070 -16.105   2.294  1.00  0.00     0.048 A 
HETATM   19  H   UNL     1      40.271 -17.939   2.913  1.00  0.00     0.169 HD
HETATM   20  C   UNL     1      41.757 -14.957   2.739  1.00  0.00    -0.006 A 
HETATM   21  C   UNL     1      40.716 -16.267   0.953  1.00  0.00     0.070 A 
HETATM   22  C   UNL     1      42.097 -13.949   1.829  1.00  0.00     0.053 A 
HETATM   23  C   UNL     1      42.150 -14.874   4.147  1.00  0.00     0.028 A 
HETATM   24  C   UNL     1      41.740 -14.133   0.509  1.00  0.00     0.106 A 
HETATM   25  C   UNL     1      41.073 -15.259   0.084  1.00  0.00     0.107 A 
HETATM   26  O   UNL     1      41.999 -13.271  -0.510  1.00  0.00    -0.323 OA
HETATM   27  O   UNL     1      40.829 -15.244  -1.254  1.00  0.00    -0.323 OA
HETATM   28  C   UNL     1      41.442 -13.992  -1.631  1.00  0.00     0.352 A 
ENDBRANCH  13  14
ENDBRANCH   1  13
BRANCH   1  29
HETATM   29  C   UNL     1      44.684 -15.022   6.948  1.00  0.00     0.153 C 
BRANCH  29  30
HETATM   30  C   UNL     1      44.040 -13.625   6.878  1.00  0.00     0.254 C 
BRANCH  30  31
HETATM   31  N   UNL     1      44.170 -12.859   8.182  1.00  0.00    -0.066 N 
HETATM   32  H   UNL     1      43.861 -13.493   8.935  1.00  0.00     0.280 HD
HETATM   33  C   UNL     1      45.600 -12.461   8.526  1.00  0.00     0.261 C 
HETATM   34  C   UNL     1      45.607 -11.690   9.853  1.00  0.00     0.195 C 
HETATM   35  O   UNL     1      44.757 -10.539   9.783  1.00  0.00    -0.388 OA
HETATM   36  C   UNL     1      43.396 -10.905   9.537  1.00  0.00     0.195 C 
HETATM   37  C   UNL     1      43.262 -11.638   8.200  1.00  0.00     0.261 C 
ENDBRANCH  30  31
ENDBRANCH  29  30
ENDBRANCH   1  29
TORSDOF 8
ENDMDL
MODEL 2
REMARK VINA RESULT:      -8.7      3.495      6.910
REMARK  8 active torsions:
REMARK  status: ('A' for Active; 'I' for Inactive)
REMARK    1  A    between atoms: C_6  and  N_7 
REMARK    2  A    between atoms: N_7  and  C_8 
REMARK    3  A    between atoms: C_8  and  N_9 
REMARK    4  A    between atoms: N_9  and  C_10 
REMARK    5  A    between atoms: N_9  and  C_25 
REMARK    6  A    between atoms: C_10  and  C_11 
REMARK    7  A    between atoms: C_25  and  C_26 
REMARK    8  A    between atoms: C_26  and  N_27 
ROOT
HETATM    1  N   UNL     1      41.293 -15.197   2.702  1.00  0.00    -0.352 N 
ENDROOT
BRANCH   1   2
HETATM    2  C   UNL     1      40.687 -14.504   1.677  1.00  0.00     0.174 C 
HETATM    3  S   UNL     1      39.030 -14.245   1.682  1.00  0.00    -0.041 SA
BRANCH   2   4
HETATM    4  N   UNL     1      41.418 -13.776   0.795  1.00  0.00    -0.333 N 
HETATM    5  H   UNL     1      41.812 -12.933   1.211  1.00  0.00     0.168 HD
BRANCH   4   6
HETATM    6  C   UNL     1      41.457 -13.775  -0.615  1.00  0.00     0.035 A 
HETATM    7  C   UNL     1      40.786 -14.816  -1.267  1.00  0.00     0.053 A 
HETATM    8  C   UNL     1      40.783 -14.887  -2.661  1.00  0.00     0.036 A 
HETATM    9  C   UNL     1      41.465 -13.940  -3.417  1.00  0.00     0.024 A 
HETATM   10 CL   UNL     1      39.920 -16.152  -3.443  1.00  0.00    -0.084 Cl
HETATM   11  C   UNL     1      42.167 -12.923  -2.773  1.00  0.00     0.004 A 
HETATM   12  C   UNL     1      42.169 -12.847  -1.376  1.00  0.00     0.029 A 
ENDBRANCH   4   6
ENDBRANCH   2   4
ENDBRANCH   1   2
BRANCH   1  13
HETATM   13  C   UNL     1      42.770 -15.305   2.677  1.00  0.00     0.169 C 
BRANCH  13  14
HETATM   14  C   UNL     1      43.274 -16.717   2.561  1.00  0.00     0.029 A 
HETATM   15  C   UNL     1      43.098 -17.406   1.245  1.00  0.00     0.253 A 
HETATM   16  O   UNL     1      42.742 -16.791   0.243  1.00  0.00    -0.268 OA
HETATM   17  N   UNL     1      43.366 -18.745   1.184  1.00  0.00    -0.322 N 
HETATM   18  C   UNL     1      43.799 -19.503   2.278  1.00  0.00     0.048 A 
HETATM   19  H   UNL     1      43.202 -19.197   0.294  1.00  0.00     0.169 HD
HETATM   20  C   UNL     1      43.995 -18.859   3.517  1.00  0.00    -0.006 A 
HETATM   21  C   UNL     1      44.019 -20.874   2.126  1.00  0.00     0.070 A 
HETATM   22  C   UNL     1      44.421 -19.597   4.628  1.00  0.00     0.053 A 
HETATM   23  C   UNL     1      43.691 -17.431   3.623  1.00  0.00     0.028 A 
HETATM   24  C   UNL     1      44.629 -20.951   4.454  1.00  0.00     0.106 A 
HETATM   25  C   UNL     1      44.431 -21.569   3.242  1.00  0.00     0.107 A 
HETATM   26  O   UNL     1      45.027 -21.821   5.420  1.00  0.00    -0.323 OA
HETATM   27  O   UNL     1      44.681 -22.906   3.295  1.00  0.00    -0.323 OA
HETATM   28  C   UNL     1      45.033 -23.065   4.686  1.00  0.00     0.352 A 
ENDBRANCH  13  14
ENDBRANCH   1  13
BRANCH   1  29
HETATM   29  C   UNL     1      40.650 -15.398   4.021  1.00  0.00     0.153 C 
BRANCH  29  30
HETATM   30  C   UNL     1      41.045 -14.396   5.122  1.00  0.00     0.254 C 
BRANCH  30  31
HETATM   31  N   UNL     1      41.890 -15.032   6.209  1.00  0.00    -0.066 N 
HETATM   32  H   UNL     1      41.561 -14.650   7.109  1.00  0.00     0.280 HD
HETATM   33  C   UNL     1      41.735 -16.544   6.311  1.00  0.00     0.261 C 
HETATM   34  C   UNL     1      42.638 -17.075   7.433  1.00  0.00     0.195 C 
HETATM   35  O   UNL     1      44.006 -16.714   7.204  1.00  0.00    -0.388 OA
HETATM   36  C   UNL     1      44.179 -15.294   7.184  1.00  0.00     0.195 C 
HETATM   37  C   UNL     1      43.359 -14.661   6.058  1.00  0.00     0.261 C 
ENDBRANCH  30  31
ENDBRANCH  29  30
ENDBRANCH   1  29
TORSDOF 8
ENDMDL
MODEL 3
REMARK VINA RESULT:      -8.6      3.810      7.596
REMARK  8 active torsions:
REMARK  status: ('A' for Active; 'I' for Inactive)
REMARK    1  A    between atoms: C_6  and  N_7 
REMARK    2  A    between atoms: N_7  and  C_8 
REMARK    3  A    between atoms: C_8  and  N_9 
REMARK    4  A    between atoms: N_9  and  C_10 
REMARK    5  A    between atoms: N_9  and  C_25 
REMARK    6  A    between atoms: C_10  and  C_11 
REMARK    7  A    between atoms: C_25  and  C_26 
REMARK    8  A    between atoms: C_26  and  N_27 
ROOT
HETATM    1  N   UNL     1      40.419 -14.357   2.809  1.00  0.00    -0.352 N 
ENDROOT
BRANCH   1   2
HETATM    2  C   UNL     1      40.274 -14.081   4.151  1.00  0.00     0.174 C 
HETATM    3  S   UNL     1      39.741 -12.575   4.661  1.00  0.00    -0.041 SA
BRANCH   2   4
HETATM    4  N   UNL     1      40.278 -15.075   5.075  1.00  0.00    -0.333 N 
HETATM    5  H   UNL     1      39.344 -15.306   5.411  1.00  0.00     0.168 HD
BRANCH   4   6
HETATM    6  C   UNL     1      41.308 -15.597   5.886  1.00  0.00     0.035 A 
HETATM    7  C   UNL     1      42.465 -14.821   6.015  1.00  0.00     0.053 A 
HETATM    8  C   UNL     1      43.531 -15.271   6.796  1.00  0.00     0.036 A 
HETATM    9  C   UNL     1      43.466 -16.505   7.434  1.00  0.00     0.024 A 
HETATM   10 CL   UNL     1      44.928 -14.285   6.974  1.00  0.00    -0.084 Cl
HETATM   11  C   UNL     1      42.332 -17.300   7.279  1.00  0.00     0.004 A 
HETATM   12  C   UNL     1      41.261 -16.849   6.500  1.00  0.00     0.029 A 
ENDBRANCH   4   6
ENDBRANCH   2   4
ENDBRANCH   1   2
BRANCH   1  13
HETATM   13  C   UNL     1      41.791 -14.343   2.252  1.00  0.00     0.169 C 
BRANCH  13  14
HETATM   14  C   UNL     1      42.424 -15.704   2.156  1.00  0.00     0.029 A 
HETATM   15  C   UNL     1      42.210 -16.476   0.894  1.00  0.00     0.253 A 
HETATM   16  O   UNL     1      41.712 -15.953  -0.100  1.00  0.00    -0.268 OA
HETATM   17  N   UNL     1      42.604 -17.784   0.871  1.00  0.00    -0.322 N 
HETATM   18  C   UNL     1      43.200 -18.438   1.955  1.00  0.00     0.048 A 
HETATM   19  H   UNL     1      42.414 -18.298   0.019  1.00  0.00     0.169 HD
HETATM   20  C   UNL     1      43.432 -17.712   3.142  1.00  0.00    -0.006 A 
HETATM   21  C   UNL     1      43.543 -19.787   1.847  1.00  0.00     0.070 A 
HETATM   22  C   UNL     1      44.020 -18.346   4.244  1.00  0.00     0.053 A 
HETATM   23  C   UNL     1      42.996 -16.316   3.210  1.00  0.00     0.028 A 
HETATM   24  C   UNL     1      44.347 -19.680   4.114  1.00  0.00     0.106 A 
HETATM   25  C   UNL     1      44.113 -20.379   2.953  1.00  0.00     0.107 A 
HETATM   26  O   UNL     1      44.909 -20.455   5.080  1.00  0.00    -0.323 OA
HETATM   27  O   UNL     1      44.499 -21.680   3.044  1.00  0.00    -0.323 OA
HETATM   28  C   UNL     1      44.979 -21.730   4.405  1.00  0.00     0.352 A 
ENDBRANCH  13  14
ENDBRANCH   1  13
BRANCH   1  29
HETATM   29  C   UNL     1      39.413 -15.120   2.036  1.00  0.00     0.153 C 
BRANCH  29  30
HETATM   30  C   UNL     1      38.521 -14.293   1.091  1.00  0.00     0.254 C 
BRANCH  30  31
HETATM   31  N   UNL     1      39.117 -14.153  -0.297  1.00  0.00    -0.066 N 
HETATM   32  H   UNL     1      39.736 -14.966  -0.441  1.00  0.00     0.280 HD
HETATM   33  C   UNL     1      38.090 -14.200  -1.420  1.00  0.00     0.261 C 
HETATM   34  C   UNL     1      38.805 -14.042  -2.770  1.00  0.00     0.195 C 
HETATM   35  O   UNL     1      39.556 -12.823  -2.813  1.00  0.00    -0.388 OA
HETATM   36  C   UNL     1      40.578 -12.800  -1.810  1.00  0.00     0.195 C 
HETATM   37  C   UNL     1      39.968 -12.896  -0.410  1.00  0.00     0.261 C 
ENDBRANCH  30  31
ENDBRANCH  29  30
ENDBRANCH   1  29
TORSDOF 8
ENDMDL
MODEL 4
REMARK VINA RESULT:      -8.6      4.203      8.628
REMARK  8 active torsions:
REMARK  status: ('A' for Active; 'I' for Inactive)
REMARK    1  A    between atoms: C_6  and  N_7 
REMARK    2  A    between atoms: N_7  and  C_8 
REMARK    3  A    between atoms: C_8  and  N_9 
REMARK    4  A    between atoms: N_9  and  C_10 
REMARK    5  A    between atoms: N_9  and  C_25 
REMARK    6  A    between atoms: C_10  and  C_11 
REMARK    7  A    between atoms: C_25  and  C_26 
REMARK    8  A    between atoms: C_26  and  N_27 
ROOT
HETATM    1  N   UNL     1      41.213 -13.966  -0.024  1.00  0.00    -0.352 N 
ENDROOT
BRANCH   1   2
HETATM    2  C   UNL     1      41.247 -12.777   0.672  1.00  0.00     0.174 C 
HETATM    3  S   UNL     1      39.903 -11.775   0.719  1.00  0.00    -0.041 SA
BRANCH   2   4
HETATM    4  N   UNL     1      42.240 -12.512   1.558  1.00  0.00    -0.333 N 
HETATM    5  H   UNL     1      43.073 -12.129   1.113  1.00  0.00     0.168 HD
BRANCH   4   6
HETATM    6  C   UNL     1      42.467 -12.961   2.876  1.00  0.00     0.035 A 
HETATM    7  C   UNL     1      41.697 -12.371   3.886  1.00  0.00     0.053 A 
HETATM    8  C   UNL     1      41.866 -12.758   5.216  1.00  0.00     0.036 A 
HETATM    9  C   UNL     1      42.816 -13.715   5.557  1.00  0.00     0.024 A 
HETATM   10 CL   UNL     1      40.884 -12.050   6.436  1.00  0.00    -0.084 Cl
HETATM   11  C   UNL     1      43.611 -14.279   4.561  1.00  0.00     0.004 A 
HETATM   12  C   UNL     1      43.441 -13.896   3.227  1.00  0.00     0.029 A 
ENDBRANCH   4   6
ENDBRANCH   2   4
ENDBRANCH   1   2
BRANCH   1  13
HETATM   13  C   UNL     1      40.210 -14.974   0.391  1.00  0.00     0.169 C 
BRANCH  13  14
HETATM   14  C   UNL     1      40.711 -15.939   1.430  1.00  0.00     0.029 A 
HETATM   15  C   UNL     1      40.280 -15.715   2.844  1.00  0.00     0.253 A 
HETATM   16  O   UNL     1      39.400 -14.905   3.124  1.00  0.00    -0.268 OA
HETATM   17  N   UNL     1      40.883 -16.456   3.821  1.00  0.00    -0.322 N 
HETATM   18  C   UNL     1      41.875 -17.412   3.574  1.00  0.00     0.048 A 
HETATM   19  H   UNL     1      40.603 -16.259   4.774  1.00  0.00     0.169 HD
HETATM   20  C   UNL     1      42.271 -17.651   2.241  1.00  0.00    -0.006 A 
HETATM   21  C   UNL     1      42.455 -18.100   4.641  1.00  0.00     0.070 A 
HETATM   22  C   UNL     1      43.265 -18.599   1.968  1.00  0.00     0.053 A 
HETATM   23  C   UNL     1      41.664 -16.855   1.173  1.00  0.00     0.028 A 
HETATM   24  C   UNL     1      43.826 -19.263   3.039  1.00  0.00     0.106 A 
HETATM   25  C   UNL     1      43.435 -19.019   4.335  1.00  0.00     0.107 A 
HETATM   26  O   UNL     1      44.809 -20.200   2.964  1.00  0.00    -0.323 OA
HETATM   27  O   UNL     1      44.123 -19.772   5.235  1.00  0.00    -0.323 OA
HETATM   28  C   UNL     1      45.013 -20.501   4.362  1.00  0.00     0.352 A 
ENDBRANCH  13  14
ENDBRANCH   1  13
BRANCH   1  29
HETATM   29  C   UNL     1      41.737 -14.101  -1.402  1.00  0.00     0.153 C 
BRANCH  29  30
HETATM   30  C   UNL     1      41.112 -13.168  -2.455  1.00  0.00     0.254 C 
BRANCH  30  31
HETATM   31  N   UNL     1      40.014 -13.845  -3.253  1.00  0.00    -0.066 N 
HETATM   32  H   UNL     1      40.083 -13.490  -4.219  1.00  0.00     0.280 HD
HETATM   33  C   UNL     1      40.161 -15.358  -3.347  1.00  0.00     0.261 C 
HETATM   34  C   UNL     1      38.996 -15.931  -4.166  1.00  0.00     0.195 C 
HETATM   35  O   UNL     1      37.736 -15.573  -3.587  1.00  0.00    -0.388 OA
HETATM   36  C   UNL     1      37.552 -14.154  -3.563  1.00  0.00     0.195 C 
HETATM   37  C   UNL     1      38.636 -13.478  -2.720  1.00  0.00     0.261 C 
ENDBRANCH  30  31
ENDBRANCH  29  30
ENDBRANCH   1  29
TORSDOF 8
ENDMDL
MODEL 5
REMARK VINA RESULT:      -8.3      3.008      3.642
REMARK  8 active torsions:
REMARK  status: ('A' for Active; 'I' for Inactive)
REMARK    1  A    between atoms: C_6  and  N_7 
REMARK    2  A    between atoms: N_7  and  C_8 
REMARK    3  A    between atoms: C_8  and  N_9 
REMARK    4  A    between atoms: N_9  and  C_10 
REMARK    5  A    between atoms: N_9  and  C_25 
REMARK    6  A    between atoms: C_10  and  C_11 
REMARK    7  A    between atoms: C_25  and  C_26 
REMARK    8  A    between atoms: C_26  and  N_27 
ROOT
HETATM    1  N   UNL     1      43.215 -17.173   4.745  1.00  0.00    -0.352 N 
ENDROOT
BRANCH   1   2
HETATM    2  C   UNL     1      43.966 -17.964   5.587  1.00  0.00     0.174 C 
HETATM    3  S   UNL     1      43.533 -18.151   7.196  1.00  0.00    -0.041 SA
BRANCH   2   4
HETATM    4  N   UNL     1      44.892 -18.827   5.098  1.00  0.00    -0.333 N 
HETATM    5  H   UNL     1      45.724 -18.355   4.747  1.00  0.00     0.168 HD
BRANCH   4   6
HETATM    6  C   UNL     1      44.794 -20.171   4.680  1.00  0.00     0.035 A 
HETATM    7  C   UNL     1      44.536 -20.393   3.323  1.00  0.00     0.053 A 
HETATM    8  C   UNL     1      44.420 -21.695   2.832  1.00  0.00     0.036 A 
HETATM    9  C   UNL     1      44.535 -22.784   3.690  1.00  0.00     0.024 A 
HETATM   10 CL   UNL     1      44.141 -21.948   1.155  1.00  0.00    -0.084 Cl
HETATM   11  C   UNL     1      44.754 -22.568   5.049  1.00  0.00     0.004 A 
HETATM   12  C   UNL     1      44.875 -21.265   5.542  1.00  0.00     0.029 A 
ENDBRANCH   4   6
ENDBRANCH   2   4
ENDBRANCH   1   2
BRANCH   1  13
HETATM   13  C   UNL     1      42.102 -17.817   4.012  1.00  0.00     0.169 C 
BRANCH  13  14
HETATM   14  C   UNL     1      41.721 -17.110   2.740  1.00  0.00     0.029 A 
HETATM   15  C   UNL     1      42.742 -17.055   1.650  1.00  0.00     0.253 A 
HETATM   16  O   UNL     1      43.771 -17.722   1.702  1.00  0.00    -0.268 OA
HETATM   17  N   UNL     1      42.486 -16.249   0.576  1.00  0.00    -0.322 N 
HETATM   18  C   UNL     1      41.325 -15.480   0.437  1.00  0.00     0.048 A 
HETATM   19  H   UNL     1      43.209 -16.198  -0.132  1.00  0.00     0.169 HD
HETATM   20  C   UNL     1      40.342 -15.545   1.447  1.00  0.00    -0.006 A 
HETATM   21  C   UNL     1      41.166 -14.663  -0.683  1.00  0.00     0.070 A 
HETATM   22  C   UNL     1      39.175 -14.781   1.334  1.00  0.00     0.053 A 
HETATM   23  C   UNL     1      40.597 -16.378   2.624  1.00  0.00     0.028 A 
HETATM   24  C   UNL     1      39.041 -13.979   0.220  1.00  0.00     0.106 A 
HETATM   25  C   UNL     1      40.007 -13.920  -0.757  1.00  0.00     0.107 A 
HETATM   26  O   UNL     1      37.986 -13.162  -0.047  1.00  0.00    -0.323 OA
HETATM   27  O   UNL     1      39.681 -13.059  -1.759  1.00  0.00    -0.323 OA
HETATM   28  C   UNL     1      38.409 -12.561  -1.290  1.00  0.00     0.352 A 
ENDBRANCH  13  14
ENDBRANCH   1  13
BRANCH   1  29
HETATM   29  C   UNL     1      43.128 -15.702   4.896  1.00  0.00     0.153 C 
BRANCH  29  30
HETATM   30  C   UNL     1      42.003 -15.185   5.811  1.00  0.00     0.254 C 
BRANCH  30  31
HETATM   31  N   UNL     1      41.443 -13.854   5.347  1.00  0.00    -0.066 N 
HETATM   32  H   UNL     1      41.695 -13.155   6.064  1.00  0.00     0.280 HD
HETATM   33  C   UNL     1      42.041 -13.352   4.039  1.00  0.00     0.261 C 
HETATM   34  C   UNL     1      41.397 -12.009   3.668  1.00  0.00     0.195 C 
HETATM   35  O   UNL     1      39.973 -12.134   3.566  1.00  0.00    -0.388 OA
HETATM   36  C   UNL     1      39.390 -12.530   4.811  1.00  0.00     0.195 C 
HETATM   37  C   UNL     1      39.924 -13.894   5.254  1.00  0.00     0.261 C 
ENDBRANCH  30  31
ENDBRANCH  29  30
ENDBRANCH   1  29
TORSDOF 8
ENDMDL
MODEL 6
REMARK VINA RESULT:      -8.3      3.255      6.759
REMARK  8 active torsions:
REMARK  status: ('A' for Active; 'I' for Inactive)
REMARK    1  A    between atoms: C_6  and  N_7 
REMARK    2  A    between atoms: N_7  and  C_8 
REMARK    3  A    between atoms: C_8  and  N_9 
REMARK    4  A    between atoms: N_9  and  C_10 
REMARK    5  A    between atoms: N_9  and  C_25 
REMARK    6  A    between atoms: C_10  and  C_11 
REMARK    7  A    between atoms: C_25  and  C_26 
REMARK    8  A    between atoms: C_26  and  N_27 
ROOT
HETATM    1  N   UNL     1      42.050 -16.340   2.834  1.00  0.00    -0.352 N 
ENDROOT
BRANCH   1   2
HETATM    2  C   UNL     1      42.527 -17.250   3.753  1.00  0.00     0.174 C 
HETATM    3  S   UNL     1      41.568 -17.756   5.032  1.00  0.00    -0.041 SA
BRANCH   2   4
HETATM    4  N   UNL     1      43.652 -17.969   3.508  1.00  0.00    -0.333 N 
HETATM    5  H   UNL     1      44.449 -17.383   3.264  1.00  0.00     0.168 HD
BRANCH   4   6
HETATM    6  C   UNL     1      43.845 -19.332   3.200  1.00  0.00     0.035 A 
HETATM    7  C   UNL     1      44.443 -20.124   4.187  1.00  0.00     0.053 A 
HETATM    8  C   UNL     1      44.673 -21.482   3.957  1.00  0.00     0.036 A 
HETATM    9  C   UNL     1      44.333 -22.057   2.737  1.00  0.00     0.024 A 
HETATM   10 CL   UNL     1      45.373 -22.445   5.196  1.00  0.00    -0.084 Cl
HETATM   11  C   UNL     1      43.772 -21.266   1.737  1.00  0.00     0.004 A 
HETATM   12  C   UNL     1      43.537 -19.906   1.966  1.00  0.00     0.029 A 
ENDBRANCH   4   6
ENDBRANCH   2   4
ENDBRANCH   1   2
BRANCH   1  13
HETATM   13  C   UNL     1      42.771 -15.052   2.709  1.00  0.00     0.169 C 
BRANCH  13  14
HETATM   14  C   UNL     1      41.999 -13.870   3.226  1.00  0.00     0.029 A 
HETATM   15  C   UNL     1      42.064 -12.604   2.433  1.00  0.00     0.253 A 
HETATM   16  O   UNL     1      42.558 -12.577   1.309  1.00  0.00    -0.268 OA
HETATM   17  N   UNL     1      41.537 -11.473   2.991  1.00  0.00    -0.322 N 
HETATM   18  C   UNL     1      40.937 -11.434   4.255  1.00  0.00     0.048 A 
HETATM   19  H   UNL     1      41.627 -10.620   2.453  1.00  0.00     0.169 HD
HETATM   20  C   UNL     1      40.845 -12.628   5.001  1.00  0.00    -0.006 A 
HETATM   21  C   UNL     1      40.453 -10.224   4.755  1.00  0.00     0.070 A 
HETATM   22  C   UNL     1      40.255 -12.614   6.270  1.00  0.00     0.053 A 
HETATM   23  C   UNL     1      41.425 -13.851   4.444  1.00  0.00     0.028 A 
HETATM   24  C   UNL     1      39.787 -11.406   6.745  1.00  0.00     0.106 A 
HETATM   25  C   UNL     1      39.886 -10.247   6.010  1.00  0.00     0.107 A 
HETATM   26  O   UNL     1      39.202 -11.203   7.955  1.00  0.00    -0.323 OA
HETATM   27  O   UNL     1      39.374  -9.171   6.668  1.00  0.00    -0.323 OA
HETATM   28  C   UNL     1      38.965  -9.778   7.913  1.00  0.00     0.352 A 
ENDBRANCH  13  14
ENDBRANCH   1  13
BRANCH   1  29
HETATM   29  C   UNL     1      41.221 -16.735   1.673  1.00  0.00     0.153 C 
BRANCH  29  30
HETATM   30  C   UNL     1      41.239 -15.771   0.473  1.00  0.00     0.254 C 
BRANCH  30  31
HETATM   31  N   UNL     1      39.863 -15.224   0.146  1.00  0.00    -0.066 N 
HETATM   32  H   UNL     1      39.308 -16.009  -0.230  1.00  0.00     0.280 HD
HETATM   33  C   UNL     1      39.097 -14.709   1.358  1.00  0.00     0.261 C 
HETATM   34  C   UNL     1      37.730 -14.177   0.907  1.00  0.00     0.195 C 
HETATM   35  O   UNL     1      37.880 -13.148  -0.079  1.00  0.00    -0.388 OA
HETATM   36  C   UNL     1      38.529 -13.640  -1.256  1.00  0.00     0.195 C 
HETATM   37  C   UNL     1      39.935 -14.150  -0.930  1.00  0.00     0.261 C 
ENDBRANCH  30  31
ENDBRANCH  29  30
ENDBRANCH   1  29
TORSDOF 8
ENDMDL
MODEL 7
REMARK VINA RESULT:      -8.2      3.642      7.768
REMARK  8 active torsions:
REMARK  status: ('A' for Active; 'I' for Inactive)
REMARK    1  A    between atoms: C_6  and  N_7 
REMARK    2  A    between atoms: N_7  and  C_8 
REMARK    3  A    between atoms: C_8  and  N_9 
REMARK    4  A    between atoms: N_9  and  C_10 
REMARK    5  A    between atoms: N_9  and  C_25 
REMARK    6  A    between atoms: C_10  and  C_11 
REMARK    7  A    between atoms: C_25  and  C_26 
REMARK    8  A    between atoms: C_26  and  N_27 
ROOT
HETATM    1  N   UNL     1      40.893 -14.072   2.576  1.00  0.00    -0.352 N 
ENDROOT
BRANCH   1   2
HETATM    2  C   UNL     1      40.503 -13.474   3.755  1.00  0.00     0.174 C 
HETATM    3  S   UNL     1      39.390 -12.220   3.749  1.00  0.00    -0.041 SA
BRANCH   2   4
HETATM    4  N   UNL     1      40.776 -14.046   4.955  1.00  0.00    -0.333 N 
HETATM    5  H   UNL     1      40.004 -13.964   5.615  1.00  0.00     0.168 HD
BRANCH   4   6
HETATM    6  C   UNL     1      41.995 -14.415   5.563  1.00  0.00     0.035 A 
HETATM    7  C   UNL     1      41.970 -15.541   6.394  1.00  0.00     0.053 A 
HETATM    8  C   UNL     1      43.133 -15.968   7.036  1.00  0.00     0.036 A 
HETATM    9  C   UNL     1      44.324 -15.267   6.876  1.00  0.00     0.024 A 
HETATM   10 CL   UNL     1      43.090 -17.376   8.022  1.00  0.00    -0.084 Cl
HETATM   11  C   UNL     1      44.346 -14.124   6.080  1.00  0.00     0.004 A 
HETATM   12  C   UNL     1      43.183 -13.696   5.433  1.00  0.00     0.029 A 
ENDBRANCH   4   6
ENDBRANCH   2   4
ENDBRANCH   1   2
BRANCH   1  13
HETATM   13  C   UNL     1      40.391 -15.438   2.303  1.00  0.00     0.169 C 
BRANCH  13  14
HETATM   14  C   UNL     1      41.456 -16.500   2.358  1.00  0.00     0.029 A 
HETATM   15  C   UNL     1      41.930 -17.068   1.059  1.00  0.00     0.253 A 
HETATM   16  O   UNL     1      41.617 -16.560  -0.015  1.00  0.00    -0.268 OA
HETATM   17  N   UNL     1      42.743 -18.166   1.101  1.00  0.00    -0.322 N 
HETATM   18  C   UNL     1      43.159 -18.782   2.286  1.00  0.00     0.048 A 
HETATM   19  H   UNL     1      43.020 -18.556   0.208  1.00  0.00     0.169 HD
HETATM   20  C   UNL     1      42.741 -18.239   3.518  1.00  0.00    -0.006 A 
HETATM   21  C   UNL     1      43.967 -19.919   2.228  1.00  0.00     0.070 A 
HETATM   22  C   UNL     1      43.139 -18.841   4.718  1.00  0.00     0.053 A 
HETATM   23  C   UNL     1      41.847 -17.079   3.508  1.00  0.00     0.028 A 
HETATM   24  C   UNL     1      43.934 -19.965   4.635  1.00  0.00     0.106 A 
HETATM   25  C   UNL     1      44.333 -20.489   3.428  1.00  0.00     0.107 A 
HETATM   26  O   UNL     1      44.401 -20.685   5.691  1.00  0.00    -0.323 OA
HETATM   27  O   UNL     1      45.101 -21.603   3.574  1.00  0.00    -0.323 OA
HETATM   28  C   UNL     1      45.119 -21.738   5.012  1.00  0.00     0.352 A 
ENDBRANCH  13  14
ENDBRANCH   1  13
BRANCH   1  29
HETATM   29  C   UNL     1      41.342 -13.297   1.397  1.00  0.00     0.153 C 
BRANCH  29  30
HETATM   30  C   UNL     1      40.327 -13.174   0.246  1.00  0.00     0.254 C 
BRANCH  30  31
HETATM   31  N   UNL     1      40.816 -13.828  -1.033  1.00  0.00    -0.066 N 
HETATM   32  H   UNL     1      41.424 -14.614  -0.755  1.00  0.00     0.280 HD
HETATM   33  C   UNL     1      39.706 -14.433  -1.883  1.00  0.00     0.261 C 
HETATM   34  C   UNL     1      40.316 -15.056  -3.146  1.00  0.00     0.195 C 
HETATM   35  O   UNL     1      41.059 -14.083  -3.891  1.00  0.00    -0.388 OA
HETATM   36  C   UNL     1      42.154 -13.562  -3.129  1.00  0.00     0.195 C 
HETATM   37  C   UNL     1      41.653 -12.864  -1.862  1.00  0.00     0.261 C 
ENDBRANCH  30  31
ENDBRANCH  29  30
ENDBRANCH   1  29
TORSDOF 8
ENDMDL
MODEL 8
REMARK VINA RESULT:      -8.2      3.187      4.224
REMARK  8 active torsions:
REMARK  status: ('A' for Active; 'I' for Inactive)
REMARK    1  A    between atoms: C_6  and  N_7 
REMARK    2  A    between atoms: N_7  and  C_8 
REMARK    3  A    between atoms: C_8  and  N_9 
REMARK    4  A    between atoms: N_9  and  C_10 
REMARK    5  A    between atoms: N_9  and  C_25 
REMARK    6  A    between atoms: C_10  and  C_11 
REMARK    7  A    between atoms: C_25  and  C_26 
REMARK    8  A    between atoms: C_26  and  N_27 
ROOT
HETATM    1  N   UNL     1      42.016 -16.624   4.204  1.00  0.00    -0.352 N 
ENDROOT
BRANCH   1   2
HETATM    2  C   UNL     1      43.243 -17.187   4.478  1.00  0.00     0.174 C 
HETATM    3  S   UNL     1      43.770 -17.361   6.060  1.00  0.00    -0.041 SA
BRANCH   2   4
HETATM    4  N   UNL     1      43.932 -17.865   3.525  1.00  0.00    -0.333 N 
HETATM    5  H   UNL     1      44.243 -17.265   2.762  1.00  0.00     0.168 HD
BRANCH   4   6
HETATM    6  C   UNL     1      44.007 -19.240   3.220  1.00  0.00     0.035 A 
HETATM    7  C   UNL     1      44.574 -20.072   4.192  1.00  0.00     0.053 A 
HETATM    8  C   UNL     1      44.688 -21.445   3.964  1.00  0.00     0.036 A 
HETATM    9  C   UNL     1      44.262 -21.997   2.761  1.00  0.00     0.024 A 
HETATM   10 CL   UNL     1      45.352 -22.455   5.186  1.00  0.00    -0.084 Cl
HETATM   11  C   UNL     1      43.731 -21.168   1.775  1.00  0.00     0.004 A 
HETATM   12  C   UNL     1      43.612 -19.794   2.002  1.00  0.00     0.029 A 
ENDBRANCH   4   6
ENDBRANCH   2   4
ENDBRANCH   1   2
BRANCH   1  13
HETATM   13  C   UNL     1      41.191 -17.260   3.151  1.00  0.00     0.169 C 
BRANCH  13  14
HETATM   14  C   UNL     1      40.765 -16.317   2.059  1.00  0.00     0.029 A 
HETATM   15  C   UNL     1      41.798 -15.910   1.058  1.00  0.00     0.253 A 
HETATM   16  O   UNL     1      42.891 -16.468   1.002  1.00  0.00    -0.268 OA
HETATM   17  N   UNL     1      41.482 -14.905   0.187  1.00  0.00    -0.322 N 
HETATM   18  C   UNL     1      40.250 -14.242   0.176  1.00  0.00     0.048 A 
HETATM   19  H   UNL     1      42.211 -14.620  -0.456  1.00  0.00     0.169 HD
HETATM   20  C   UNL     1      39.258 -14.635   1.098  1.00  0.00    -0.006 A 
HETATM   21  C   UNL     1      40.030 -13.206  -0.733  1.00  0.00     0.070 A 
HETATM   22  C   UNL     1      38.019 -13.983   1.111  1.00  0.00     0.053 A 
HETATM   23  C   UNL     1      39.574 -15.690   2.063  1.00  0.00     0.028 A 
HETATM   24  C   UNL     1      37.826 -12.960   0.206  1.00  0.00     0.106 A 
HETATM   25  C   UNL     1      38.802 -12.582  -0.686  1.00  0.00     0.107 A 
HETATM   26  O   UNL     1      36.697 -12.210   0.087  1.00  0.00    -0.323 OA
HETATM   27  O   UNL     1      38.408 -11.548  -1.478  1.00  0.00    -0.323 OA
HETATM   28  C   UNL     1      37.081 -11.298  -0.965  1.00  0.00     0.352 A 
ENDBRANCH  13  14
ENDBRANCH   1  13
BRANCH   1  29
HETATM   29  C   UNL     1      41.287 -15.782   5.179  1.00  0.00     0.153 C 
BRANCH  29  30
HETATM   30  C   UNL     1      41.701 -14.300   5.232  1.00  0.00     0.254 C 
BRANCH  30  31
HETATM   31  N   UNL     1      40.853 -13.427   4.327  1.00  0.00    -0.066 N 
HETATM   32  H   UNL     1      40.386 -14.055   3.655  1.00  0.00     0.280 HD
HETATM   33  C   UNL     1      39.740 -12.681   5.051  1.00  0.00     0.261 C 
HETATM   34  C   UNL     1      38.957 -11.830   4.042  1.00  0.00     0.195 C 
HETATM   35  O   UNL     1      39.825 -10.917   3.359  1.00  0.00    -0.388 OA
HETATM   36  C   UNL     1      40.830 -11.609   2.610  1.00  0.00     0.195 C 
HETATM   37  C   UNL     1      41.712 -12.454   3.532  1.00  0.00     0.261 C 
ENDBRANCH  30  31
ENDBRANCH  29  30
ENDBRANCH   1  29
TORSDOF 8
ENDMDL
MODEL 9
REMARK VINA RESULT:      -8.1      3.676      6.773
REMARK  8 active torsions:
REMARK  status: ('A' for Active; 'I' for Inactive)
REMARK    1  A    between atoms: C_6  and  N_7 
REMARK    2  A    between atoms: N_7  and  C_8 
REMARK    3  A    between atoms: C_8  and  N_9 
REMARK    4  A    between atoms: N_9  and  C_10 
REMARK    5  A    between atoms: N_9  and  C_25 
REMARK    6  A    between atoms: C_10  and  C_11 
REMARK    7  A    between atoms: C_25  and  C_26 
REMARK    8  A    between atoms: C_26  and  N_27 
ROOT
HETATM    1  N   UNL     1      42.740 -16.585   3.777  1.00  0.00    -0.352 N 
ENDROOT
BRANCH   1   2
HETATM    2  C   UNL     1      41.455 -17.001   4.047  1.00  0.00     0.174 C 
HETATM    3  S   UNL     1      40.943 -17.229   5.628  1.00  0.00    -0.041 SA
BRANCH   2   4
HETATM    4  N   UNL     1      40.492 -16.968   3.090  1.00  0.00    -0.333 N 
HETATM    5  H   UNL     1      39.959 -17.835   3.037  1.00  0.00     0.168 HD
BRANCH   4   6
HETATM    6  C   UNL     1      40.312 -16.131   1.969  1.00  0.00     0.035 A 
HETATM    7  C   UNL     1      39.260 -15.211   2.029  1.00  0.00     0.053 A 
HETATM    8  C   UNL     1      39.015 -14.351   0.956  1.00  0.00     0.036 A 
HETATM    9  C   UNL     1      39.796 -14.416  -0.193  1.00  0.00     0.024 A 
HETATM   10 CL   UNL     1      37.742 -13.201   1.066  1.00  0.00    -0.084 Cl
HETATM   11  C   UNL     1      40.821 -15.357  -0.273  1.00  0.00     0.004 A 
HETATM   12  C   UNL     1      41.072 -16.216   0.801  1.00  0.00     0.029 A 
ENDBRANCH   4   6
ENDBRANCH   2   4
ENDBRANCH   1   2
BRANCH   1  13
HETATM   13  C   UNL     1      43.216 -15.354   4.449  1.00  0.00     0.169 C 
BRANCH  13  14
HETATM   14  C   UNL     1      42.594 -14.092   3.918  1.00  0.00     0.029 A 
HETATM   15  C   UNL     1      41.553 -13.428   4.761  1.00  0.00     0.253 A 
HETATM   16  O   UNL     1      41.351 -13.777   5.922  1.00  0.00    -0.268 OA
HETATM   17  N   UNL     1      40.840 -12.402   4.207  1.00  0.00    -0.322 N 
HETATM   18  C   UNL     1      41.032 -11.936   2.902  1.00  0.00     0.048 A 
HETATM   19  H   UNL     1      40.114 -11.994   4.783  1.00  0.00     0.169 HD
HETATM   20  C   UNL     1      42.030 -12.536   2.105  1.00  0.00    -0.006 A 
HETATM   21  C   UNL     1      40.234 -10.901   2.411  1.00  0.00     0.070 A 
HETATM   22  C   UNL     1      42.238 -12.091   0.794  1.00  0.00     0.053 A 
HETATM   23  C   UNL     1      42.793 -13.656   2.659  1.00  0.00     0.028 A 
HETATM   24  C   UNL     1      41.435 -11.069   0.331  1.00  0.00     0.106 A 
HETATM   25  C   UNL     1      40.462 -10.494   1.114  1.00  0.00     0.107 A 
HETATM   26  O   UNL     1      41.485 -10.524  -0.914  1.00  0.00    -0.323 OA
HETATM   27  O   UNL     1      39.780  -9.516   0.460  1.00  0.00    -0.323 OA
HETATM   28  C   UNL     1      40.416  -9.557  -0.836  1.00  0.00     0.352 A 
ENDBRANCH  13  14
ENDBRANCH   1  13
BRANCH   1  29
HETATM   29  C   UNL     1      43.792 -17.504   3.286  1.00  0.00     0.153 C 
BRANCH  29  30
HETATM   30  C   UNL     1      44.237 -18.604   4.267  1.00  0.00     0.254 C 
BRANCH  30  31
HETATM   31  N   UNL     1      43.950 -19.999   3.744  1.00  0.00    -0.066 N 
HETATM   32  H   UNL     1      43.007 -20.255   4.072  1.00  0.00     0.280 HD
HETATM   33  C   UNL     1      43.909 -20.095   2.224  1.00  0.00     0.261 C 
HETATM   34  C   UNL     1      43.621 -21.545   1.814  1.00  0.00     0.195 C 
HETATM   35  O   UNL     1      44.602 -22.437   2.357  1.00  0.00    -0.388 OA
HETATM   36  C   UNL     1      44.598 -22.415   3.788  1.00  0.00     0.195 C 
HETATM   37  C   UNL     1      44.931 -21.015   4.312  1.00  0.00     0.261 C 
ENDBRANCH  30  31
ENDBRANCH  29  30
ENDBRANCH   1  29
TORSDOF 8
ENDMDL
MODEL 10
REMARK VINA RESULT:      -8.1      4.414      7.665
REMARK  8 active torsions:
REMARK  status: ('A' for Active; 'I' for Inactive)
REMARK    1  A    between atoms: C_6  and  N_7 
REMARK    2  A    between atoms: N_7  and  C_8 
REMARK    3  A    between atoms: C_8  and  N_9 
REMARK    4  A    between atoms: N_9  and  C_10 
REMARK    5  A    between atoms: N_9  and  C_25 
REMARK    6  A    between atoms: C_10  and  C_11 
REMARK    7  A    between atoms: C_25  and  C_26 
REMARK    8  A    between atoms: C_26  and  N_27 
ROOT
HETATM    1  N   UNL     1      41.215 -14.039  -0.074  1.00  0.00    -0.352 N 
ENDROOT
BRANCH   1   2
HETATM    2  C   UNL     1      41.606 -14.232  -1.381  1.00  0.00     0.174 C 
HETATM    3  S   UNL     1      40.658 -15.131  -2.433  1.00  0.00    -0.041 SA
BRANCH   2   4
HETATM    4  N   UNL     1      42.596 -13.486  -1.934  1.00  0.00    -0.333 N 
HETATM    5  H   UNL     1      43.526 -13.805  -1.666  1.00  0.00     0.168 HD
BRANCH   4   6
HETATM    6  C   UNL     1      42.591 -12.198  -2.509  1.00  0.00     0.035 A 
HETATM    7  C   UNL     1      43.093 -11.154  -1.723  1.00  0.00     0.053 A 
HETATM    8  C   UNL     1      43.117  -9.849  -2.218  1.00  0.00     0.036 A 
HETATM    9  C   UNL     1      42.623  -9.567  -3.487  1.00  0.00     0.024 A 
HETATM   10 CL   UNL     1      43.772  -8.587  -1.252  1.00  0.00    -0.084 Cl
HETATM   11  C   UNL     1      42.088 -10.596  -4.260  1.00  0.00     0.004 A 
HETATM   12  C   UNL     1      42.066 -11.905  -3.767  1.00  0.00     0.029 A 
ENDBRANCH   4   6
ENDBRANCH   2   4
ENDBRANCH   1   2
BRANCH   1  13
HETATM   13  C   UNL     1      40.179 -14.946   0.471  1.00  0.00     0.169 C 
BRANCH  13  14
HETATM   14  C   UNL     1      40.701 -15.932   1.479  1.00  0.00     0.029 A 
HETATM   15  C   UNL     1      40.358 -15.697   2.915  1.00  0.00     0.253 A 
HETATM   16  O   UNL     1      39.525 -14.857   3.245  1.00  0.00    -0.268 OA
HETATM   17  N   UNL     1      40.988 -16.463   3.855  1.00  0.00    -0.322 N 
HETATM   18  C   UNL     1      41.928 -17.454   3.551  1.00  0.00     0.048 A 
HETATM   19  H   UNL     1      40.769 -16.260   4.823  1.00  0.00     0.169 HD
HETATM   20  C   UNL     1      42.240 -17.703   2.198  1.00  0.00    -0.006 A 
HETATM   21  C   UNL     1      42.542 -18.166   4.583  1.00  0.00     0.070 A 
HETATM   22  C   UNL     1      43.181 -18.685   1.869  1.00  0.00     0.053 A 
HETATM   23  C   UNL     1      41.603 -16.882   1.167  1.00  0.00     0.028 A 
HETATM   24  C   UNL     1      43.777 -19.374   2.905  1.00  0.00     0.106 A 
HETATM   25  C   UNL     1      43.469 -19.120   4.221  1.00  0.00     0.107 A 
HETATM   26  O   UNL     1      44.719 -20.346   2.773  1.00  0.00    -0.323 OA
HETATM   27  O   UNL     1      44.178 -19.901   5.080  1.00  0.00    -0.323 OA
HETATM   28  C   UNL     1      44.990 -20.659   4.157  1.00  0.00     0.352 A 
ENDBRANCH  13  14
ENDBRANCH   1  13
BRANCH   1  29
HETATM   29  C   UNL     1      42.070 -13.357   0.924  1.00  0.00     0.153 C 
BRANCH  29  30
HETATM   30  C   UNL     1      41.455 -12.121   1.605  1.00  0.00     0.254 C 
BRANCH  30  31
HETATM   31  N   UNL     1      41.235 -12.327   3.092  1.00  0.00    -0.066 N 
HETATM   32  H   UNL     1      40.488 -13.032   3.190  1.00  0.00     0.280 HD
HETATM   33  C   UNL     1      42.445 -12.889   3.826  1.00  0.00     0.261 C 
HETATM   34  C   UNL     1      42.109 -13.047   5.315  1.00  0.00     0.195 C 
HETATM   35  O   UNL     1      41.700 -11.797   5.884  1.00  0.00    -0.388 OA
HETATM   36  C   UNL     1      40.516 -11.296   5.254  1.00  0.00     0.195 C 
HETATM   37  C   UNL     1      40.756 -11.047   3.763  1.00  0.00     0.261 C 
ENDBRANCH  30  31
ENDBRANCH  29  30
ENDBRANCH   1  29
TORSDOF 8
ENDMDL
