MODEL 1
REMARK VINA RESULT:      -9.2      0.000      0.000
REMARK  5 active torsions:
REMARK  status: ('A' for Active; 'I' for Inactive)
REMARK    1  A    between atoms: C_7  and  C_8 
REMARK    2  A    between atoms: N_9  and  C_10 
REMARK    3  A    between atoms: C_10  and  C_11 
REMARK       I    between atoms: C_11  and  N_12 
REMARK    4  A    between atoms: N_12  and  C_13 
REMARK    5  A    between atoms: C_13  and  C_14 
ROOT
HETATM    1  C   UNL     1      43.305 -15.421   3.708  1.00  0.00     0.158 C 
HETATM    2  N   UNL     1      43.384 -14.637   4.930  1.00  0.00    -0.326 N 
HETATM    3  C   UNL     1      42.218 -13.912   5.127  1.00  0.00     0.255 C 
HETATM    4  O   UNL     1      42.023 -13.030   5.942  1.00  0.00    -0.267 OA
HETATM    5  C   UNL     1      41.234 -14.381   4.143  1.00  0.00     0.040 A 
HETATM    6  C   UNL     1      41.867 -15.296   3.303  1.00  0.00    -0.015 A 
HETATM    7  C   UNL     1      39.912 -14.010   3.989  1.00  0.00     0.017 A 
HETATM    8  C   UNL     1      39.202 -14.594   2.938  1.00  0.00     0.001 A 
HETATM    9  C   UNL     1      39.826 -15.513   2.076  1.00  0.00     0.001 A 
HETATM   10  C   UNL     1      41.168 -15.867   2.250  1.00  0.00     0.011 A 
ENDROOT
BRANCH   1  11
HETATM   11  C   UNL     1      43.607 -16.875   3.903  1.00  0.00     0.004 A 
HETATM   12  C   UNL     1      44.010 -17.757   2.899  1.00  0.00     0.017 A 
HETATM   13  C   UNL     1      44.272 -17.502   1.452  1.00  0.00     0.069 C 
HETATM   14  N   UNL     1      44.116 -19.013   3.456  1.00  0.00    -0.354 N 
HETATM   15  C   UNL     1      44.443 -20.230   2.739  1.00  0.00     0.156 C 
HETATM   16  C   UNL     1      43.866 -18.963   4.811  1.00  0.00     0.045 A 
HETATM   17  C   UNL     1      43.538 -17.642   5.120  1.00  0.00     0.001 A 
HETATM   18  C   UNL     1      43.897 -19.976   5.787  1.00  0.00     0.030 A 
HETATM   19  C   UNL     1      43.219 -17.334   6.462  1.00  0.00     0.014 A 
HETATM   20  C   UNL     1      43.245 -18.334   7.440  1.00  0.00     0.001 A 
HETATM   21  C   UNL     1      43.581 -19.638   7.104  1.00  0.00     0.002 A 
ENDBRANCH   1  11
BRANCH   2  22
HETATM   22  C   UNL     1      44.675 -14.208   5.447  1.00  0.00     0.229 C 
BRANCH  22  23
HETATM   23  C   UNL     1      44.758 -13.967   6.960  1.00  0.00     0.235 C 
HETATM   24  N   UNL     1      45.455 -12.847   7.352  1.00  0.00    -0.357 N 
HETATM   25  H   UNL     1      45.968 -12.329   6.636  1.00  0.00     0.162 HD
HETATM   26  O   UNL     1      44.369 -14.814   7.766  1.00  0.00    -0.272 OA
BRANCH  24  27
HETATM   27  C   UNL     1      45.800 -12.609   8.742  1.00  0.00     0.154 C 
BRANCH  27  28
HETATM   28  C   UNL     1      44.642 -12.012   9.554  1.00  0.00     0.139 C 
HETATM   29  O   UNL     1      44.332 -12.842  10.690  1.00  0.00    -0.384 OA
HETATM   30  C   UNL     1      43.640 -11.998  11.615  1.00  0.00     0.168 C 
HETATM   31  C   UNL     1      44.297 -10.639  11.502  1.00  0.00     0.029 C 
HETATM   32  C   UNL     1      44.969 -10.646  10.143  1.00  0.00     0.035 C 
ENDBRANCH  27  28
ENDBRANCH  24  27
ENDBRANCH  22  23
ENDBRANCH   2  22
TORSDOF 5
ENDMDL
MODEL 2
REMARK VINA RESULT:      -9.1      3.289      7.599
REMARK  5 active torsions:
REMARK  status: ('A' for Active; 'I' for Inactive)
REMARK    1  A    between atoms: C_7  and  C_8 
REMARK    2  A    between atoms: N_9  and  C_10 
REMARK    3  A    between atoms: C_10  and  C_11 
REMARK       I    between atoms: C_11  and  N_12 
REMARK    4  A    between atoms: N_12  and  C_13 
REMARK    5  A    between atoms: C_13  and  C_14 
ROOT
HETATM    1  C   UNL     1      42.476 -15.278   3.461  1.00  0.00     0.158 C 
HETATM    2  N   UNL     1      41.821 -16.556   3.687  1.00  0.00    -0.326 N 
HETATM    3  C   UNL     1      42.258 -17.131   4.871  1.00  0.00     0.255 C 
HETATM    4  O   UNL     1      42.051 -18.264   5.265  1.00  0.00    -0.267 OA
HETATM    5  C   UNL     1      43.056 -16.125   5.583  1.00  0.00     0.040 A 
HETATM    6  C   UNL     1      43.177 -15.008   4.758  1.00  0.00    -0.015 A 
HETATM    7  C   UNL     1      43.645 -16.204   6.831  1.00  0.00     0.017 A 
HETATM    8  C   UNL     1      44.386 -15.101   7.260  1.00  0.00     0.001 A 
HETATM    9  C   UNL     1      44.525 -13.968   6.438  1.00  0.00     0.001 A 
HETATM   10  C   UNL     1      43.924 -13.917   5.176  1.00  0.00     0.011 A 
ENDROOT
BRANCH   1  11
HETATM   11  C   UNL     1      41.525 -14.150   3.204  1.00  0.00     0.004 A 
HETATM   12  C   UNL     1      41.350 -13.504   1.978  1.00  0.00     0.017 A 
HETATM   13  C   UNL     1      41.994 -13.771   0.658  1.00  0.00     0.069 C 
HETATM   14  N   UNL     1      40.449 -12.480   2.163  1.00  0.00    -0.354 N 
HETATM   15  C   UNL     1      40.041 -11.521   1.156  1.00  0.00     0.156 C 
HETATM   16  C   UNL     1      39.973 -12.482   3.458  1.00  0.00     0.045 A 
HETATM   17  C   UNL     1      40.632 -13.510   4.136  1.00  0.00     0.001 A 
HETATM   18  C   UNL     1      39.021 -11.660   4.087  1.00  0.00     0.030 A 
HETATM   19  C   UNL     1      40.326 -13.708   5.501  1.00  0.00     0.014 A 
HETATM   20  C   UNL     1      39.383 -12.894   6.137  1.00  0.00     0.001 A 
HETATM   21  C   UNL     1      38.739 -11.883   5.436  1.00  0.00     0.002 A 
ENDBRANCH   1  11
BRANCH   2  22
HETATM   22  C   UNL     1      41.332 -17.342   2.563  1.00  0.00     0.229 C 
BRANCH  22  23
HETATM   23  C   UNL     1      42.388 -18.119   1.766  1.00  0.00     0.235 C 
HETATM   24  N   UNL     1      42.684 -19.380   2.233  1.00  0.00    -0.357 N 
HETATM   25  H   UNL     1      42.286 -19.662   3.131  1.00  0.00     0.162 HD
HETATM   26  O   UNL     1      43.042 -17.580   0.872  1.00  0.00    -0.272 OA
BRANCH  24  27
HETATM   27  C   UNL     1      43.808 -20.141   1.717  1.00  0.00     0.154 C 
BRANCH  27  28
HETATM   28  C   UNL     1      44.690 -20.732   2.826  1.00  0.00     0.139 C 
HETATM   29  O   UNL     1      44.325 -20.195   4.112  1.00  0.00    -0.384 OA
HETATM   30  C   UNL     1      44.814 -21.128   5.080  1.00  0.00     0.168 C 
HETATM   31  C   UNL     1      44.625 -22.497   4.463  1.00  0.00     0.029 C 
HETATM   32  C   UNL     1      44.534 -22.240   2.972  1.00  0.00     0.035 C 
ENDBRANCH  27  28
ENDBRANCH  24  27
ENDBRANCH  22  23
ENDBRANCH   2  22
TORSDOF 5
ENDMDL
MODEL 3
REMARK VINA RESULT:      -8.8      3.572      6.496
REMARK  5 active torsions:
REMARK  status: ('A' for Active; 'I' for Inactive)
REMARK    1  A    between atoms: C_7  and  C_8 
REMARK    2  A    between atoms: N_9  and  C_10 
REMARK    3  A    between atoms: C_10  and  C_11 
REMARK       I    between atoms: C_11  and  N_12 
REMARK    4  A    between atoms: N_12  and  C_13 
REMARK    5  A    between atoms: C_13  and  C_14 
ROOT
HETATM    1  C   UNL     1      41.022 -16.532   3.545  1.00  0.00     0.158 C 
HETATM    2  N   UNL     1      41.501 -16.285   4.895  1.00  0.00    -0.326 N 
HETATM    3  C   UNL     1      42.536 -17.150   5.216  1.00  0.00     0.255 C 
HETATM    4  O   UNL     1      43.037 -17.332   6.311  1.00  0.00    -0.267 OA
HETATM    5  C   UNL     1      42.927 -17.848   3.986  1.00  0.00     0.040 A 
HETATM    6  C   UNL     1      42.041 -17.473   2.977  1.00  0.00    -0.015 A 
HETATM    7  C   UNL     1      43.952 -18.753   3.786  1.00  0.00     0.017 A 
HETATM    8  C   UNL     1      44.084 -19.300   2.508  1.00  0.00     0.001 A 
HETATM    9  C   UNL     1      43.195 -18.938   1.479  1.00  0.00     0.001 A 
HETATM   10  C   UNL     1      42.162 -18.024   1.710  1.00  0.00     0.011 A 
ENDROOT
BRANCH   1  11
HETATM   11  C   UNL     1      40.990 -15.307   2.682  1.00  0.00     0.004 A 
HETATM   12  C   UNL     1      42.074 -14.460   2.444  1.00  0.00     0.017 A 
HETATM   13  C   UNL     1      43.485 -14.556   2.921  1.00  0.00     0.069 C 
HETATM   14  N   UNL     1      41.630 -13.413   1.666  1.00  0.00    -0.354 N 
HETATM   15  C   UNL     1      42.425 -12.275   1.249  1.00  0.00     0.156 C 
HETATM   16  C   UNL     1      40.305 -13.590   1.328  1.00  0.00     0.045 A 
HETATM   17  C   UNL     1      39.874 -14.762   1.954  1.00  0.00     0.001 A 
HETATM   18  C   UNL     1      39.451 -12.811   0.527  1.00  0.00     0.030 A 
HETATM   19  C   UNL     1      38.529 -15.155   1.773  1.00  0.00     0.014 A 
HETATM   20  C   UNL     1      37.671 -14.386   0.980  1.00  0.00     0.001 A 
HETATM   21  C   UNL     1      38.128 -13.228   0.365  1.00  0.00     0.002 A 
ENDBRANCH   1  11
BRANCH   2  22
HETATM   22  C   UNL     1      40.613 -15.711   5.897  1.00  0.00     0.229 C 
BRANCH  22  23
HETATM   23  C   UNL     1      40.609 -14.180   6.006  1.00  0.00     0.235 C 
HETATM   24  N   UNL     1      39.369 -13.586   6.056  1.00  0.00    -0.357 N 
HETATM   25  H   UNL     1      38.550 -14.175   5.893  1.00  0.00     0.162 HD
HETATM   26  O   UNL     1      41.647 -13.526   5.886  1.00  0.00    -0.272 OA
BRANCH  24  27
HETATM   27  C   UNL     1      39.207 -12.148   5.941  1.00  0.00     0.154 C 
BRANCH  27  28
HETATM   28  C   UNL     1      38.953 -11.687   4.498  1.00  0.00     0.139 C 
HETATM   29  O   UNL     1      37.910 -10.695   4.454  1.00  0.00    -0.384 OA
HETATM   30  C   UNL     1      38.090  -9.991   3.221  1.00  0.00     0.168 C 
HETATM   31  C   UNL     1      39.586  -9.899   3.016  1.00  0.00     0.029 C 
HETATM   32  C   UNL     1      40.164 -11.013   3.866  1.00  0.00     0.035 C 
ENDBRANCH  27  28
ENDBRANCH  24  27
ENDBRANCH  22  23
ENDBRANCH   2  22
TORSDOF 5
ENDMDL
MODEL 4
REMARK VINA RESULT:      -8.7      3.267      7.966
REMARK  5 active torsions:
REMARK  status: ('A' for Active; 'I' for Inactive)
REMARK    1  A    between atoms: C_7  and  C_8 
REMARK    2  A    between atoms: N_9  and  C_10 
REMARK    3  A    between atoms: C_10  and  C_11 
REMARK       I    between atoms: C_11  and  N_12 
REMARK    4  A    between atoms: N_12  and  C_13 
REMARK    5  A    between atoms: C_13  and  C_14 
ROOT
HETATM    1  C   UNL     1      42.336 -15.077   3.615  1.00  0.00     0.158 C 
HETATM    2  N   UNL     1      41.594 -16.316   3.776  1.00  0.00    -0.326 N 
HETATM    3  C   UNL     1      42.005 -16.993   4.914  1.00  0.00     0.255 C 
HETATM    4  O   UNL     1      41.723 -18.130   5.243  1.00  0.00    -0.267 OA
HETATM    5  C   UNL     1      42.884 -16.092   5.671  1.00  0.00     0.040 A 
HETATM    6  C   UNL     1      43.073 -14.938   4.913  1.00  0.00    -0.015 A 
HETATM    7  C   UNL     1      43.482 -16.289   6.901  1.00  0.00     0.017 A 
HETATM    8  C   UNL     1      44.307 -15.271   7.382  1.00  0.00     0.001 A 
HETATM    9  C   UNL     1      44.516 -14.102   6.628  1.00  0.00     0.001 A 
HETATM   10  C   UNL     1      43.903 -13.930   5.383  1.00  0.00     0.011 A 
ENDROOT
BRANCH   1  11
HETATM   11  C   UNL     1      41.466 -13.870   3.444  1.00  0.00     0.004 A 
HETATM   12  C   UNL     1      40.482 -13.451   4.343  1.00  0.00     0.017 A 
HETATM   13  C   UNL     1      40.079 -14.032   5.657  1.00  0.00     0.069 C 
HETATM   14  N   UNL     1      39.854 -12.351   3.800  1.00  0.00    -0.354 N 
HETATM   15  C   UNL     1      38.726 -11.651   4.382  1.00  0.00     0.156 C 
HETATM   16  C   UNL     1      40.447 -11.995   2.607  1.00  0.00     0.045 A 
HETATM   17  C   UNL     1      41.454 -12.930   2.354  1.00  0.00     0.001 A 
HETATM   18  C   UNL     1      40.175 -10.930   1.730  1.00  0.00     0.030 A 
HETATM   19  C   UNL     1      42.206 -12.789   1.166  1.00  0.00     0.014 A 
HETATM   20  C   UNL     1      41.942 -11.734   0.286  1.00  0.00     0.001 A 
HETATM   21  C   UNL     1      40.939 -10.817   0.566  1.00  0.00     0.002 A 
ENDBRANCH   1  11
BRANCH   2  22
HETATM   22  C   UNL     1      41.035 -16.994   2.615  1.00  0.00     0.229 C 
BRANCH  22  23
HETATM   23  C   UNL     1      42.025 -17.774   1.739  1.00  0.00     0.235 C 
HETATM   24  N   UNL     1      42.496 -18.953   2.269  1.00  0.00    -0.357 N 
HETATM   25  H   UNL     1      42.262 -19.167   3.240  1.00  0.00     0.162 HD
HETATM   26  O   UNL     1      42.490 -17.285   0.707  1.00  0.00    -0.272 OA
BRANCH  24  27
HETATM   27  C   UNL     1      43.594 -19.681   1.658  1.00  0.00     0.154 C 
BRANCH  27  28
HETATM   28  C   UNL     1      44.546 -20.304   2.687  1.00  0.00     0.139 C 
HETATM   29  O   UNL     1      44.164 -19.936   4.027  1.00  0.00    -0.384 OA
HETATM   30  C   UNL     1      44.752 -20.918   4.886  1.00  0.00     0.168 C 
HETATM   31  C   UNL     1      44.668 -22.227   4.132  1.00  0.00     0.029 C 
HETATM   32  C   UNL     1      44.523 -21.827   2.676  1.00  0.00     0.035 C 
ENDBRANCH  27  28
ENDBRANCH  24  27
ENDBRANCH  22  23
ENDBRANCH   2  22
TORSDOF 5
ENDMDL
MODEL 5
REMARK VINA RESULT:      -8.5      4.322      8.042
REMARK  5 active torsions:
REMARK  status: ('A' for Active; 'I' for Inactive)
REMARK    1  A    between atoms: C_7  and  C_8 
REMARK    2  A    between atoms: N_9  and  C_10 
REMARK    3  A    between atoms: C_10  and  C_11 
REMARK       I    between atoms: C_11  and  N_12 
REMARK    4  A    between atoms: N_12  and  C_13 
REMARK    5  A    between atoms: C_13  and  C_14 
ROOT
HETATM    1  C   UNL     1      40.536 -11.666   0.720  1.00  0.00     0.158 C 
HETATM    2  N   UNL     1      40.638 -12.943   0.034  1.00  0.00    -0.326 N 
HETATM    3  C   UNL     1      41.541 -12.868  -1.016  1.00  0.00     0.255 C 
HETATM    4  O   UNL     1      41.727 -13.690  -1.894  1.00  0.00    -0.267 OA
HETATM    5  C   UNL     1      42.241 -11.582  -0.906  1.00  0.00     0.040 A 
HETATM    6  C   UNL     1      41.662 -10.864   0.139  1.00  0.00    -0.015 A 
HETATM    7  C   UNL     1      43.273 -11.083  -1.679  1.00  0.00     0.017 A 
HETATM    8  C   UNL     1      43.737  -9.802  -1.376  1.00  0.00     0.001 A 
HETATM    9  C   UNL     1      43.160  -9.059  -0.329  1.00  0.00     0.001 A 
HETATM   10  C   UNL     1      42.112  -9.585   0.433  1.00  0.00     0.011 A 
ENDROOT
BRANCH   1  11
HETATM   11  C   UNL     1      40.749 -11.757   2.201  1.00  0.00     0.004 A 
HETATM   12  C   UNL     1      40.019 -11.060   3.166  1.00  0.00     0.017 A 
HETATM   13  C   UNL     1      38.872 -10.121   3.001  1.00  0.00     0.069 C 
HETATM   14  N   UNL     1      40.560 -11.354   4.398  1.00  0.00    -0.354 N 
HETATM   15  C   UNL     1      40.138 -10.783   5.662  1.00  0.00     0.156 C 
HETATM   16  C   UNL     1      41.575 -12.279   4.274  1.00  0.00     0.045 A 
HETATM   17  C   UNL     1      41.722 -12.546   2.911  1.00  0.00     0.001 A 
HETATM   18  C   UNL     1      42.377 -12.897   5.250  1.00  0.00     0.030 A 
HETATM   19  C   UNL     1      42.724 -13.463   2.519  1.00  0.00     0.014 A 
HETATM   20  C   UNL     1      43.529 -14.082   3.482  1.00  0.00     0.001 A 
HETATM   21  C   UNL     1      43.355 -13.801   4.830  1.00  0.00     0.002 A 
ENDBRANCH   1  11
BRANCH   2  22
HETATM   22  C   UNL     1      39.520 -13.875   0.047  1.00  0.00     0.229 C 
BRANCH  22  23
HETATM   23  C   UNL     1      39.594 -15.012   1.075  1.00  0.00     0.235 C 
HETATM   24  N   UNL     1      40.522 -15.995   0.818  1.00  0.00    -0.357 N 
HETATM   25  H   UNL     1      41.004 -15.973  -0.083  1.00  0.00     0.162 HD
HETATM   26  O   UNL     1      38.758 -15.118   1.975  1.00  0.00    -0.272 OA
BRANCH  24  27
HETATM   27  C   UNL     1      40.555 -17.232   1.577  1.00  0.00     0.154 C 
BRANCH  27  28
HETATM   28  C   UNL     1      41.953 -17.864   1.633  1.00  0.00     0.139 C 
HETATM   29  O   UNL     1      42.925 -17.014   0.993  1.00  0.00    -0.384 OA
HETATM   30  C   UNL     1      44.196 -17.408   1.517  1.00  0.00     0.168 C 
HETATM   31  C   UNL     1      43.953 -17.753   2.970  1.00  0.00     0.029 C 
HETATM   32  C   UNL     1      42.468 -18.048   3.055  1.00  0.00     0.035 C 
ENDBRANCH  27  28
ENDBRANCH  24  27
ENDBRANCH  22  23
ENDBRANCH   2  22
TORSDOF 5
ENDMDL
MODEL 6
REMARK VINA RESULT:      -8.5      3.739      8.647
REMARK  5 active torsions:
REMARK  status: ('A' for Active; 'I' for Inactive)
REMARK    1  A    between atoms: C_7  and  C_8 
REMARK    2  A    between atoms: N_9  and  C_10 
REMARK    3  A    between atoms: C_10  and  C_11 
REMARK       I    between atoms: C_11  and  N_12 
REMARK    4  A    between atoms: N_12  and  C_13 
REMARK    5  A    between atoms: C_13  and  C_14 
ROOT
HETATM    1  C   UNL     1      42.147 -15.027   3.416  1.00  0.00     0.158 C 
HETATM    2  N   UNL     1      41.355 -16.238   3.560  1.00  0.00    -0.326 N 
HETATM    3  C   UNL     1      41.753 -16.958   4.676  1.00  0.00     0.255 C 
HETATM    4  O   UNL     1      41.428 -18.090   4.982  1.00  0.00    -0.267 OA
HETATM    5  C   UNL     1      42.680 -16.113   5.439  1.00  0.00     0.040 A 
HETATM    6  C   UNL     1      42.908 -14.950   4.705  1.00  0.00    -0.015 A 
HETATM    7  C   UNL     1      43.288 -16.365   6.655  1.00  0.00     0.017 A 
HETATM    8  C   UNL     1      44.163 -15.394   7.146  1.00  0.00     0.001 A 
HETATM    9  C   UNL     1      44.410 -14.218   6.416  1.00  0.00     0.001 A 
HETATM   10  C   UNL     1      43.787 -13.990   5.185  1.00  0.00     0.011 A 
ENDROOT
BRANCH   1  11
HETATM   11  C   UNL     1      41.326 -13.781   3.287  1.00  0.00     0.004 A 
HETATM   12  C   UNL     1      40.318 -13.383   4.169  1.00  0.00     0.017 A 
HETATM   13  C   UNL     1      39.838 -14.030   5.426  1.00  0.00     0.069 C 
HETATM   14  N   UNL     1      39.752 -12.229   3.673  1.00  0.00    -0.354 N 
HETATM   15  C   UNL     1      38.625 -11.526   4.251  1.00  0.00     0.156 C 
HETATM   16  C   UNL     1      40.409 -11.821   2.531  1.00  0.00     0.045 A 
HETATM   17  C   UNL     1      41.394 -12.774   2.260  1.00  0.00     0.001 A 
HETATM   18  C   UNL     1      40.212 -10.693   1.714  1.00  0.00     0.030 A 
HETATM   19  C   UNL     1      42.202 -12.586   1.116  1.00  0.00     0.014 A 
HETATM   20  C   UNL     1      42.013 -11.470   0.295  1.00  0.00     0.001 A 
HETATM   21  C   UNL     1      41.030 -10.535   0.593  1.00  0.00     0.002 A 
ENDBRANCH   1  11
BRANCH   2  22
HETATM   22  C   UNL     1      40.750 -16.863   2.393  1.00  0.00     0.229 C 
BRANCH  22  23
HETATM   23  C   UNL     1      41.372 -16.515   1.033  1.00  0.00     0.235 C 
HETATM   24  N   UNL     1      40.612 -15.712   0.214  1.00  0.00    -0.357 N 
HETATM   25  H   UNL     1      39.653 -15.508   0.502  1.00  0.00     0.162 HD
HETATM   26  O   UNL     1      42.406 -17.060   0.643  1.00  0.00    -0.272 OA
BRANCH  24  27
HETATM   27  C   UNL     1      40.969 -15.481  -1.174  1.00  0.00     0.154 C 
BRANCH  27  28
HETATM   28  C   UNL     1      40.204 -14.308  -1.803  1.00  0.00     0.139 C 
HETATM   29  O   UNL     1      39.407 -14.755  -2.917  1.00  0.00    -0.384 OA
HETATM   30  C   UNL     1      38.395 -13.760  -3.099  1.00  0.00     0.168 C 
HETATM   31  C   UNL     1      38.023 -13.293  -1.709  1.00  0.00     0.029 C 
HETATM   32  C   UNL     1      39.212 -13.661  -0.845  1.00  0.00     0.035 C 
ENDBRANCH  27  28
ENDBRANCH  24  27
ENDBRANCH  22  23
ENDBRANCH   2  22
TORSDOF 5
ENDMDL
MODEL 7
REMARK VINA RESULT:      -8.4      4.723      8.621
REMARK  5 active torsions:
REMARK  status: ('A' for Active; 'I' for Inactive)
REMARK    1  A    between atoms: C_7  and  C_8 
REMARK    2  A    between atoms: N_9  and  C_10 
REMARK    3  A    between atoms: C_10  and  C_11 
REMARK       I    between atoms: C_11  and  N_12 
REMARK    4  A    between atoms: N_12  and  C_13 
REMARK    5  A    between atoms: C_13  and  C_14 
ROOT
HETATM    1  C   UNL     1      39.997 -13.794   0.475  1.00  0.00     0.158 C 
HETATM    2  N   UNL     1      41.016 -14.723   0.933  1.00  0.00    -0.326 N 
HETATM    3  C   UNL     1      41.349 -15.623  -0.068  1.00  0.00     0.255 C 
HETATM    4  O   UNL     1      42.025 -16.630   0.035  1.00  0.00    -0.267 OA
HETATM    5  C   UNL     1      40.712 -15.161  -1.308  1.00  0.00     0.040 A 
HETATM    6  C   UNL     1      39.917 -14.058  -0.999  1.00  0.00    -0.015 A 
HETATM    7  C   UNL     1      40.805 -15.686  -2.583  1.00  0.00     0.017 A 
HETATM    8  C   UNL     1      40.060 -15.064  -3.587  1.00  0.00     0.001 A 
HETATM    9  C   UNL     1      39.247 -13.954  -3.293  1.00  0.00     0.001 A 
HETATM   10  C   UNL     1      39.166 -13.447  -1.992  1.00  0.00     0.011 A 
ENDROOT
BRANCH   1  11
HETATM   11  C   UNL     1      40.362 -12.354   0.668  1.00  0.00     0.004 A 
HETATM   12  C   UNL     1      39.696 -11.459   1.508  1.00  0.00     0.017 A 
HETATM   13  C   UNL     1      38.534 -11.685   2.417  1.00  0.00     0.069 C 
HETATM   14  N   UNL     1      40.281 -10.221   1.356  1.00  0.00    -0.354 N 
HETATM   15  C   UNL     1      39.846  -8.996   1.998  1.00  0.00     0.156 C 
HETATM   16  C   UNL     1      41.357 -10.297   0.497  1.00  0.00     0.045 A 
HETATM   17  C   UNL     1      41.429 -11.616   0.044  1.00  0.00     0.001 A 
HETATM   18  C   UNL     1      42.268  -9.310   0.078  1.00  0.00     0.030 A 
HETATM   19  C   UNL     1      42.452 -11.948  -0.873  1.00  0.00     0.014 A 
HETATM   20  C   UNL     1      43.361 -10.974  -1.297  1.00  0.00     0.001 A 
HETATM   21  C   UNL     1      43.269  -9.671  -0.826  1.00  0.00     0.002 A 
ENDBRANCH   1  11
BRANCH   2  22
HETATM   22  C   UNL     1      41.141 -15.038   2.349  1.00  0.00     0.229 C 
BRANCH  22  23
HETATM   23  C   UNL     1      42.463 -15.682   2.789  1.00  0.00     0.235 C 
HETATM   24  N   UNL     1      42.402 -17.020   3.106  1.00  0.00    -0.357 N 
HETATM   25  H   UNL     1      41.480 -17.459   3.150  1.00  0.00     0.162 HD
HETATM   26  O   UNL     1      43.468 -15.001   3.004  1.00  0.00    -0.272 OA
BRANCH  24  27
HETATM   27  C   UNL     1      43.513 -17.705   3.742  1.00  0.00     0.154 C 
BRANCH  27  28
HETATM   28  C   UNL     1      44.121 -18.805   2.861  1.00  0.00     0.139 C 
HETATM   29  O   UNL     1      44.649 -19.875   3.670  1.00  0.00    -0.384 OA
HETATM   30  C   UNL     1      44.721 -21.017   2.811  1.00  0.00     0.168 C 
HETATM   31  C   UNL     1      43.507 -20.931   1.911  1.00  0.00     0.029 C 
HETATM   32  C   UNL     1      43.101 -19.471   1.947  1.00  0.00     0.035 C 
ENDBRANCH  27  28
ENDBRANCH  24  27
ENDBRANCH  22  23
ENDBRANCH   2  22
TORSDOF 5
ENDMDL
MODEL 8
REMARK VINA RESULT:      -8.3      3.446      6.651
REMARK  5 active torsions:
REMARK  status: ('A' for Active; 'I' for Inactive)
REMARK    1  A    between atoms: C_7  and  C_8 
REMARK    2  A    between atoms: N_9  and  C_10 
REMARK    3  A    between atoms: C_10  and  C_11 
REMARK       I    between atoms: C_11  and  N_12 
REMARK    4  A    between atoms: N_12  and  C_13 
REMARK    5  A    between atoms: C_13  and  C_14 
ROOT
HETATM    1  C   UNL     1      40.282 -12.924   1.785  1.00  0.00     0.158 C 
HETATM    2  N   UNL     1      40.538 -14.240   1.223  1.00  0.00    -0.326 N 
HETATM    3  C   UNL     1      41.250 -14.139   0.037  1.00  0.00     0.255 C 
HETATM    4  O   UNL     1      41.472 -15.021  -0.772  1.00  0.00    -0.267 OA
HETATM    5  C   UNL     1      41.688 -12.744  -0.098  1.00  0.00     0.040 A 
HETATM    6  C   UNL     1      41.131 -12.014   0.950  1.00  0.00    -0.015 A 
HETATM    7  C   UNL     1      42.481 -12.171  -1.075  1.00  0.00     0.017 A 
HETATM    8  C   UNL     1      42.718 -10.798  -0.982  1.00  0.00     0.001 A 
HETATM    9  C   UNL     1      42.159 -10.044   0.065  1.00  0.00     0.001 A 
HETATM   10  C   UNL     1      41.355 -10.647   1.037  1.00  0.00     0.011 A 
ENDROOT
BRANCH   1  11
HETATM   11  C   UNL     1      40.716 -12.783   3.212  1.00  0.00     0.004 A 
HETATM   12  C   UNL     1      39.975 -12.169   4.224  1.00  0.00     0.017 A 
HETATM   13  C   UNL     1      38.615 -11.556   4.175  1.00  0.00     0.069 C 
HETATM   14  N   UNL     1      40.738 -12.174   5.371  1.00  0.00    -0.354 N 
HETATM   15  C   UNL     1      40.367 -11.571   6.635  1.00  0.00     0.156 C 
HETATM   16  C   UNL     1      41.928 -12.839   5.157  1.00  0.00     0.045 A 
HETATM   17  C   UNL     1      41.947 -13.226   3.815  1.00  0.00     0.001 A 
HETATM   18  C   UNL     1      42.989 -13.125   6.034  1.00  0.00     0.030 A 
HETATM   19  C   UNL     1      43.083 -13.919   3.340  1.00  0.00     0.014 A 
HETATM   20  C   UNL     1      44.145 -14.207   4.204  1.00  0.00     0.001 A 
HETATM   21  C   UNL     1      44.096 -13.814   5.535  1.00  0.00     0.002 A 
ENDBRANCH   1  11
BRANCH   2  22
HETATM   22  C   UNL     1      39.642 -15.350   1.512  1.00  0.00     0.229 C 
BRANCH  22  23
HETATM   23  C   UNL     1      40.281 -16.594   2.145  1.00  0.00     0.235 C 
HETATM   24  N   UNL     1      40.436 -16.558   3.512  1.00  0.00    -0.357 N 
HETATM   25  H   UNL     1      40.239 -15.677   3.992  1.00  0.00     0.162 HD
HETATM   26  O   UNL     1      40.772 -17.486   1.452  1.00  0.00    -0.272 OA
BRANCH  24  27
HETATM   27  C   UNL     1      41.217 -17.558   4.219  1.00  0.00     0.154 C 
BRANCH  27  28
HETATM   28  C   UNL     1      42.181 -16.950   5.246  1.00  0.00     0.139 C 
HETATM   29  O   UNL     1      41.674 -17.112   6.584  1.00  0.00    -0.384 OA
HETATM   30  C   UNL     1      42.806 -16.991   7.451  1.00  0.00     0.168 C 
HETATM   31  C   UNL     1      43.957 -17.644   6.717  1.00  0.00     0.029 C 
HETATM   32  C   UNL     1      43.545 -17.628   5.258  1.00  0.00     0.035 C 
ENDBRANCH  27  28
ENDBRANCH  24  27
ENDBRANCH  22  23
ENDBRANCH   2  22
TORSDOF 5
ENDMDL
MODEL 9
REMARK VINA RESULT:      -8.3      3.238      6.861
REMARK  5 active torsions:
REMARK  status: ('A' for Active; 'I' for Inactive)
REMARK    1  A    between atoms: C_7  and  C_8 
REMARK    2  A    between atoms: N_9  and  C_10 
REMARK    3  A    between atoms: C_10  and  C_11 
REMARK       I    between atoms: C_11  and  N_12 
REMARK    4  A    between atoms: N_12  and  C_13 
REMARK    5  A    between atoms: C_13  and  C_14 
ROOT
HETATM    1  C   UNL     1      42.432 -17.071   4.409  1.00  0.00     0.158 C 
HETATM    2  N   UNL     1      42.117 -16.383   3.169  1.00  0.00    -0.326 N 
HETATM    3  C   UNL     1      42.488 -15.048   3.237  1.00  0.00     0.255 C 
HETATM    4  O   UNL     1      42.209 -14.160   2.453  1.00  0.00    -0.267 OA
HETATM    5  C   UNL     1      43.279 -14.872   4.462  1.00  0.00     0.040 A 
HETATM    6  C   UNL     1      43.267 -16.078   5.160  1.00  0.00    -0.015 A 
HETATM    7  C   UNL     1      43.922 -13.741   4.927  1.00  0.00     0.017 A 
HETATM    8  C   UNL     1      44.583 -13.839   6.154  1.00  0.00     0.001 A 
HETATM    9  C   UNL     1      44.576 -15.046   6.876  1.00  0.00     0.001 A 
HETATM   10  C   UNL     1      43.911 -16.175   6.385  1.00  0.00     0.011 A 
ENDROOT
BRANCH   1  11
HETATM   11  C   UNL     1      43.247 -18.314   4.221  1.00  0.00     0.004 A 
HETATM   12  C   UNL     1      43.901 -18.679   3.042  1.00  0.00     0.017 A 
HETATM   13  C   UNL     1      43.996 -17.957   1.739  1.00  0.00     0.069 C 
HETATM   14  N   UNL     1      44.477 -19.914   3.243  1.00  0.00    -0.354 N 
HETATM   15  C   UNL     1      45.193 -20.684   2.245  1.00  0.00     0.156 C 
HETATM   16  C   UNL     1      44.280 -20.334   4.541  1.00  0.00     0.045 A 
HETATM   17  C   UNL     1      43.508 -19.359   5.176  1.00  0.00     0.001 A 
HETATM   18  C   UNL     1      44.714 -21.496   5.205  1.00  0.00     0.030 A 
HETATM   19  C   UNL     1      43.154 -19.570   6.528  1.00  0.00     0.014 A 
HETATM   20  C   UNL     1      43.579 -20.722   7.197  1.00  0.00     0.001 A 
HETATM   21  C   UNL     1      44.350 -21.673   6.541  1.00  0.00     0.002 A 
ENDBRANCH   1  11
BRANCH   2  22
HETATM   22  C   UNL     1      41.034 -16.857   2.319  1.00  0.00     0.229 C 
BRANCH  22  23
HETATM   23  C   UNL     1      40.050 -15.793   1.813  1.00  0.00     0.235 C 
HETATM   24  N   UNL     1      40.266 -15.337   0.533  1.00  0.00    -0.357 N 
HETATM   25  H   UNL     1      41.121 -15.633   0.058  1.00  0.00     0.162 HD
HETATM   26  O   UNL     1      39.230 -15.268   2.568  1.00  0.00    -0.272 OA
BRANCH  24  27
HETATM   27  C   UNL     1      39.558 -14.185   0.003  1.00  0.00     0.154 C 
BRANCH  27  28
HETATM   28  C   UNL     1      40.159 -13.664  -1.310  1.00  0.00     0.139 C 
HETATM   29  O   UNL     1      41.554 -13.344  -1.143  1.00  0.00    -0.384 OA
HETATM   30  C   UNL     1      42.120 -13.362  -2.457  1.00  0.00     0.168 C 
HETATM   31  C   UNL     1      41.419 -14.483  -3.192  1.00  0.00     0.029 C 
HETATM   32  C   UNL     1      40.124 -14.694  -2.432  1.00  0.00     0.035 C 
ENDBRANCH  27  28
ENDBRANCH  24  27
ENDBRANCH  22  23
ENDBRANCH   2  22
TORSDOF 5
ENDMDL
MODEL 10
REMARK VINA RESULT:      -8.2      3.290      6.666
REMARK  5 active torsions:
REMARK  status: ('A' for Active; 'I' for Inactive)
REMARK    1  A    between atoms: C_7  and  C_8 
REMARK    2  A    between atoms: N_9  and  C_10 
REMARK    3  A    between atoms: C_10  and  C_11 
REMARK       I    between atoms: C_11  and  N_12 
REMARK    4  A    between atoms: N_12  and  C_13 
REMARK    5  A    between atoms: C_13  and  C_14 
ROOT
HETATM    1  C   UNL     1      40.710 -15.340   4.008  1.00  0.00     0.158 C 
HETATM    2  N   UNL     1      41.331 -15.167   2.706  1.00  0.00    -0.326 N 
HETATM    3  C   UNL     1      40.979 -13.946   2.150  1.00  0.00     0.255 C 
HETATM    4  O   UNL     1      41.175 -13.567   1.010  1.00  0.00    -0.267 OA
HETATM    5  C   UNL     1      40.289 -13.170   3.188  1.00  0.00     0.040 A 
HETATM    6  C   UNL     1      40.139 -13.986   4.308  1.00  0.00    -0.015 A 
HETATM    7  C   UNL     1      39.812 -11.874   3.134  1.00  0.00     0.017 A 
HETATM    8  C   UNL     1      39.157 -11.385   4.266  1.00  0.00     0.001 A 
HETATM    9  C   UNL     1      38.990 -12.197   5.403  1.00  0.00     0.001 A 
HETATM   10  C   UNL     1      39.477 -13.508   5.429  1.00  0.00     0.011 A 
ENDROOT
BRANCH   1  11
HETATM   11  C   UNL     1      41.678 -15.686   5.098  1.00  0.00     0.004 A 
HETATM   12  C   UNL     1      41.590 -16.803   5.931  1.00  0.00     0.017 A 
HETATM   13  C   UNL     1      40.590 -17.911   5.941  1.00  0.00     0.069 C 
HETATM   14  N   UNL     1      42.618 -16.731   6.845  1.00  0.00    -0.354 N 
HETATM   15  C   UNL     1      42.846 -17.660   7.934  1.00  0.00     0.156 C 
HETATM   16  C   UNL     1      43.420 -15.638   6.587  1.00  0.00     0.045 A 
HETATM   17  C   UNL     1      42.854 -14.961   5.505  1.00  0.00     0.001 A 
HETATM   18  C   UNL     1      44.591 -15.190   7.223  1.00  0.00     0.030 A 
HETATM   19  C   UNL     1      43.490 -13.782   5.054  1.00  0.00     0.014 A 
HETATM   20  C   UNL     1      44.655 -13.326   5.680  1.00  0.00     0.001 A 
HETATM   21  C   UNL     1      45.198 -14.024   6.751  1.00  0.00     0.002 A 
ENDBRANCH   1  11
BRANCH   2  22
HETATM   22  C   UNL     1      41.684 -16.327   1.900  1.00  0.00     0.229 C 
BRANCH  22  23
HETATM   23  C   UNL     1      42.999 -17.032   2.261  1.00  0.00     0.235 C 
HETATM   24  N   UNL     1      42.881 -18.154   3.049  1.00  0.00    -0.357 N 
HETATM   25  H   UNL     1      41.962 -18.369   3.439  1.00  0.00     0.162 HD
HETATM   26  O   UNL     1      44.091 -16.524   2.000  1.00  0.00    -0.272 OA
BRANCH  24  27
HETATM   27  C   UNL     1      44.040 -18.793   3.646  1.00  0.00     0.154 C 
BRANCH  27  28
HETATM   28  C   UNL     1      44.508 -20.031   2.870  1.00  0.00     0.139 C 
HETATM   29  O   UNL     1      44.590 -21.179   3.738  1.00  0.00    -0.384 OA
HETATM   30  C   UNL     1      44.533 -22.323   2.881  1.00  0.00     0.168 C 
HETATM   31  C   UNL     1      43.571 -21.958   1.771  1.00  0.00     0.029 C 
HETATM   32  C   UNL     1      43.544 -20.442   1.765  1.00  0.00     0.035 C 
ENDBRANCH  27  28
ENDBRANCH  24  27
ENDBRANCH  22  23
ENDBRANCH   2  22
TORSDOF 5
ENDMDL
