MODEL 1
REMARK VINA RESULT:      -9.5      0.000      0.000
REMARK  3 active torsions:
REMARK  status: ('A' for Active; 'I' for Inactive)
REMARK    1  A    between atoms: C_8  and  C_9 
REMARK       I    between atoms: C_9  and  N_10 
REMARK    2  A    between atoms: N_10  and  C_11 
REMARK    3  A    between atoms: C_18  and  C_19 
REMARK       I    between atoms: C_19  and  N_20 
ROOT
HETATM    1  C   UNL     1      41.699 -15.709   1.514  1.00  0.00     0.035 A 
HETATM    2  C   UNL     1      41.675 -15.565   0.120  1.00  0.00     0.046 A 
HETATM    3  C   UNL     1      40.623 -14.845  -0.490  1.00  0.00     0.030 A 
HETATM    4  C   UNL     1      39.634 -14.293   0.315  1.00  0.00     0.063 A 
HETATM    5  N   UNL     1      38.771 -13.673  -0.545  1.00  0.00    -0.277 N 
HETATM    6  H   UNL     1      37.927 -13.164  -0.306  1.00  0.00     0.189 HD
HETATM    7  N   UNL     1      39.109 -13.770  -1.841  1.00  0.00    -0.168 NA
HETATM    8  C   UNL     1      40.253 -14.492  -1.823  1.00  0.00     0.156 A 
HETATM    9  C   UNL     1      39.628 -14.412   1.705  1.00  0.00     0.034 A 
HETATM   10  C   UNL     1      40.680 -15.130   2.285  1.00  0.00     0.032 A 
ENDROOT
BRANCH   1  11
HETATM   11  N   UNL     1      42.700 -16.411   2.216  1.00  0.00    -0.327 N 
HETATM   12  C   UNL     1      42.534 -17.333   3.238  1.00  0.00     0.231 C 
HETATM   13  O   UNL     1      41.463 -17.717   3.699  1.00  0.00    -0.272 OA
HETATM   14  H   UNL     1      43.657 -16.170   1.984  1.00  0.00     0.169 HD
BRANCH  12  15
HETATM   15  C   UNL     1      43.844 -17.927   3.762  1.00  0.00     0.116 C 
HETATM   16  C   UNL     1      44.047 -19.387   3.407  1.00  0.00    -0.012 A 
HETATM   17  C   UNL     1      43.816 -19.848   2.101  1.00  0.00     0.011 A 
HETATM   18  C   UNL     1      44.503 -20.295   4.371  1.00  0.00     0.075 A 
HETATM   19  C   UNL     1      43.988 -21.196   1.784  1.00  0.00     0.001 A 
HETATM   20  C   UNL     1      44.402 -22.096   2.763  1.00  0.00     0.003 A 
HETATM   21  C   UNL     1      44.660 -21.644   4.057  1.00  0.00     0.037 A 
HETATM   22  O   UNL     1      44.790 -19.943   5.663  1.00  0.00    -0.351 OA
HETATM   23  C   UNL     1      45.052 -18.549   5.838  1.00  0.00     0.176 C 
HETATM   24  C   UNL     1      43.922 -17.711   5.276  1.00  0.00     0.045 C 
ENDBRANCH  12  15
ENDBRANCH   1  11
BRANCH   8  25
HETATM   25  C   UNL     1      40.961 -14.824  -3.068  1.00  0.00     0.270 C 
HETATM   26  N   UNL     1      42.181 -14.218  -3.195  1.00  0.00    -0.365 N 
HETATM   27  H   UNL     1      42.499 -13.607  -2.452  1.00  0.00     0.159 HD
HETATM   28  H   UNL     1      42.738 -14.386  -4.017  1.00  0.00     0.159 HD
HETATM   29  O   UNL     1      40.532 -15.573  -3.939  1.00  0.00    -0.266 OA
ENDBRANCH   8  25
TORSDOF 3
ENDMDL
MODEL 2
REMARK VINA RESULT:      -9.2      1.248      2.617
REMARK  3 active torsions:
REMARK  status: ('A' for Active; 'I' for Inactive)
REMARK    1  A    between atoms: C_8  and  C_9 
REMARK       I    between atoms: C_9  and  N_10 
REMARK    2  A    between atoms: N_10  and  C_11 
REMARK    3  A    between atoms: C_18  and  C_19 
REMARK       I    between atoms: C_19  and  N_20 
ROOT
HETATM    1  C   UNL     1      40.723 -16.151   1.404  1.00  0.00     0.035 A 
HETATM    2  C   UNL     1      41.151 -15.777   0.123  1.00  0.00     0.046 A 
HETATM    3  C   UNL     1      40.494 -14.725  -0.554  1.00  0.00     0.030 A 
HETATM    4  C   UNL     1      39.434 -14.083   0.075  1.00  0.00     0.063 A 
HETATM    5  N   UNL     1      39.009 -13.132  -0.811  1.00  0.00    -0.277 N 
HETATM    6  H   UNL     1      38.248 -12.474  -0.687  1.00  0.00     0.189 HD
HETATM    7  N   UNL     1      39.699 -13.096  -1.963  1.00  0.00    -0.168 NA
HETATM    8  C   UNL     1      40.622 -14.074  -1.818  1.00  0.00     0.156 A 
HETATM    9  C   UNL     1      38.983 -14.425   1.350  1.00  0.00     0.034 A 
HETATM   10  C   UNL     1      39.651 -15.470   1.999  1.00  0.00     0.032 A 
ENDROOT
BRANCH   1  11
HETATM   11  N   UNL     1      41.309 -17.189   2.158  1.00  0.00    -0.327 N 
HETATM   12  C   UNL     1      42.568 -17.213   2.738  1.00  0.00     0.231 C 
HETATM   13  O   UNL     1      43.395 -16.306   2.709  1.00  0.00    -0.272 OA
HETATM   14  H   UNL     1      40.765 -18.041   2.237  1.00  0.00     0.169 HD
BRANCH  12  15
HETATM   15  C   UNL     1      42.874 -18.497   3.513  1.00  0.00     0.116 C 
HETATM   16  C   UNL     1      43.079 -18.287   5.000  1.00  0.00    -0.012 A 
HETATM   17  C   UNL     1      42.189 -17.495   5.744  1.00  0.00     0.011 A 
HETATM   18  C   UNL     1      44.142 -18.911   5.665  1.00  0.00     0.075 A 
HETATM   19  C   UNL     1      42.392 -17.290   7.109  1.00  0.00     0.001 A 
HETATM   20  C   UNL     1      43.478 -17.884   7.750  1.00  0.00     0.003 A 
HETATM   21  C   UNL     1      44.352 -18.694   7.026  1.00  0.00     0.037 A 
HETATM   22  O   UNL     1      45.045 -19.729   5.042  1.00  0.00    -0.351 OA
HETATM   23  C   UNL     1      44.573 -20.280   3.810  1.00  0.00     0.176 C 
HETATM   24  C   UNL     1      44.086 -19.188   2.881  1.00  0.00     0.045 C 
ENDBRANCH  12  15
ENDBRANCH   1  11
BRANCH   8  25
HETATM   25  C   UNL     1      41.595 -14.363  -2.882  1.00  0.00     0.270 C 
HETATM   26  N   UNL     1      42.706 -13.564  -2.853  1.00  0.00    -0.365 N 
HETATM   27  H   UNL     1      42.777 -12.858  -2.130  1.00  0.00     0.159 HD
HETATM   28  H   UNL     1      43.428 -13.689  -3.544  1.00  0.00     0.159 HD
HETATM   29  O   UNL     1      41.463 -15.232  -3.735  1.00  0.00    -0.266 OA
ENDBRANCH   8  25
TORSDOF 3
ENDMDL
MODEL 3
REMARK VINA RESULT:      -8.9      2.700      8.136
REMARK  3 active torsions:
REMARK  status: ('A' for Active; 'I' for Inactive)
REMARK    1  A    between atoms: C_8  and  C_9 
REMARK       I    between atoms: C_9  and  N_10 
REMARK    2  A    between atoms: N_10  and  C_11 
REMARK    3  A    between atoms: C_18  and  C_19 
REMARK       I    between atoms: C_19  and  N_20 
ROOT
HETATM    1  C   UNL     1      43.128 -17.349   2.452  1.00  0.00     0.035 A 
HETATM    2  C   UNL     1      43.373 -17.544   3.818  1.00  0.00     0.046 A 
HETATM    3  C   UNL     1      43.900 -18.777   4.264  1.00  0.00     0.030 A 
HETATM    4  C   UNL     1      44.167 -19.770   3.329  1.00  0.00     0.063 A 
HETATM    5  N   UNL     1      44.656 -20.823   4.049  1.00  0.00    -0.277 N 
HETATM    6  H   UNL     1      44.956 -21.724   3.692  1.00  0.00     0.189 HD
HETATM    7  N   UNL     1      44.735 -20.607   5.372  1.00  0.00    -0.168 NA
HETATM    8  C   UNL     1      44.271 -19.344   5.521  1.00  0.00     0.156 A 
HETATM    9  C   UNL     1      43.940 -19.609   1.962  1.00  0.00     0.034 A 
HETATM   10  C   UNL     1      43.417 -18.379   1.546  1.00  0.00     0.032 A 
ENDROOT
BRANCH   1  11
HETATM   11  N   UNL     1      42.599 -16.160   1.909  1.00  0.00    -0.327 N 
HETATM   12  C   UNL     1      41.277 -15.881   1.600  1.00  0.00     0.231 C 
HETATM   13  O   UNL     1      40.320 -16.630   1.772  1.00  0.00    -0.272 OA
HETATM   14  H   UNL     1      43.276 -15.447   1.661  1.00  0.00     0.169 HD
BRANCH  12  15
HETATM   15  C   UNL     1      41.050 -14.472   1.044  1.00  0.00     0.116 C 
HETATM   16  C   UNL     1      41.303 -14.349  -0.446  1.00  0.00    -0.012 A 
HETATM   17  C   UNL     1      40.784 -15.295  -1.345  1.00  0.00     0.011 A 
HETATM   18  C   UNL     1      42.031 -13.266  -0.954  1.00  0.00     0.075 A 
HETATM   19  C   UNL     1      41.035 -15.186  -2.713  1.00  0.00     0.001 A 
HETATM   20  C   UNL     1      41.796 -14.125  -3.201  1.00  0.00     0.003 A 
HETATM   21  C   UNL     1      42.293 -13.166  -2.320  1.00  0.00     0.037 A 
HETATM   22  O   UNL     1      42.551 -12.271  -0.170  1.00  0.00    -0.351 OA
HETATM   23  C   UNL     1      41.916 -12.148   1.105  1.00  0.00     0.176 C 
HETATM   24  C   UNL     1      41.903 -13.477   1.834  1.00  0.00     0.045 C 
ENDBRANCH  12  15
ENDBRANCH   1  11
BRANCH   8  25
HETATM   25  C   UNL     1      44.194 -18.715   6.848  1.00  0.00     0.270 C 
HETATM   26  N   UNL     1      43.694 -19.533   7.824  1.00  0.00    -0.365 N 
HETATM   27  H   UNL     1      43.421 -20.477   7.575  1.00  0.00     0.159 HD
HETATM   28  H   UNL     1      43.603 -19.187   8.766  1.00  0.00     0.159 HD
HETATM   29  O   UNL     1      44.539 -17.567   7.099  1.00  0.00    -0.266 OA
ENDBRANCH   8  25
TORSDOF 3
ENDMDL
MODEL 4
REMARK VINA RESULT:      -8.5      2.532      8.490
REMARK  3 active torsions:
REMARK  status: ('A' for Active; 'I' for Inactive)
REMARK    1  A    between atoms: C_8  and  C_9 
REMARK       I    between atoms: C_9  and  N_10 
REMARK    2  A    between atoms: N_10  and  C_11 
REMARK    3  A    between atoms: C_18  and  C_19 
REMARK       I    between atoms: C_19  and  N_20 
ROOT
HETATM    1  C   UNL     1      43.174 -17.536   2.583  1.00  0.00     0.035 A 
HETATM    2  C   UNL     1      43.011 -17.437   3.972  1.00  0.00     0.046 A 
HETATM    3  C   UNL     1      43.510 -18.460   4.808  1.00  0.00     0.030 A 
HETATM    4  C   UNL     1      44.159 -19.544   4.228  1.00  0.00     0.063 A 
HETATM    5  N   UNL     1      44.519 -20.351   5.271  1.00  0.00    -0.277 N 
HETATM    6  H   UNL     1      45.012 -21.236   5.220  1.00  0.00     0.189 HD
HETATM    7  N   UNL     1      44.166 -19.890   6.481  1.00  0.00    -0.168 NA
HETATM    8  C   UNL     1      43.541 -18.720   6.212  1.00  0.00     0.156 A 
HETATM    9  C   UNL     1      44.343 -19.674   2.851  1.00  0.00     0.034 A 
HETATM   10  C   UNL     1      43.838 -18.647   2.044  1.00  0.00     0.032 A 
ENDROOT
BRANCH   1  11
HETATM   11  N   UNL     1      42.707 -16.573   1.664  1.00  0.00    -0.327 N 
HETATM   12  C   UNL     1      41.514 -16.579   0.959  1.00  0.00     0.231 C 
HETATM   13  O   UNL     1      40.634 -17.432   1.033  1.00  0.00    -0.272 OA
HETATM   14  H   UNL     1      43.347 -15.816   1.453  1.00  0.00     0.169 HD
BRANCH  12  15
HETATM   15  C   UNL     1      41.314 -15.356   0.059  1.00  0.00     0.116 C 
HETATM   16  C   UNL     1      40.168 -14.459   0.483  1.00  0.00    -0.012 A 
HETATM   17  C   UNL     1      40.009 -14.081   1.826  1.00  0.00     0.011 A 
HETATM   18  C   UNL     1      39.267 -13.963  -0.468  1.00  0.00     0.075 A 
HETATM   19  C   UNL     1      38.941 -13.269   2.213  1.00  0.00     0.001 A 
HETATM   20  C   UNL     1      38.029 -12.816   1.262  1.00  0.00     0.003 A 
HETATM   21  C   UNL     1      38.193 -13.163  -0.078  1.00  0.00     0.037 A 
HETATM   22  O   UNL     1      39.352 -14.242  -1.805  1.00  0.00    -0.351 OA
HETATM   23  C   UNL     1      40.651 -14.660  -2.228  1.00  0.00     0.176 C 
HETATM   24  C   UNL     1      41.145 -15.822  -1.389  1.00  0.00     0.045 C 
ENDBRANCH  12  15
ENDBRANCH   1  11
BRANCH   8  25
HETATM   25  C   UNL     1      42.994 -17.886   7.291  1.00  0.00     0.270 C 
HETATM   26  N   UNL     1      43.643 -18.025   8.488  1.00  0.00    -0.365 N 
HETATM   27  H   UNL     1      44.424 -18.669   8.544  1.00  0.00     0.159 HD
HETATM   28  H   UNL     1      43.337 -17.493   9.286  1.00  0.00     0.159 HD
HETATM   29  O   UNL     1      42.045 -17.120   7.172  1.00  0.00    -0.266 OA
ENDBRANCH   8  25
TORSDOF 3
ENDMDL
MODEL 5
REMARK VINA RESULT:      -8.4      3.481      5.503
REMARK  3 active torsions:
REMARK  status: ('A' for Active; 'I' for Inactive)
REMARK    1  A    between atoms: C_8  and  C_9 
REMARK       I    between atoms: C_9  and  N_10 
REMARK    2  A    between atoms: N_10  and  C_11 
REMARK    3  A    between atoms: C_18  and  C_19 
REMARK       I    between atoms: C_19  and  N_20 
ROOT
HETATM    1  C   UNL     1      40.038 -14.773   3.453  1.00  0.00     0.035 A 
HETATM    2  C   UNL     1      40.064 -14.010   4.628  1.00  0.00     0.046 A 
HETATM    3  C   UNL     1      39.471 -12.727   4.640  1.00  0.00     0.030 A 
HETATM    4  C   UNL     1      38.870 -12.255   3.479  1.00  0.00     0.063 A 
HETATM    5  N   UNL     1      38.398 -11.012   3.796  1.00  0.00    -0.277 N 
HETATM    6  H   UNL     1      37.902 -10.371   3.186  1.00  0.00     0.189 HD
HETATM    7  N   UNL     1      38.636 -10.630   5.061  1.00  0.00    -0.168 NA
HETATM    8  C   UNL     1      39.298 -11.681   5.597  1.00  0.00     0.156 A 
HETATM    9  C   UNL     1      38.822 -12.989   2.294  1.00  0.00     0.034 A 
HETATM   10  C   UNL     1      39.417 -14.256   2.308  1.00  0.00     0.032 A 
ENDROOT
BRANCH   1  11
HETATM   11  N   UNL     1      40.605 -16.060   3.337  1.00  0.00    -0.327 N 
HETATM   12  C   UNL     1      41.928 -16.385   3.082  1.00  0.00     0.231 C 
HETATM   13  O   UNL     1      42.853 -15.592   2.932  1.00  0.00    -0.272 OA
HETATM   14  H   UNL     1      39.956 -16.837   3.390  1.00  0.00     0.169 HD
BRANCH  12  15
HETATM   15  C   UNL     1      42.205 -17.891   3.046  1.00  0.00     0.116 C 
HETATM   16  C   UNL     1      42.946 -18.412   4.262  1.00  0.00    -0.012 A 
HETATM   17  C   UNL     1      42.552 -18.041   5.558  1.00  0.00     0.011 A 
HETATM   18  C   UNL     1      44.017 -19.303   4.112  1.00  0.00     0.075 A 
HETATM   19  C   UNL     1      43.250 -18.510   6.672  1.00  0.00     0.001 A 
HETATM   20  C   UNL     1      44.338 -19.363   6.506  1.00  0.00     0.003 A 
HETATM   21  C   UNL     1      44.721 -19.759   5.225  1.00  0.00     0.037 A 
HETATM   22  O   UNL     1      44.459 -19.754   2.897  1.00  0.00    -0.351 OA
HETATM   23  C   UNL     1      43.489 -19.646   1.852  1.00  0.00     0.176 C 
HETATM   24  C   UNL     1      42.953 -18.233   1.754  1.00  0.00     0.045 C 
ENDBRANCH  12  15
ENDBRANCH   1  11
BRANCH   8  25
HETATM   25  C   UNL     1      39.746 -11.662   6.997  1.00  0.00     0.270 C 
HETATM   26  N   UNL     1      41.102 -11.768   7.151  1.00  0.00    -0.365 N 
HETATM   27  H   UNL     1      41.679 -11.849   6.321  1.00  0.00     0.159 HD
HETATM   28  H   UNL     1      41.500 -11.765   8.075  1.00  0.00     0.159 HD
HETATM   29  O   UNL     1      39.005 -11.561   7.968  1.00  0.00    -0.266 OA
ENDBRANCH   8  25
TORSDOF 3
ENDMDL
MODEL 6
REMARK VINA RESULT:      -8.3      1.900      2.758
REMARK  3 active torsions:
REMARK  status: ('A' for Active; 'I' for Inactive)
REMARK    1  A    between atoms: C_8  and  C_9 
REMARK       I    between atoms: C_9  and  N_10 
REMARK    2  A    between atoms: N_10  and  C_11 
REMARK    3  A    between atoms: C_18  and  C_19 
REMARK       I    between atoms: C_19  and  N_20 
ROOT
HETATM    1  C   UNL     1      42.101 -15.727   1.334  1.00  0.00     0.035 A 
HETATM    2  C   UNL     1      41.475 -14.539   1.734  1.00  0.00     0.046 A 
HETATM    3  C   UNL     1      40.581 -13.890   0.854  1.00  0.00     0.030 A 
HETATM    4  C   UNL     1      40.340 -14.453  -0.393  1.00  0.00     0.063 A 
HETATM    5  N   UNL     1      39.452 -13.613  -1.005  1.00  0.00    -0.277 N 
HETATM    6  H   UNL     1      39.054 -13.711  -1.932  1.00  0.00     0.189 HD
HETATM    7  N   UNL     1      39.089 -12.552  -0.267  1.00  0.00    -0.168 NA
HETATM    8  C   UNL     1      39.778 -12.709   0.887  1.00  0.00     0.156 A 
HETATM    9  C   UNL     1      40.942 -15.636  -0.824  1.00  0.00     0.034 A 
HETATM   10  C   UNL     1      41.824 -16.259   0.066  1.00  0.00     0.032 A 
ENDROOT
BRANCH   1  11
HETATM   11  N   UNL     1      43.012 -16.446   2.135  1.00  0.00    -0.327 N 
HETATM   12  C   UNL     1      42.726 -17.365   3.132  1.00  0.00     0.231 C 
HETATM   13  O   UNL     1      41.607 -17.730   3.480  1.00  0.00    -0.272 OA
HETATM   14  H   UNL     1      43.992 -16.221   2.003  1.00  0.00     0.169 HD
BRANCH  12  15
HETATM   15  C   UNL     1      43.965 -17.981   3.789  1.00  0.00     0.116 C 
HETATM   16  C   UNL     1      44.144 -19.459   3.503  1.00  0.00    -0.012 A 
HETATM   17  C   UNL     1      44.010 -19.961   2.199  1.00  0.00     0.011 A 
HETATM   18  C   UNL     1      44.485 -20.344   4.534  1.00  0.00     0.075 A 
HETATM   19  C   UNL     1      44.159 -21.325   1.945  1.00  0.00     0.001 A 
HETATM   20  C   UNL     1      44.456 -22.200   2.988  1.00  0.00     0.003 A 
HETATM   21  C   UNL     1      44.619 -21.709   4.282  1.00  0.00     0.037 A 
HETATM   22  O   UNL     1      44.673 -19.953   5.833  1.00  0.00    -0.351 OA
HETATM   23  C   UNL     1      44.969 -18.563   5.982  1.00  0.00     0.176 C 
HETATM   24  C   UNL     1      43.922 -17.710   5.295  1.00  0.00     0.045 C 
ENDBRANCH  12  15
ENDBRANCH   1  11
BRANCH   8  25
HETATM   25  C   UNL     1      39.655 -11.737   1.983  1.00  0.00     0.270 C 
HETATM   26  N   UNL     1      39.212 -12.277   3.160  1.00  0.00    -0.365 N 
HETATM   27  H   UNL     1      39.008 -13.269   3.192  1.00  0.00     0.159 HD
HETATM   28  H   UNL     1      39.097 -11.686   3.968  1.00  0.00     0.159 HD
HETATM   29  O   UNL     1      39.917 -10.543   1.893  1.00  0.00    -0.266 OA
ENDBRANCH   8  25
TORSDOF 3
ENDMDL
MODEL 7
REMARK VINA RESULT:      -8.2      1.813      2.501
REMARK  3 active torsions:
REMARK  status: ('A' for Active; 'I' for Inactive)
REMARK    1  A    between atoms: C_8  and  C_9 
REMARK       I    between atoms: C_9  and  N_10 
REMARK    2  A    between atoms: N_10  and  C_11 
REMARK    3  A    between atoms: C_18  and  C_19 
REMARK       I    between atoms: C_19  and  N_20 
ROOT
HETATM    1  C   UNL     1      40.470 -14.392   1.248  1.00  0.00     0.035 A 
HETATM    2  C   UNL     1      40.639 -14.640  -0.121  1.00  0.00     0.046 A 
HETATM    3  C   UNL     1      39.717 -14.104  -1.047  1.00  0.00     0.030 A 
HETATM    4  C   UNL     1      38.661 -13.335  -0.574  1.00  0.00     0.063 A 
HETATM    5  N   UNL     1      37.954 -12.967  -1.684  1.00  0.00    -0.277 N 
HETATM    6  H   UNL     1      37.114 -12.400  -1.717  1.00  0.00     0.189 HD
HETATM    7  N   UNL     1      38.456 -13.425  -2.842  1.00  0.00    -0.168 NA
HETATM    8  C   UNL     1      39.548 -14.130  -2.465  1.00  0.00     0.156 A 
HETATM    9  C   UNL     1      38.463 -13.064   0.781  1.00  0.00     0.034 A 
HETATM   10  C   UNL     1      39.390 -13.607   1.678  1.00  0.00     0.032 A 
ENDROOT
BRANCH   1  11
HETATM   11  N   UNL     1      41.330 -14.885   2.251  1.00  0.00    -0.327 N 
HETATM   12  C   UNL     1      42.495 -14.308   2.732  1.00  0.00     0.231 C 
HETATM   13  O   UNL     1      42.973 -13.235   2.373  1.00  0.00    -0.272 OA
HETATM   14  H   UNL     1      41.098 -15.800   2.623  1.00  0.00     0.169 HD
BRANCH  12  15
HETATM   15  C   UNL     1      43.173 -15.107   3.848  1.00  0.00     0.116 C 
HETATM   16  C   UNL     1      43.389 -16.570   3.515  1.00  0.00    -0.012 A 
HETATM   17  C   UNL     1      43.923 -16.956   2.275  1.00  0.00     0.011 A 
HETATM   18  C   UNL     1      43.092 -17.563   4.458  1.00  0.00     0.075 A 
HETATM   19  C   UNL     1      44.103 -18.305   1.968  1.00  0.00     0.001 A 
HETATM   20  C   UNL     1      43.764 -19.284   2.900  1.00  0.00     0.003 A 
HETATM   21  C   UNL     1      43.258 -18.911   4.145  1.00  0.00     0.037 A 
HETATM   22  O   UNL     1      42.600 -17.294   5.707  1.00  0.00    -0.351 OA
HETATM   23  C   UNL     1      42.856 -15.961   6.155  1.00  0.00     0.176 C 
HETATM   24  C   UNL     1      42.369 -14.946   5.140  1.00  0.00     0.045 C 
ENDBRANCH  12  15
ENDBRANCH   1  11
BRANCH   8  25
HETATM   25  C   UNL     1      40.396 -14.805  -3.458  1.00  0.00     0.270 C 
HETATM   26  N   UNL     1      41.721 -14.470  -3.381  1.00  0.00    -0.365 N 
HETATM   27  H   UNL     1      42.013 -13.806  -2.672  1.00  0.00     0.159 HD
HETATM   28  H   UNL     1      42.378 -14.883  -4.022  1.00  0.00     0.159 HD
HETATM   29  O   UNL     1      39.994 -15.603  -4.296  1.00  0.00    -0.266 OA
ENDBRANCH   8  25
TORSDOF 3
ENDMDL
MODEL 8
REMARK VINA RESULT:      -8.2      2.576      8.195
REMARK  3 active torsions:
REMARK  status: ('A' for Active; 'I' for Inactive)
REMARK    1  A    between atoms: C_8  and  C_9 
REMARK       I    between atoms: C_9  and  N_10 
REMARK    2  A    between atoms: N_10  and  C_11 
REMARK    3  A    between atoms: C_18  and  C_19 
REMARK       I    between atoms: C_19  and  N_20 
ROOT
HETATM    1  C   UNL     1      43.186 -17.212   2.845  1.00  0.00     0.035 A 
HETATM    2  C   UNL     1      43.503 -18.559   2.624  1.00  0.00     0.046 A 
HETATM    3  C   UNL     1      43.981 -19.348   3.694  1.00  0.00     0.030 A 
HETATM    4  C   UNL     1      44.123 -18.764   4.947  1.00  0.00     0.063 A 
HETATM    5  N   UNL     1      44.597 -19.757   5.758  1.00  0.00    -0.277 N 
HETATM    6  H   UNL     1      44.820 -19.689   6.745  1.00  0.00     0.189 HD
HETATM    7  N   UNL     1      44.777 -20.938   5.147  1.00  0.00    -0.168 NA
HETATM    8  C   UNL     1      44.399 -20.702   3.869  1.00  0.00     0.156 A 
HETATM    9  C   UNL     1      43.813 -17.428   5.204  1.00  0.00     0.034 A 
HETATM   10  C   UNL     1      43.341 -16.668   4.128  1.00  0.00     0.032 A 
ENDROOT
BRANCH   1  11
HETATM   11  N   UNL     1      42.708 -16.341   1.843  1.00  0.00    -0.327 N 
HETATM   12  C   UNL     1      41.507 -16.414   1.156  1.00  0.00     0.231 C 
HETATM   13  O   UNL     1      40.629 -17.256   1.320  1.00  0.00    -0.272 OA
HETATM   14  H   UNL     1      43.344 -15.607   1.553  1.00  0.00     0.169 HD
BRANCH  12  15
HETATM   15  C   UNL     1      41.295 -15.283   0.146  1.00  0.00     0.116 C 
HETATM   16  C   UNL     1      40.110 -14.390   0.458  1.00  0.00    -0.012 A 
HETATM   17  C   UNL     1      39.901 -13.900   1.758  1.00  0.00     0.011 A 
HETATM   18  C   UNL     1      39.222 -14.009  -0.556  1.00  0.00     0.075 A 
HETATM   19  C   UNL     1      38.799 -13.093   2.043  1.00  0.00     0.001 A 
HETATM   20  C   UNL     1      37.901 -12.756   1.033  1.00  0.00     0.003 A 
HETATM   21  C   UNL     1      38.113 -13.215  -0.267  1.00  0.00     0.037 A 
HETATM   22  O   UNL     1      39.354 -14.402  -1.861  1.00  0.00    -0.351 OA
HETATM   23  C   UNL     1      40.677 -14.813  -2.211  1.00  0.00     0.176 C 
HETATM   24  C   UNL     1      41.182 -15.879  -1.260  1.00  0.00     0.045 C 
ENDBRANCH  12  15
ENDBRANCH   1  11
BRANCH   8  25
HETATM   25  C   UNL     1      44.446 -21.765   2.855  1.00  0.00     0.270 C 
HETATM   26  N   UNL     1      44.823 -22.987   3.343  1.00  0.00    -0.365 N 
HETATM   27  H   UNL     1      45.036 -23.070   4.331  1.00  0.00     0.159 HD
HETATM   28  H   UNL     1      44.884 -23.776   2.721  1.00  0.00     0.159 HD
HETATM   29  O   UNL     1      44.178 -21.614   1.669  1.00  0.00    -0.266 OA
ENDBRANCH   8  25
TORSDOF 3
ENDMDL
MODEL 9
REMARK VINA RESULT:      -8.1      2.657      7.574
REMARK  3 active torsions:
REMARK  status: ('A' for Active; 'I' for Inactive)
REMARK    1  A    between atoms: C_8  and  C_9 
REMARK       I    between atoms: C_9  and  N_10 
REMARK    2  A    between atoms: N_10  and  C_11 
REMARK    3  A    between atoms: C_18  and  C_19 
REMARK       I    between atoms: C_19  and  N_20 
ROOT
HETATM    1  C   UNL     1      43.181 -17.004   3.137  1.00  0.00     0.035 A 
HETATM    2  C   UNL     1      43.334 -18.291   2.606  1.00  0.00     0.046 A 
HETATM    3  C   UNL     1      43.895 -19.314   3.404  1.00  0.00     0.030 A 
HETATM    4  C   UNL     1      44.279 -19.014   4.705  1.00  0.00     0.063 A 
HETATM    5  N   UNL     1      44.778 -20.181   5.214  1.00  0.00    -0.277 N 
HETATM    6  H   UNL     1      45.153 -20.333   6.143  1.00  0.00     0.189 HD
HETATM    7  N   UNL     1      44.752 -21.217   4.361  1.00  0.00    -0.168 NA
HETATM    8  C   UNL     1      44.208 -20.697   3.236  1.00  0.00     0.156 A 
HETATM    9  C   UNL     1      44.137 -17.745   5.268  1.00  0.00     0.034 A 
HETATM   10  C   UNL     1      43.580 -16.750   4.457  1.00  0.00     0.032 A 
ENDROOT
BRANCH   1  11
HETATM   11  N   UNL     1      42.639 -15.916   2.421  1.00  0.00    -0.327 N 
HETATM   12  C   UNL     1      41.357 -15.789   1.910  1.00  0.00     0.231 C 
HETATM   13  O   UNL     1      40.451 -16.612   2.014  1.00  0.00    -0.272 OA
HETATM   14  H   UNL     1      43.282 -15.162   2.206  1.00  0.00     0.169 HD
BRANCH  12  15
HETATM   15  C   UNL     1      41.095 -14.456   1.204  1.00  0.00     0.116 C 
HETATM   16  C   UNL     1      41.288 -14.505  -0.299  1.00  0.00    -0.012 A 
HETATM   17  C   UNL     1      40.743 -15.551  -1.061  1.00  0.00     0.011 A 
HETATM   18  C   UNL     1      41.986 -13.484  -0.958  1.00  0.00     0.075 A 
HETATM   19  C   UNL     1      40.939 -15.600  -2.442  1.00  0.00     0.001 A 
HETATM   20  C   UNL     1      41.671 -14.600  -3.079  1.00  0.00     0.003 A 
HETATM   21  C   UNL     1      42.194 -13.542  -2.336  1.00  0.00     0.037 A 
HETATM   22  O   UNL     1      42.528 -12.404  -0.316  1.00  0.00    -0.351 OA
HETATM   23  C   UNL     1      41.942 -12.136   0.961  1.00  0.00     0.176 C 
HETATM   24  C   UNL     1      41.970 -13.372   1.838  1.00  0.00     0.045 C 
ENDBRANCH  12  15
ENDBRANCH   1  11
BRANCH   8  25
HETATM   25  C   UNL     1      44.001 -21.526   2.040  1.00  0.00     0.270 C 
HETATM   26  N   UNL     1      42.715 -21.517   1.571  1.00  0.00    -0.365 N 
HETATM   27  H   UNL     1      42.023 -20.963   2.062  1.00  0.00     0.159 HD
HETATM   28  H   UNL     1      42.479 -22.057   0.754  1.00  0.00     0.159 HD
HETATM   29  O   UNL     1      44.874 -22.179   1.481  1.00  0.00    -0.266 OA
ENDBRANCH   8  25
TORSDOF 3
ENDMDL
MODEL 10
REMARK VINA RESULT:      -8.0      2.629      8.415
REMARK  3 active torsions:
REMARK  status: ('A' for Active; 'I' for Inactive)
REMARK    1  A    between atoms: C_8  and  C_9 
REMARK       I    between atoms: C_9  and  N_10 
REMARK    2  A    between atoms: N_10  and  C_11 
REMARK    3  A    between atoms: C_18  and  C_19 
REMARK       I    between atoms: C_19  and  N_20 
ROOT
HETATM    1  C   UNL     1      43.610 -18.423   2.105  1.00  0.00     0.035 A 
HETATM    2  C   UNL     1      43.804 -18.371   3.491  1.00  0.00     0.046 A 
HETATM    3  C   UNL     1      44.148 -19.548   4.193  1.00  0.00     0.030 A 
HETATM    4  C   UNL     1      44.289 -20.735   3.483  1.00  0.00     0.063 A 
HETATM    5  N   UNL     1      44.616 -21.678   4.417  1.00  0.00    -0.277 N 
HETATM    6  H   UNL     1      44.793 -22.664   4.256  1.00  0.00     0.189 HD
HETATM    7  N   UNL     1      44.704 -21.213   5.673  1.00  0.00    -0.168 NA
HETATM    8  C   UNL     1      44.418 -19.897   5.551  1.00  0.00     0.156 A 
HETATM    9  C   UNL     1      44.107 -20.823   2.103  1.00  0.00     0.034 A 
HETATM   10  C   UNL     1      43.767 -19.643   1.431  1.00  0.00     0.032 A 
ENDROOT
BRANCH   1  11
HETATM   11  N   UNL     1      43.260 -17.307   1.316  1.00  0.00    -0.327 N 
HETATM   12  C   UNL     1      41.991 -16.812   1.059  1.00  0.00     0.231 C 
HETATM   13  O   UNL     1      40.936 -17.259   1.502  1.00  0.00    -0.272 OA
HETATM   14  H   UNL     1      44.024 -16.848   0.834  1.00  0.00     0.169 HD
BRANCH  12  15
HETATM   15  C   UNL     1      41.975 -15.562   0.175  1.00  0.00     0.116 C 
HETATM   16  C   UNL     1      41.651 -14.283   0.921  1.00  0.00    -0.012 A 
HETATM   17  C   UNL     1      42.279 -13.982   2.141  1.00  0.00     0.011 A 
HETATM   18  C   UNL     1      40.745 -13.359   0.385  1.00  0.00     0.075 A 
HETATM   19  C   UNL     1      41.964 -12.811   2.832  1.00  0.00     0.001 A 
HETATM   20  C   UNL     1      41.030 -11.921   2.306  1.00  0.00     0.003 A 
HETATM   21  C   UNL     1      40.420 -12.196   1.083  1.00  0.00     0.037 A 
HETATM   22  O   UNL     1      40.105 -13.537  -0.812  1.00  0.00    -0.351 OA
HETATM   23  C   UNL     1      40.759 -14.461  -1.686  1.00  0.00     0.176 C 
HETATM   24  C   UNL     1      41.005 -15.783  -0.989  1.00  0.00     0.045 C 
ENDBRANCH  12  15
ENDBRANCH   1  11
BRANCH   8  25
HETATM   25  C   UNL     1      44.409 -19.010   6.724  1.00  0.00     0.270 C 
HETATM   26  N   UNL     1      45.359 -18.026   6.687  1.00  0.00    -0.365 N 
HETATM   27  H   UNL     1      45.977 -17.978   5.885  1.00  0.00     0.159 HD
HETATM   28  H   UNL     1      45.428 -17.370   7.448  1.00  0.00     0.159 HD
HETATM   29  O   UNL     1      43.636 -19.108   7.670  1.00  0.00    -0.266 OA
ENDBRANCH   8  25
TORSDOF 3
ENDMDL
