MODEL 1
REMARK VINA RESULT:      -8.6      0.000      0.000
REMARK  7 active torsions:
REMARK  status: ('A' for Active; 'I' for Inactive)
REMARK       I    between atoms: C_2  and  N_3 
REMARK    1  A    between atoms: N_3  and  C_4 
REMARK    2  A    between atoms: C_7  and  N_8 
REMARK       I    between atoms: N_8  and  C_9 
REMARK    3  A    between atoms: C_9  and  C_10 
REMARK    4  A    between atoms: C_11  and  C_12 
REMARK    5  A    between atoms: C_13  and  O_14 
REMARK    6  A    between atoms: N_20  and  C_21 
REMARK    7  A    between atoms: C_24  and  O_25 
ROOT
HETATM    1  C   UNL     1      40.931 -12.879   4.586  1.00  0.00     0.106 C 
HETATM    2  C   UNL     1      42.050 -13.890   4.271  1.00  0.00     0.142 C 
HETATM    3  N   UNL     1      41.899 -14.350   2.859  1.00  0.00    -0.308 N 
HETATM    4  C   UNL     1      41.802 -13.376   1.851  1.00  0.00     0.225 C 
HETATM    5  O   UNL     1      42.089 -13.556   0.665  1.00  0.00    -0.273 OA
HETATM    6  C   UNL     1      41.095 -12.079   2.228  1.00  0.00     0.104 C 
HETATM    7  C   UNL     1      41.151 -11.666   3.688  1.00  0.00     0.026 C 
ENDROOT
BRANCH   1   8
HETATM    8  C   UNL     1      40.782 -12.428   6.036  1.00  0.00     0.228 C 
HETATM    9  N   UNL     1      41.677 -11.473   6.478  1.00  0.00    -0.327 N 
HETATM   10  H   UNL     1      42.423 -11.197   5.853  1.00  0.00     0.169 HD
HETATM   11  O   UNL     1      39.866 -12.913   6.699  1.00  0.00    -0.273 OA
BRANCH   9  12
HETATM   12  C   UNL     1      41.814 -11.011   7.808  1.00  0.00     0.034 A 
HETATM   13  C   UNL     1      40.835 -10.290   8.490  1.00  0.00     0.032 A 
HETATM   14  C   UNL     1      41.013  -9.924   9.833  1.00  0.00     0.032 A 
HETATM   15  C   UNL     1      42.173 -10.274  10.517  1.00  0.00     0.034 A 
HETATM   16  C   UNL     1      43.172 -10.969   9.825  1.00  0.00     0.032 A 
HETATM   17  C   UNL     1      42.996 -11.329   8.482  1.00  0.00     0.032 A 
BRANCH  15  18
HETATM   18  N   UNL     1      42.404  -9.987  11.878  1.00  0.00    -0.328 N 
HETATM   19  C   UNL     1      41.861 -10.634  12.977  1.00  0.00     0.218 C 
HETATM   20  C   UNL     1      42.390 -10.100  14.285  1.00  0.00     0.117 C 
HETATM   21  O   UNL     1      41.064 -11.563  12.966  1.00  0.00    -0.274 OA
HETATM   22  H   UNL     1      43.064  -9.245  12.067  1.00  0.00     0.169 HD
ENDBRANCH  15  18
ENDBRANCH   9  12
ENDBRANCH   1   8
BRANCH   2  23
HETATM   23  C   UNL     1      42.299 -14.950   5.345  1.00  0.00    -0.001 A 
HETATM   24  C   UNL     1      43.497 -14.929   6.091  1.00  0.00     0.076 A 
HETATM   25  C   UNL     1      43.718 -15.859   7.113  1.00  0.00     0.037 A 
HETATM   26  C   UNL     1      42.764 -16.837   7.386  1.00  0.00     0.003 A 
HETATM   27  C   UNL     1      41.587 -16.885   6.644  1.00  0.00     0.001 A 
HETATM   28  C   UNL     1      41.355 -15.951   5.633  1.00  0.00     0.012 A 
BRANCH  24  29
HETATM   29  O   UNL     1      44.391 -13.920   5.831  1.00  0.00    -0.355 OA
HETATM   30  C   UNL     1      45.368 -13.735   6.855  1.00  0.00     0.210 C 
ENDBRANCH  24  29
ENDBRANCH   2  23
BRANCH   3  31
HETATM   31  C   UNL     1      42.294 -15.679   2.508  1.00  0.00     0.038 A 
HETATM   32  C   UNL     1      43.633 -16.080   2.511  1.00  0.00     0.032 A 
HETATM   33  C   UNL     1      43.980 -17.390   2.161  1.00  0.00     0.039 A 
HETATM   34  C   UNL     1      43.003 -18.314   1.787  1.00  0.00     0.068 A 
HETATM   35  C   UNL     1      41.671 -17.911   1.750  1.00  0.00     0.039 A 
HETATM   36  C   UNL     1      41.325 -16.600   2.096  1.00  0.00     0.032 A 
BRANCH  34  37
HETATM   37  O   UNL     1      43.475 -19.560   1.480  1.00  0.00    -0.356 OA
HETATM   38  C   UNL     1      44.128 -20.271   2.525  1.00  0.00     0.210 C 
ENDBRANCH  34  37
ENDBRANCH   3  31
TORSDOF 7
ENDMDL
MODEL 2
REMARK VINA RESULT:      -7.5      3.847      9.046
REMARK  7 active torsions:
REMARK  status: ('A' for Active; 'I' for Inactive)
REMARK       I    between atoms: C_2  and  N_3 
REMARK    1  A    between atoms: N_3  and  C_4 
REMARK    2  A    between atoms: C_7  and  N_8 
REMARK       I    between atoms: N_8  and  C_9 
REMARK    3  A    between atoms: C_9  and  C_10 
REMARK    4  A    between atoms: C_11  and  C_12 
REMARK    5  A    between atoms: C_13  and  O_14 
REMARK    6  A    between atoms: N_20  and  C_21 
REMARK    7  A    between atoms: C_24  and  O_25 
ROOT
HETATM    1  C   UNL     1      41.535 -12.048   2.681  1.00  0.00     0.106 C 
HETATM    2  C   UNL     1      41.115 -13.337   3.413  1.00  0.00     0.142 C 
HETATM    3  N   UNL     1      41.573 -13.256   4.831  1.00  0.00    -0.308 N 
HETATM    4  C   UNL     1      41.225 -12.117   5.577  1.00  0.00     0.225 C 
HETATM    5  O   UNL     1      41.150 -12.074   6.807  1.00  0.00    -0.273 OA
HETATM    6  C   UNL     1      41.143 -10.803   4.807  1.00  0.00     0.104 C 
HETATM    7  C   UNL     1      40.786 -10.891   3.334  1.00  0.00     0.026 C 
ENDROOT
BRANCH   1   8
HETATM    8  C   UNL     1      41.335 -12.004   1.169  1.00  0.00     0.228 C 
HETATM    9  N   UNL     1      42.479 -11.927   0.399  1.00  0.00    -0.327 N 
HETATM   10  H   UNL     1      43.365 -11.817   0.875  1.00  0.00     0.169 HD
HETATM   11  O   UNL     1      40.184 -12.072   0.739  1.00  0.00    -0.273 OA
BRANCH   9  12
HETATM   12  C   UNL     1      42.529 -11.739  -1.002  1.00  0.00     0.034 A 
HETATM   13  C   UNL     1      42.327 -12.755  -1.936  1.00  0.00     0.032 A 
HETATM   14  C   UNL     1      42.324 -12.480  -3.312  1.00  0.00     0.032 A 
HETATM   15  C   UNL     1      42.521 -11.183  -3.777  1.00  0.00     0.034 A 
HETATM   16  C   UNL     1      42.757 -10.167  -2.844  1.00  0.00     0.032 A 
HETATM   17  C   UNL     1      42.766 -10.444  -1.470  1.00  0.00     0.032 A 
BRANCH  15  18
HETATM   18  N   UNL     1      42.482 -10.819  -5.140  1.00  0.00    -0.328 N 
HETATM   19  C   UNL     1      41.416 -10.266  -5.830  1.00  0.00     0.218 C 
HETATM   20  C   UNL     1      41.759  -9.940  -7.263  1.00  0.00     0.117 C 
HETATM   21  O   UNL     1      40.304 -10.008  -5.388  1.00  0.00    -0.274 OA
HETATM   22  H   UNL     1      43.341 -10.950  -5.656  1.00  0.00     0.169 HD
ENDBRANCH  15  18
ENDBRANCH   9  12
ENDBRANCH   1   8
BRANCH   2  23
HETATM   23  C   UNL     1      41.371 -14.638   2.652  1.00  0.00    -0.001 A 
HETATM   24  C   UNL     1      40.284 -15.424   2.212  1.00  0.00     0.076 A 
HETATM   25  C   UNL     1      40.501 -16.590   1.469  1.00  0.00     0.037 A 
HETATM   26  C   UNL     1      41.799 -17.002   1.179  1.00  0.00     0.003 A 
HETATM   27  C   UNL     1      42.882 -16.251   1.624  1.00  0.00     0.001 A 
HETATM   28  C   UNL     1      42.673 -15.080   2.354  1.00  0.00     0.012 A 
BRANCH  24  29
HETATM   29  O   UNL     1      39.019 -14.959   2.470  1.00  0.00    -0.355 OA
HETATM   30  C   UNL     1      38.278 -14.616   1.298  1.00  0.00     0.210 C 
ENDBRANCH  24  29
ENDBRANCH   2  23
BRANCH   3  31
HETATM   31  C   UNL     1      41.937 -14.455   5.520  1.00  0.00     0.038 A 
HETATM   32  C   UNL     1      40.994 -15.425   5.871  1.00  0.00     0.032 A 
HETATM   33  C   UNL     1      41.389 -16.586   6.546  1.00  0.00     0.039 A 
HETATM   34  C   UNL     1      42.726 -16.790   6.895  1.00  0.00     0.068 A 
HETATM   35  C   UNL     1      43.664 -15.813   6.578  1.00  0.00     0.039 A 
HETATM   36  C   UNL     1      43.267 -14.650   5.907  1.00  0.00     0.032 A 
BRANCH  34  37
HETATM   37  O   UNL     1      42.978 -17.969   7.540  1.00  0.00    -0.356 OA
HETATM   38  C   UNL     1      43.711 -18.951   6.815  1.00  0.00     0.210 C 
ENDBRANCH  34  37
ENDBRANCH   3  31
TORSDOF 7
ENDMDL
MODEL 3
REMARK VINA RESULT:      -7.4      3.769      9.126
REMARK  7 active torsions:
REMARK  status: ('A' for Active; 'I' for Inactive)
REMARK       I    between atoms: C_2  and  N_3 
REMARK    1  A    between atoms: N_3  and  C_4 
REMARK    2  A    between atoms: C_7  and  N_8 
REMARK       I    between atoms: N_8  and  C_9 
REMARK    3  A    between atoms: C_9  and  C_10 
REMARK    4  A    between atoms: C_11  and  C_12 
REMARK    5  A    between atoms: C_13  and  O_14 
REMARK    6  A    between atoms: N_20  and  C_21 
REMARK    7  A    between atoms: C_24  and  O_25 
ROOT
HETATM    1  C   UNL     1      40.535 -16.016   1.963  1.00  0.00     0.106 C 
HETATM    2  C   UNL     1      41.620 -15.187   2.677  1.00  0.00     0.142 C 
HETATM    3  N   UNL     1      42.451 -16.100   3.516  1.00  0.00    -0.308 N 
HETATM    4  C   UNL     1      43.006 -17.238   2.907  1.00  0.00     0.225 C 
HETATM    5  O   UNL     1      44.008 -17.836   3.308  1.00  0.00    -0.273 OA
HETATM    6  C   UNL     1      42.181 -17.885   1.800  1.00  0.00     0.104 C 
HETATM    7  C   UNL     1      41.250 -16.977   1.017  1.00  0.00     0.026 C 
ENDROOT
BRANCH   1   8
HETATM    8  C   UNL     1      39.455 -15.252   1.204  1.00  0.00     0.228 C 
HETATM    9  N   UNL     1      39.807 -14.762  -0.039  1.00  0.00    -0.327 N 
HETATM   10  H   UNL     1      40.770 -14.860  -0.332  1.00  0.00     0.169 HD
HETATM   11  O   UNL     1      38.346 -15.153   1.726  1.00  0.00    -0.273 OA
BRANCH   9  12
HETATM   12  C   UNL     1      39.019 -13.915  -0.854  1.00  0.00     0.034 A 
HETATM   13  C   UNL     1      38.629 -12.626  -0.495  1.00  0.00     0.032 A 
HETATM   14  C   UNL     1      37.905 -11.818  -1.384  1.00  0.00     0.032 A 
HETATM   15  C   UNL     1      37.560 -12.285  -2.648  1.00  0.00     0.034 A 
HETATM   16  C   UNL     1      37.920 -13.591  -2.999  1.00  0.00     0.032 A 
HETATM   17  C   UNL     1      38.639 -14.400  -2.108  1.00  0.00     0.032 A 
BRANCH  15  18
HETATM   18  N   UNL     1      36.878 -11.516  -3.615  1.00  0.00    -0.328 N 
HETATM   19  C   UNL     1      37.435 -10.777  -4.645  1.00  0.00     0.218 C 
HETATM   20  C   UNL     1      36.393 -10.137  -5.530  1.00  0.00     0.117 C 
HETATM   21  O   UNL     1      38.626 -10.640  -4.895  1.00  0.00    -0.274 OA
HETATM   22  H   UNL     1      35.868 -11.537  -3.563  1.00  0.00     0.169 HD
ENDBRANCH  15  18
ENDBRANCH   9  12
ENDBRANCH   1   8
BRANCH   2  23
HETATM   23  C   UNL     1      41.139 -13.879   3.306  1.00  0.00    -0.001 A 
HETATM   24  C   UNL     1      41.605 -12.643   2.808  1.00  0.00     0.076 A 
HETATM   25  C   UNL     1      41.133 -11.437   3.337  1.00  0.00     0.037 A 
HETATM   26  C   UNL     1      40.217 -11.444   4.386  1.00  0.00     0.003 A 
HETATM   27  C   UNL     1      39.764 -12.654   4.904  1.00  0.00     0.001 A 
HETATM   28  C   UNL     1      40.219 -13.861   4.370  1.00  0.00     0.012 A 
BRANCH  24  29
HETATM   29  O   UNL     1      42.467 -12.673   1.740  1.00  0.00    -0.355 OA
HETATM   30  C   UNL     1      42.072 -11.833   0.655  1.00  0.00     0.210 C 
ENDBRANCH  24  29
ENDBRANCH   2  23
BRANCH   3  31
HETATM   31  C   UNL     1      43.024 -15.609   4.730  1.00  0.00     0.038 A 
HETATM   32  C   UNL     1      43.843 -14.477   4.759  1.00  0.00     0.032 A 
HETATM   33  C   UNL     1      44.388 -14.027   5.967  1.00  0.00     0.039 A 
HETATM   34  C   UNL     1      44.138 -14.707   7.161  1.00  0.00     0.068 A 
HETATM   35  C   UNL     1      43.351 -15.855   7.134  1.00  0.00     0.039 A 
HETATM   36  C   UNL     1      42.811 -16.306   5.924  1.00  0.00     0.032 A 
BRANCH  34  37
HETATM   37  O   UNL     1      44.720 -14.157   8.270  1.00  0.00    -0.356 OA
HETATM   38  C   UNL     1      45.304 -12.869   8.112  1.00  0.00     0.210 C 
ENDBRANCH  34  37
ENDBRANCH   3  31
TORSDOF 7
ENDMDL
MODEL 4
REMARK VINA RESULT:      -7.2      3.549      5.169
REMARK  7 active torsions:
REMARK  status: ('A' for Active; 'I' for Inactive)
REMARK       I    between atoms: C_2  and  N_3 
REMARK    1  A    between atoms: N_3  and  C_4 
REMARK    2  A    between atoms: C_7  and  N_8 
REMARK       I    between atoms: N_8  and  C_9 
REMARK    3  A    between atoms: C_9  and  C_10 
REMARK    4  A    between atoms: C_11  and  C_12 
REMARK    5  A    between atoms: C_13  and  O_14 
REMARK    6  A    between atoms: N_20  and  C_21 
REMARK    7  A    between atoms: C_24  and  O_25 
ROOT
HETATM    1  C   UNL     1      40.413 -10.077   1.203  1.00  0.00     0.106 C 
HETATM    2  C   UNL     1      40.950 -11.345   0.512  1.00  0.00     0.142 C 
HETATM    3  N   UNL     1      40.890 -11.150  -0.966  1.00  0.00    -0.308 N 
HETATM    4  C   UNL     1      41.477  -9.995  -1.507  1.00  0.00     0.225 C 
HETATM    5  O   UNL     1      41.879  -9.883  -2.668  1.00  0.00    -0.273 OA
HETATM    6  C   UNL     1      41.416  -8.736  -0.647  1.00  0.00     0.104 C 
HETATM    7  C   UNL     1      41.363  -8.935   0.857  1.00  0.00     0.026 C 
ENDROOT
BRANCH   1   8
HETATM    8  C   UNL     1      40.206 -10.135   2.713  1.00  0.00     0.228 C 
HETATM    9  N   UNL     1      41.343 -10.277   3.485  1.00  0.00    -0.327 N 
HETATM   10  H   UNL     1      42.224 -10.421   3.009  1.00  0.00     0.169 HD
HETATM   11  O   UNL     1      39.058 -10.020   3.142  1.00  0.00    -0.273 OA
BRANCH   9  12
HETATM   12  C   UNL     1      41.379 -10.490   4.883  1.00  0.00     0.034 A 
HETATM   13  C   UNL     1      41.385 -11.749   5.483  1.00  0.00     0.032 A 
HETATM   14  C   UNL     1      41.492 -11.884   6.875  1.00  0.00     0.032 A 
HETATM   15  C   UNL     1      41.596 -10.761   7.692  1.00  0.00     0.034 A 
HETATM   16  C   UNL     1      41.556  -9.496   7.096  1.00  0.00     0.032 A 
HETATM   17  C   UNL     1      41.444  -9.362   5.705  1.00  0.00     0.032 A 
BRANCH  15  18
HETATM   18  N   UNL     1      41.757 -10.816   9.092  1.00  0.00    -0.328 N 
HETATM   19  C   UNL     1      42.942 -10.744   9.805  1.00  0.00     0.218 C 
HETATM   20  C   UNL     1      42.725 -10.765  11.298  1.00  0.00     0.117 C 
HETATM   21  O   UNL     1      44.073 -10.639   9.347  1.00  0.00    -0.274 OA
HETATM   22  H   UNL     1      40.904 -10.884   9.632  1.00  0.00     0.169 HD
ENDBRANCH  15  18
ENDBRANCH   9  12
ENDBRANCH   1   8
BRANCH   2  23
HETATM   23  C   UNL     1      40.439 -12.669   1.080  1.00  0.00    -0.001 A 
HETATM   24  C   UNL     1      41.296 -13.485   1.851  1.00  0.00     0.076 A 
HETATM   25  C   UNL     1      40.827 -14.673   2.421  1.00  0.00     0.037 A 
HETATM   26  C   UNL     1      39.512 -15.079   2.210  1.00  0.00     0.003 A 
HETATM   27  C   UNL     1      38.660 -14.298   1.435  1.00  0.00     0.001 A 
HETATM   28  C   UNL     1      39.117 -13.104   0.874  1.00  0.00     0.012 A 
BRANCH  24  29
HETATM   29  O   UNL     1      42.569 -13.027   2.082  1.00  0.00    -0.355 OA
HETATM   30  C   UNL     1      43.272 -13.757   3.088  1.00  0.00     0.210 C 
ENDBRANCH  24  29
ENDBRANCH   2  23
BRANCH   3  31
HETATM   31  C   UNL     1      40.665 -12.279  -1.813  1.00  0.00     0.038 A 
HETATM   32  C   UNL     1      41.639 -13.260  -2.018  1.00  0.00     0.032 A 
HETATM   33  C   UNL     1      41.381 -14.351  -2.856  1.00  0.00     0.039 A 
HETATM   34  C   UNL     1      40.157 -14.473  -3.515  1.00  0.00     0.068 A 
HETATM   35  C   UNL     1      39.194 -13.482  -3.342  1.00  0.00     0.039 A 
HETATM   36  C   UNL     1      39.455 -12.390  -2.508  1.00  0.00     0.032 A 
BRANCH  34  37
HETATM   37  O   UNL     1      40.030 -15.590  -4.294  1.00  0.00    -0.356 OA
HETATM   38  C   UNL     1      38.764 -16.239  -4.280  1.00  0.00     0.210 C 
ENDBRANCH  34  37
ENDBRANCH   3  31
TORSDOF 7
ENDMDL
MODEL 5
REMARK VINA RESULT:      -7.2      4.312      9.304
REMARK  7 active torsions:
REMARK  status: ('A' for Active; 'I' for Inactive)
REMARK       I    between atoms: C_2  and  N_3 
REMARK    1  A    between atoms: N_3  and  C_4 
REMARK    2  A    between atoms: C_7  and  N_8 
REMARK       I    between atoms: N_8  and  C_9 
REMARK    3  A    between atoms: C_9  and  C_10 
REMARK    4  A    between atoms: C_11  and  C_12 
REMARK    5  A    between atoms: C_13  and  O_14 
REMARK    6  A    between atoms: N_20  and  C_21 
REMARK    7  A    between atoms: C_24  and  O_25 
ROOT
HETATM    1  C   UNL     1      39.809 -12.544   2.580  1.00  0.00     0.106 C 
HETATM    2  C   UNL     1      39.823 -13.922   3.270  1.00  0.00     0.142 C 
HETATM    3  N   UNL     1      40.158 -13.736   4.712  1.00  0.00    -0.308 N 
HETATM    4  C   UNL     1      39.407 -12.810   5.454  1.00  0.00     0.225 C 
HETATM    5  O   UNL     1      39.263 -12.835   6.679  1.00  0.00    -0.273 OA
HETATM    6  C   UNL     1      38.914 -11.578   4.700  1.00  0.00     0.104 C 
HETATM    7  C   UNL     1      38.679 -11.735   3.209  1.00  0.00     0.026 C 
ENDROOT
BRANCH   1   8
HETATM    8  C   UNL     1      39.677 -12.522   1.061  1.00  0.00     0.228 C 
HETATM    9  N   UNL     1      38.430 -12.819   0.547  1.00  0.00    -0.327 N 
HETATM   10  H   UNL     1      37.710 -13.117   1.193  1.00  0.00     0.169 HD
HETATM   11  O   UNL     1      40.669 -12.211   0.402  1.00  0.00    -0.273 OA
BRANCH   9  12
HETATM   12  C   UNL     1      38.112 -12.991  -0.821  1.00  0.00     0.034 A 
HETATM   13  C   UNL     1      38.338 -14.167  -1.535  1.00  0.00     0.032 A 
HETATM   14  C   UNL     1      37.933 -14.288  -2.872  1.00  0.00     0.032 A 
HETATM   15  C   UNL     1      37.294 -13.234  -3.519  1.00  0.00     0.034 A 
HETATM   16  C   UNL     1      37.095 -12.041  -2.815  1.00  0.00     0.032 A 
HETATM   17  C   UNL     1      37.505 -11.919  -1.480  1.00  0.00     0.032 A 
BRANCH  15  18
HETATM   18  N   UNL     1      36.813 -13.296  -4.843  1.00  0.00    -0.328 N 
HETATM   19  C   UNL     1      35.717 -14.006  -5.306  1.00  0.00     0.218 C 
HETATM   20  C   UNL     1      35.458 -13.780  -6.776  1.00  0.00     0.117 C 
HETATM   21  O   UNL     1      34.974 -14.726  -4.652  1.00  0.00    -0.274 OA
HETATM   22  H   UNL     1      37.310 -12.732  -5.520  1.00  0.00     0.169 HD
ENDBRANCH  15  18
ENDBRANCH   9  12
ENDBRANCH   1   8
BRANCH   2  23
HETATM   23  C   UNL     1      40.545 -15.032   2.505  1.00  0.00    -0.001 A 
HETATM   24  C   UNL     1      41.909 -14.886   2.170  1.00  0.00     0.076 A 
HETATM   25  C   UNL     1      42.598 -15.914   1.518  1.00  0.00     0.037 A 
HETATM   26  C   UNL     1      41.934 -17.087   1.167  1.00  0.00     0.003 A 
HETATM   27  C   UNL     1      40.584 -17.238   1.469  1.00  0.00     0.001 A 
HETATM   28  C   UNL     1      39.894 -16.222   2.133  1.00  0.00     0.012 A 
BRANCH  24  29
HETATM   29  O   UNL     1      42.544 -13.740   2.580  1.00  0.00    -0.355 OA
HETATM   30  C   UNL     1      43.787 -13.972   3.243  1.00  0.00     0.210 C 
ENDBRANCH  24  29
ENDBRANCH   2  23
BRANCH   3  31
HETATM   31  C   UNL     1      40.879 -14.760   5.402  1.00  0.00     0.038 A 
HETATM   32  C   UNL     1      40.302 -15.996   5.708  1.00  0.00     0.032 A 
HETATM   33  C   UNL     1      41.040 -16.974   6.386  1.00  0.00     0.039 A 
HETATM   34  C   UNL     1      42.356 -16.730   6.783  1.00  0.00     0.068 A 
HETATM   35  C   UNL     1      42.924 -15.488   6.511  1.00  0.00     0.039 A 
HETATM   36  C   UNL     1      42.185 -14.510   5.838  1.00  0.00     0.032 A 
BRANCH  34  37
HETATM   37  O   UNL     1      42.966 -17.771   7.426  1.00  0.00    -0.356 OA
HETATM   38  C   UNL     1      44.316 -18.041   7.066  1.00  0.00     0.210 C 
ENDBRANCH  34  37
ENDBRANCH   3  31
TORSDOF 7
ENDMDL
MODEL 6
REMARK VINA RESULT:      -7.2      4.147      8.325
REMARK  7 active torsions:
REMARK  status: ('A' for Active; 'I' for Inactive)
REMARK       I    between atoms: C_2  and  N_3 
REMARK    1  A    between atoms: N_3  and  C_4 
REMARK    2  A    between atoms: C_7  and  N_8 
REMARK       I    between atoms: N_8  and  C_9 
REMARK    3  A    between atoms: C_9  and  C_10 
REMARK    4  A    between atoms: C_11  and  C_12 
REMARK    5  A    between atoms: C_13  and  O_14 
REMARK    6  A    between atoms: N_20  and  C_21 
REMARK    7  A    between atoms: C_24  and  O_25 
ROOT
HETATM    1  C   UNL     1      41.362 -13.154   3.733  1.00  0.00     0.106 C 
HETATM    2  C   UNL     1      41.064 -12.398   2.424  1.00  0.00     0.142 C 
HETATM    3  N   UNL     1      39.905 -11.485   2.648  1.00  0.00    -0.308 N 
HETATM    4  C   UNL     1      39.957 -10.601   3.739  1.00  0.00     0.225 C 
HETATM    5  O   UNL     1      39.327  -9.544   3.823  1.00  0.00    -0.273 OA
HETATM    6  C   UNL     1      40.686 -11.101   4.982  1.00  0.00     0.104 C 
HETATM    7  C   UNL     1      41.793 -12.117   4.767  1.00  0.00     0.026 C 
ENDROOT
BRANCH   1   8
HETATM    8  C   UNL     1      42.388 -14.281   3.674  1.00  0.00     0.228 C 
HETATM    9  N   UNL     1      41.932 -15.545   3.990  1.00  0.00    -0.327 N 
HETATM   10  H   UNL     1      40.981 -15.637   4.323  1.00  0.00     0.169 HD
HETATM   11  O   UNL     1      43.533 -13.999   3.321  1.00  0.00    -0.273 OA
BRANCH   9  12
HETATM   12  C   UNL     1      42.728 -16.706   4.134  1.00  0.00     0.034 A 
HETATM   13  C   UNL     1      43.578 -16.943   5.213  1.00  0.00     0.032 A 
HETATM   14  C   UNL     1      44.286 -18.149   5.323  1.00  0.00     0.032 A 
HETATM   15  C   UNL     1      44.153 -19.141   4.355  1.00  0.00     0.034 A 
HETATM   16  C   UNL     1      43.326 -18.893   3.254  1.00  0.00     0.032 A 
HETATM   17  C   UNL     1      42.624 -17.685   3.142  1.00  0.00     0.032 A 
BRANCH  15  18
HETATM   18  N   UNL     1      44.791 -20.398   4.421  1.00  0.00    -0.328 N 
HETATM   19  C   UNL     1      44.632 -21.370   5.394  1.00  0.00     0.218 C 
HETATM   20  C   UNL     1      45.424 -22.621   5.100  1.00  0.00     0.117 C 
HETATM   21  O   UNL     1      43.922 -21.309   6.390  1.00  0.00    -0.274 OA
HETATM   22  H   UNL     1      45.407 -20.620   3.651  1.00  0.00     0.169 HD
ENDBRANCH  15  18
ENDBRANCH   9  12
ENDBRANCH   1   8
BRANCH   2  23
HETATM   23  C   UNL     1      41.066 -13.253   1.157  1.00  0.00    -0.001 A 
HETATM   24  C   UNL     1      41.867 -12.880   0.055  1.00  0.00     0.076 A 
HETATM   25  C   UNL     1      41.920 -13.681  -1.091  1.00  0.00     0.037 A 
HETATM   26  C   UNL     1      41.159 -14.844  -1.168  1.00  0.00     0.003 A 
HETATM   27  C   UNL     1      40.347 -15.214  -0.099  1.00  0.00     0.001 A 
HETATM   28  C   UNL     1      40.300 -14.428   1.053  1.00  0.00     0.012 A 
BRANCH  24  29
HETATM   29  O   UNL     1      42.644 -11.757   0.186  1.00  0.00    -0.355 OA
HETATM   30  C   UNL     1      42.964 -11.127  -1.055  1.00  0.00     0.210 C 
ENDBRANCH  24  29
ENDBRANCH   2  23
BRANCH   3  31
HETATM   31  C   UNL     1      39.015 -11.203   1.565  1.00  0.00     0.038 A 
HETATM   32  C   UNL     1      39.348 -10.306   0.546  1.00  0.00     0.032 A 
HETATM   33  C   UNL     1      38.449 -10.055  -0.498  1.00  0.00     0.039 A 
HETATM   34  C   UNL     1      37.202 -10.681  -0.534  1.00  0.00     0.068 A 
HETATM   35  C   UNL     1      36.851 -11.549   0.496  1.00  0.00     0.039 A 
HETATM   36  C   UNL     1      37.748 -11.796   1.541  1.00  0.00     0.032 A 
BRANCH  34  37
HETATM   37  O   UNL     1      36.426 -10.356  -1.613  1.00  0.00    -0.356 OA
HETATM   38  C   UNL     1      37.010 -10.538  -2.897  1.00  0.00     0.210 C 
ENDBRANCH  34  37
ENDBRANCH   3  31
TORSDOF 7
ENDMDL
MODEL 7
REMARK VINA RESULT:      -7.0      2.712      5.129
REMARK  7 active torsions:
REMARK  status: ('A' for Active; 'I' for Inactive)
REMARK       I    between atoms: C_2  and  N_3 
REMARK    1  A    between atoms: N_3  and  C_4 
REMARK    2  A    between atoms: C_7  and  N_8 
REMARK       I    between atoms: N_8  and  C_9 
REMARK    3  A    between atoms: C_9  and  C_10 
REMARK    4  A    between atoms: C_11  and  C_12 
REMARK    5  A    between atoms: C_13  and  O_14 
REMARK    6  A    between atoms: N_20  and  C_21 
REMARK    7  A    between atoms: C_24  and  O_25 
ROOT
HETATM    1  C   UNL     1      42.850 -15.034   2.958  1.00  0.00     0.106 C 
HETATM    2  C   UNL     1      41.505 -14.630   2.324  1.00  0.00     0.142 C 
HETATM    3  N   UNL     1      41.222 -15.539   1.174  1.00  0.00    -0.308 N 
HETATM    4  C   UNL     1      41.280 -16.925   1.394  1.00  0.00     0.225 C 
HETATM    5  O   UNL     1      40.692 -17.773   0.717  1.00  0.00    -0.273 OA
HETATM    6  C   UNL     1      42.308 -17.408   2.412  1.00  0.00     0.104 C 
HETATM    7  C   UNL     1      42.681 -16.442   3.522  1.00  0.00     0.026 C 
ENDROOT
BRANCH   1   8
HETATM    8  C   UNL     1      43.424 -14.114   4.031  1.00  0.00     0.228 C 
HETATM    9  N   UNL     1      42.765 -14.099   5.245  1.00  0.00    -0.327 N 
HETATM   10  H   UNL     1      41.903 -14.623   5.323  1.00  0.00     0.169 HD
HETATM   11  O   UNL     1      44.442 -13.479   3.760  1.00  0.00    -0.273 OA
BRANCH   9  12
HETATM   12  C   UNL     1      43.034 -13.229   6.328  1.00  0.00     0.034 A 
HETATM   13  C   UNL     1      42.271 -12.104   6.635  1.00  0.00     0.032 A 
HETATM   14  C   UNL     1      42.557 -11.326   7.767  1.00  0.00     0.032 A 
HETATM   15  C   UNL     1      43.610 -11.661   8.612  1.00  0.00     0.034 A 
HETATM   16  C   UNL     1      44.399 -12.771   8.288  1.00  0.00     0.032 A 
HETATM   17  C   UNL     1      44.116 -13.545   7.154  1.00  0.00     0.032 A 
BRANCH  15  18
HETATM   18  N   UNL     1      43.929 -10.959   9.794  1.00  0.00    -0.328 N 
HETATM   19  C   UNL     1      43.144 -10.824  10.927  1.00  0.00     0.218 C 
HETATM   20  C   UNL     1      43.840 -10.061  12.027  1.00  0.00     0.117 C 
HETATM   21  O   UNL     1      42.019 -11.273  11.104  1.00  0.00    -0.274 OA
HETATM   22  H   UNL     1      44.847 -10.537   9.822  1.00  0.00     0.169 HD
ENDBRANCH  15  18
ENDBRANCH   9  12
ENDBRANCH   1   8
BRANCH   2  23
HETATM   23  C   UNL     1      41.301 -13.130   2.117  1.00  0.00    -0.001 A 
HETATM   24  C   UNL     1      40.454 -12.406   2.984  1.00  0.00     0.076 A 
HETATM   25  C   UNL     1      40.298 -11.023   2.840  1.00  0.00     0.037 A 
HETATM   26  C   UNL     1      40.959 -10.348   1.817  1.00  0.00     0.003 A 
HETATM   27  C   UNL     1      41.780 -11.050   0.939  1.00  0.00     0.001 A 
HETATM   28  C   UNL     1      41.951 -12.427   1.086  1.00  0.00     0.012 A 
BRANCH  24  29
HETATM   29  O   UNL     1      39.861 -13.094   4.013  1.00  0.00    -0.355 OA
HETATM   30  C   UNL     1      39.120 -12.268   4.911  1.00  0.00     0.210 C 
ENDBRANCH  24  29
ENDBRANCH   2  23
BRANCH   3  31
HETATM   31  C   UNL     1      40.491 -15.041   0.051  1.00  0.00     0.038 A 
HETATM   32  C   UNL     1      41.034 -15.017  -1.237  1.00  0.00     0.032 A 
HETATM   33  C   UNL     1      40.288 -14.520  -2.311  1.00  0.00     0.039 A 
HETATM   34  C   UNL     1      38.996 -14.025  -2.117  1.00  0.00     0.068 A 
HETATM   35  C   UNL     1      38.463 -14.015  -0.831  1.00  0.00     0.039 A 
HETATM   36  C   UNL     1      39.212 -14.508   0.243  1.00  0.00     0.032 A 
BRANCH  34  37
HETATM   37  O   UNL     1      38.373 -13.580  -3.250  1.00  0.00    -0.356 OA
HETATM   38  C   UNL     1      37.305 -14.379  -3.747  1.00  0.00     0.210 C 
ENDBRANCH  34  37
ENDBRANCH   3  31
TORSDOF 7
ENDMDL
MODEL 8
REMARK VINA RESULT:      -7.0      3.681      8.900
REMARK  7 active torsions:
REMARK  status: ('A' for Active; 'I' for Inactive)
REMARK       I    between atoms: C_2  and  N_3 
REMARK    1  A    between atoms: N_3  and  C_4 
REMARK    2  A    between atoms: C_7  and  N_8 
REMARK       I    between atoms: N_8  and  C_9 
REMARK    3  A    between atoms: C_9  and  C_10 
REMARK    4  A    between atoms: C_11  and  C_12 
REMARK    5  A    between atoms: C_13  and  O_14 
REMARK    6  A    between atoms: N_20  and  C_21 
REMARK    7  A    between atoms: C_24  and  O_25 
ROOT
HETATM    1  C   UNL     1      41.779 -12.287   2.787  1.00  0.00     0.106 C 
HETATM    2  C   UNL     1      41.473 -13.546   3.621  1.00  0.00     0.142 C 
HETATM    3  N   UNL     1      42.064 -13.378   4.981  1.00  0.00    -0.308 N 
HETATM    4  C   UNL     1      41.754 -12.211   5.699  1.00  0.00     0.225 C 
HETATM    5  O   UNL     1      41.798 -12.105   6.928  1.00  0.00    -0.273 OA
HETATM    6  C   UNL     1      41.556 -10.942   4.877  1.00  0.00     0.104 C 
HETATM    7  C   UNL     1      41.061 -11.117   3.453  1.00  0.00     0.026 C 
ENDROOT
BRANCH   1   8
HETATM    8  C   UNL     1      41.432 -12.328   1.302  1.00  0.00     0.228 C 
HETATM    9  N   UNL     1      40.089 -12.395   0.986  1.00  0.00    -0.327 N 
HETATM   10  H   UNL     1      39.428 -12.502   1.744  1.00  0.00     0.169 HD
HETATM   11  O   UNL     1      42.357 -12.265   0.493  1.00  0.00    -0.273 OA
BRANCH   9  12
HETATM   12  C   UNL     1      39.546 -12.579  -0.307  1.00  0.00     0.034 A 
HETATM   13  C   UNL     1      40.047 -13.481  -1.245  1.00  0.00     0.032 A 
HETATM   14  C   UNL     1      39.414 -13.659  -2.484  1.00  0.00     0.032 A 
HETATM   15  C   UNL     1      38.268 -12.939  -2.807  1.00  0.00     0.034 A 
HETATM   16  C   UNL     1      37.782 -12.008  -1.881  1.00  0.00     0.032 A 
HETATM   17  C   UNL     1      38.418 -11.827  -0.645  1.00  0.00     0.032 A 
BRANCH  15  18
HETATM   18  N   UNL     1      37.548 -13.098  -4.009  1.00  0.00    -0.328 N 
HETATM   19  C   UNL     1      36.708 -14.145  -4.352  1.00  0.00     0.218 C 
HETATM   20  C   UNL     1      36.049 -13.944  -5.695  1.00  0.00     0.117 C 
HETATM   21  O   UNL     1      36.451 -15.136  -3.681  1.00  0.00    -0.274 OA
HETATM   22  H   UNL     1      37.634 -12.344  -4.677  1.00  0.00     0.169 HD
ENDBRANCH  15  18
ENDBRANCH   9  12
ENDBRANCH   1   8
BRANCH   2  23
HETATM   23  C   UNL     1      41.695 -14.878   2.905  1.00  0.00    -0.001 A 
HETATM   24  C   UNL     1      40.588 -15.658   2.504  1.00  0.00     0.076 A 
HETATM   25  C   UNL     1      40.773 -16.853   1.801  1.00  0.00     0.037 A 
HETATM   26  C   UNL     1      42.060 -17.301   1.512  1.00  0.00     0.003 A 
HETATM   27  C   UNL     1      43.163 -16.556   1.919  1.00  0.00     0.001 A 
HETATM   28  C   UNL     1      42.985 -15.356   2.608  1.00  0.00     0.012 A 
BRANCH  24  29
HETATM   29  O   UNL     1      39.335 -15.159   2.759  1.00  0.00    -0.355 OA
HETATM   30  C   UNL     1      38.451 -15.216   1.640  1.00  0.00     0.210 C 
ENDBRANCH  24  29
ENDBRANCH   2  23
BRANCH   3  31
HETATM   31  C   UNL     1      42.531 -14.529   5.689  1.00  0.00     0.038 A 
HETATM   32  C   UNL     1      41.665 -15.541   6.115  1.00  0.00     0.032 A 
HETATM   33  C   UNL     1      42.160 -16.652   6.807  1.00  0.00     0.039 A 
HETATM   34  C   UNL     1      43.520 -16.765   7.099  1.00  0.00     0.068 A 
HETATM   35  C   UNL     1      44.383 -15.745   6.708  1.00  0.00     0.039 A 
HETATM   36  C   UNL     1      43.886 -14.632   6.020  1.00  0.00     0.032 A 
BRANCH  34  37
HETATM   37  O   UNL     1      43.873 -17.904   7.769  1.00  0.00    -0.356 OA
HETATM   38  C   UNL     1      43.786 -19.125   7.044  1.00  0.00     0.210 C 
ENDBRANCH  34  37
ENDBRANCH   3  31
TORSDOF 7
ENDMDL
MODEL 9
REMARK VINA RESULT:      -6.9      5.070      9.412
REMARK  7 active torsions:
REMARK  status: ('A' for Active; 'I' for Inactive)
REMARK       I    between atoms: C_2  and  N_3 
REMARK    1  A    between atoms: N_3  and  C_4 
REMARK    2  A    between atoms: C_7  and  N_8 
REMARK       I    between atoms: N_8  and  C_9 
REMARK    3  A    between atoms: C_9  and  C_10 
REMARK    4  A    between atoms: C_11  and  C_12 
REMARK    5  A    between atoms: C_13  and  O_14 
REMARK    6  A    between atoms: N_20  and  C_21 
REMARK    7  A    between atoms: C_24  and  O_25 
ROOT
HETATM    1  C   UNL     1      40.369 -13.078   2.211  1.00  0.00     0.106 C 
HETATM    2  C   UNL     1      40.411 -12.130   0.997  1.00  0.00     0.142 C 
HETATM    3  N   UNL     1      39.153 -11.326   0.971  1.00  0.00    -0.308 N 
HETATM    4  C   UNL     1      38.783 -10.635   2.136  1.00  0.00     0.225 C 
HETATM    5  O   UNL     1      38.055  -9.640   2.166  1.00  0.00    -0.273 OA
HETATM    6  C   UNL     1      39.144 -11.299   3.461  1.00  0.00     0.104 C 
HETATM    7  C   UNL     1      40.360 -12.208   3.465  1.00  0.00     0.026 C 
ENDROOT
BRANCH   1   8
HETATM    8  C   UNL     1      41.472 -14.126   2.320  1.00  0.00     0.228 C 
HETATM    9  N   UNL     1      41.093 -15.440   2.122  1.00  0.00    -0.327 N 
HETATM   10  H   UNL     1      40.107 -15.637   2.007  1.00  0.00     0.169 HD
HETATM   11  O   UNL     1      42.617 -13.736   2.540  1.00  0.00    -0.273 OA
BRANCH   9  12
HETATM   12  C   UNL     1      41.910 -16.580   2.308  1.00  0.00     0.034 A 
HETATM   13  C   UNL     1      41.939 -17.339   3.477  1.00  0.00     0.032 A 
HETATM   14  C   UNL     1      42.724 -18.499   3.564  1.00  0.00     0.032 A 
HETATM   15  C   UNL     1      43.494 -18.918   2.483  1.00  0.00     0.034 A 
HETATM   16  C   UNL     1      43.493 -18.139   1.321  1.00  0.00     0.032 A 
HETATM   17  C   UNL     1      42.712 -16.978   1.236  1.00  0.00     0.032 A 
BRANCH  15  18
HETATM   18  N   UNL     1      44.269 -20.097   2.477  1.00  0.00    -0.328 N 
HETATM   19  C   UNL     1      43.879 -21.356   2.049  1.00  0.00     0.218 C 
HETATM   20  C   UNL     1      44.998 -22.366   2.122  1.00  0.00     0.117 C 
HETATM   21  O   UNL     1      42.782 -21.681   1.616  1.00  0.00    -0.274 OA
HETATM   22  H   UNL     1      45.225 -19.998   2.791  1.00  0.00     0.169 HD
ENDBRANCH  15  18
ENDBRANCH   9  12
ENDBRANCH   1   8
BRANCH   2  23
HETATM   23  C   UNL     1      40.884 -12.761  -0.313  1.00  0.00    -0.001 A 
HETATM   24  C   UNL     1      42.068 -12.303  -0.929  1.00  0.00     0.076 A 
HETATM   25  C   UNL     1      42.543 -12.905  -2.099  1.00  0.00     0.037 A 
HETATM   26  C   UNL     1      41.832 -13.950  -2.686  1.00  0.00     0.003 A 
HETATM   27  C   UNL     1      40.650 -14.398  -2.103  1.00  0.00     0.001 A 
HETATM   28  C   UNL     1      40.179 -13.811  -0.928  1.00  0.00     0.012 A 
BRANCH  24  29
HETATM   29  O   UNL     1      42.771 -11.308  -0.295  1.00  0.00    -0.355 OA
HETATM   30  C   UNL     1      43.504 -10.462  -1.182  1.00  0.00     0.210 C 
ENDBRANCH  24  29
ENDBRANCH   2  23
BRANCH   3  31
HETATM   31  C   UNL     1      38.613 -10.912  -0.287  1.00  0.00     0.038 A 
HETATM   32  C   UNL     1      39.210  -9.912  -1.058  1.00  0.00     0.032 A 
HETATM   33  C   UNL     1      38.650  -9.533  -2.284  1.00  0.00     0.039 A 
HETATM   34  C   UNL     1      37.479 -10.133  -2.751  1.00  0.00     0.068 A 
HETATM   35  C   UNL     1      36.860 -11.106  -1.971  1.00  0.00     0.039 A 
HETATM   36  C   UNL     1      37.419 -11.480  -0.744  1.00  0.00     0.032 A 
BRANCH  34  37
HETATM   37  O   UNL     1      37.045  -9.679  -3.966  1.00  0.00    -0.356 OA
HETATM   38  C   UNL     1      37.516  -8.401  -4.376  1.00  0.00     0.210 C 
ENDBRANCH  34  37
ENDBRANCH   3  31
TORSDOF 7
ENDMDL
MODEL 10
REMARK VINA RESULT:      -6.8      4.686      8.396
REMARK  7 active torsions:
REMARK  status: ('A' for Active; 'I' for Inactive)
REMARK       I    between atoms: C_2  and  N_3 
REMARK    1  A    between atoms: N_3  and  C_4 
REMARK    2  A    between atoms: C_7  and  N_8 
REMARK       I    between atoms: N_8  and  C_9 
REMARK    3  A    between atoms: C_9  and  C_10 
REMARK    4  A    between atoms: C_11  and  C_12 
REMARK    5  A    between atoms: C_13  and  O_14 
REMARK    6  A    between atoms: N_20  and  C_21 
REMARK    7  A    between atoms: C_24  and  O_25 
ROOT
HETATM    1  C   UNL     1      42.242 -18.379   2.256  1.00  0.00     0.106 C 
HETATM    2  C   UNL     1      43.042 -17.883   3.476  1.00  0.00     0.142 C 
HETATM    3  N   UNL     1      43.740 -19.046   4.099  1.00  0.00    -0.308 N 
HETATM    4  C   UNL     1      44.531 -19.864   3.277  1.00  0.00     0.225 C 
HETATM    5  O   UNL     1      45.465 -20.568   3.669  1.00  0.00    -0.273 OA
HETATM    6  C   UNL     1      44.056 -20.041   1.838  1.00  0.00     0.104 C 
HETATM    7  C   UNL     1      43.249 -18.905   1.237  1.00  0.00     0.026 C 
ENDROOT
BRANCH   1   8
HETATM    8  C   UNL     1      41.301 -17.385   1.584  1.00  0.00     0.228 C 
HETATM    9  N   UNL     1      41.872 -16.508   0.683  1.00  0.00    -0.327 N 
HETATM   10  H   UNL     1      42.879 -16.516   0.587  1.00  0.00     0.169 HD
HETATM   11  O   UNL     1      40.103 -17.449   1.860  1.00  0.00    -0.273 OA
BRANCH   9  12
HETATM   12  C   UNL     1      41.223 -15.421   0.051  1.00  0.00     0.034 A 
HETATM   13  C   UNL     1      40.917 -15.376  -1.308  1.00  0.00     0.032 A 
HETATM   14  C   UNL     1      40.209 -14.294  -1.853  1.00  0.00     0.032 A 
HETATM   15  C   UNL     1      39.794 -13.239  -1.047  1.00  0.00     0.034 A 
HETATM   16  C   UNL     1      40.129 -13.265   0.312  1.00  0.00     0.032 A 
HETATM   17  C   UNL     1      40.841 -14.344   0.854  1.00  0.00     0.032 A 
BRANCH  15  18
HETATM   18  N   UNL     1      39.037 -12.142  -1.510  1.00  0.00    -0.328 N 
HETATM   19  C   UNL     1      39.496 -11.046  -2.222  1.00  0.00     0.218 C 
HETATM   20  C   UNL     1      38.386 -10.101  -2.611  1.00  0.00     0.117 C 
HETATM   21  O   UNL     1      40.648 -10.819  -2.565  1.00  0.00    -0.274 OA
HETATM   22  H   UNL     1      38.044 -12.182  -1.324  1.00  0.00     0.169 HD
ENDBRANCH  15  18
ENDBRANCH   9  12
ENDBRANCH   1   8
BRANCH   2  23
HETATM   23  C   UNL     1      42.301 -16.916   4.398  1.00  0.00    -0.001 A 
HETATM   24  C   UNL     1      42.613 -15.539   4.375  1.00  0.00     0.076 A 
HETATM   25  C   UNL     1      41.908 -14.633   5.175  1.00  0.00     0.037 A 
HETATM   26  C   UNL     1      40.904 -15.088   6.026  1.00  0.00     0.003 A 
HETATM   27  C   UNL     1      40.598 -16.445   6.078  1.00  0.00     0.001 A 
HETATM   28  C   UNL     1      41.288 -17.351   5.272  1.00  0.00     0.012 A 
BRANCH  24  29
HETATM   29  O   UNL     1      43.572 -15.120   3.486  1.00  0.00    -0.355 OA
HETATM   30  C   UNL     1      43.595 -13.707   3.284  1.00  0.00     0.210 C 
ENDBRANCH  24  29
ENDBRANCH   2  23
BRANCH   3  31
HETATM   31  C   UNL     1      43.961 -19.055   5.512  1.00  0.00     0.038 A 
HETATM   32  C   UNL     1      43.416 -20.038   6.343  1.00  0.00     0.032 A 
HETATM   33  C   UNL     1      43.655 -20.012   7.722  1.00  0.00     0.039 A 
HETATM   34  C   UNL     1      44.425 -19.000   8.295  1.00  0.00     0.068 A 
HETATM   35  C   UNL     1      44.943 -17.999   7.478  1.00  0.00     0.039 A 
HETATM   36  C   UNL     1      44.700 -18.023   6.100  1.00  0.00     0.032 A 
BRANCH  34  37
HETATM   37  O   UNL     1      44.590 -19.098   9.650  1.00  0.00    -0.356 OA
HETATM   38  C   UNL     1      45.929 -19.124  10.130  1.00  0.00     0.210 C 
ENDBRANCH  34  37
ENDBRANCH   3  31
TORSDOF 7
ENDMDL
