MODEL 1
REMARK VINA RESULT:      -9.2      0.000      0.000
REMARK  8 active torsions:
REMARK  status: ('A' for Active; 'I' for Inactive)
REMARK    1  A    between atoms: C_4  and  C_5 
REMARK    2  A    between atoms: C_5  and  N_6 
REMARK       I    between atoms: N_6  and  C_7 
REMARK    3  A    between atoms: C_7  and  C_8 
REMARK    4  A    between atoms: C_11  and  C_12 
REMARK    5  A    between atoms: C_12  and  O_13 
REMARK    6  A    between atoms: O_13  and  C_14 
REMARK    7  A    between atoms: C_25  and  C_26 
REMARK    8  A    between atoms: C_26  and  O_27 
ROOT
HETATM    1  N   UNL     1      44.362 -13.287   8.134  1.00  0.00    -0.351 N 
HETATM    2  C   UNL     1      45.004 -13.758   7.015  1.00  0.00     0.251 C 
HETATM    3  O   UNL     1      46.083 -13.316   6.632  1.00  0.00    -0.268 OA
HETATM    4  H   UNL     1      43.408 -13.544   8.359  1.00  0.00     0.163 HD
ENDROOT
BRANCH   2   5
HETATM    5  C   UNL     1      44.303 -14.818   6.238  1.00  0.00     0.032 A 
HETATM    6  C   UNL     1      44.319 -16.124   6.739  1.00  0.00     0.017 A 
HETATM    7  C   UNL     1      43.700 -17.159   6.033  1.00  0.00     0.010 A 
HETATM    8  C   UNL     1      43.056 -16.901   4.815  1.00  0.00    -0.034 A 
HETATM    9  C   UNL     1      43.005 -15.583   4.339  1.00  0.00     0.010 A 
HETATM   10  C   UNL     1      43.626 -14.546   5.043  1.00  0.00     0.017 A 
BRANCH   8  11
HETATM   11  C   UNL     1      42.401 -18.024   4.047  1.00  0.00     0.214 C 
BRANCH  11  12
HETATM   12  O   UNL     1      43.232 -18.362   2.941  1.00  0.00    -0.347 OA
BRANCH  12  13
HETATM   13  C   UNL     1      43.635 -19.667   2.847  1.00  0.00     0.069 A 
HETATM   14  C   UNL     1      43.401 -20.525   1.771  1.00  0.00     0.037 A 
HETATM   15  C   UNL     1      43.873 -21.841   1.806  1.00  0.00     0.003 A 
HETATM   16  C   UNL     1      44.580 -22.305   2.915  1.00  0.00     0.000 A 
HETATM   17  C   UNL     1      44.815 -21.453   3.991  1.00  0.00     0.003 A 
HETATM   18  C   UNL     1      44.343 -20.139   3.955  1.00  0.00     0.037 A 
ENDBRANCH  12  13
ENDBRANCH  11  12
ENDBRANCH   8  11
ENDBRANCH   2   5
BRANCH   1  19
HETATM   19  C   UNL     1      44.899 -12.181   8.895  1.00  0.00     0.182 C 
BRANCH  19  20
HETATM   20  C   UNL     1      43.978 -11.764  10.021  1.00  0.00     0.052 A 
HETATM   21  N   UNL     1      42.938 -10.936   9.727  1.00  0.00    -0.256 NA
HETATM   22  C   UNL     1      42.112 -10.548  10.735  1.00  0.00     0.040 A 
HETATM   23  C   UNL     1      40.990  -9.638  10.324  1.00  0.00     0.071 C 
HETATM   24  C   UNL     1      42.282 -10.970  12.059  1.00  0.00    -0.006 A 
HETATM   25  C   UNL     1      43.369 -11.817  12.329  1.00  0.00     0.014 A 
HETATM   26  C   UNL     1      44.222 -12.220  11.308  1.00  0.00     0.029 A 
BRANCH  24  27
HETATM   27  C   UNL     1      41.372 -10.536  13.185  1.00  0.00     0.149 C 
HETATM   28  C   UNL     1      42.137 -10.273  14.477  1.00  0.00     0.044 C 
BRANCH  27  29
HETATM   29  O   UNL     1      40.388 -11.541  13.439  1.00  0.00    -0.391 OA
HETATM   30  H   UNL     1      40.796 -12.402  13.239  1.00  0.00     0.210 HD
ENDBRANCH  27  29
ENDBRANCH  24  27
ENDBRANCH  19  20
ENDBRANCH   1  19
TORSDOF 8
ENDMDL
MODEL 2
REMARK VINA RESULT:      -8.6      2.046      2.755
REMARK  8 active torsions:
REMARK  status: ('A' for Active; 'I' for Inactive)
REMARK    1  A    between atoms: C_4  and  C_5 
REMARK    2  A    between atoms: C_5  and  N_6 
REMARK       I    between atoms: N_6  and  C_7 
REMARK    3  A    between atoms: C_7  and  C_8 
REMARK    4  A    between atoms: C_11  and  C_12 
REMARK    5  A    between atoms: C_12  and  O_13 
REMARK    6  A    between atoms: O_13  and  C_14 
REMARK    7  A    between atoms: C_25  and  C_26 
REMARK    8  A    between atoms: C_26  and  O_27 
ROOT
HETATM    1  N   UNL     1      42.578 -12.993   6.672  1.00  0.00    -0.351 N 
HETATM    2  C   UNL     1      41.889 -13.971   5.998  1.00  0.00     0.251 C 
HETATM    3  O   UNL     1      40.826 -13.759   5.422  1.00  0.00    -0.268 OA
HETATM    4  H   UNL     1      43.369 -13.202   7.270  1.00  0.00     0.163 HD
ENDROOT
BRANCH   2   5
HETATM    5  C   UNL     1      42.469 -15.342   6.031  1.00  0.00     0.032 A 
HETATM    6  C   UNL     1      41.680 -16.404   5.576  1.00  0.00     0.017 A 
HETATM    7  C   UNL     1      42.168 -17.713   5.612  1.00  0.00     0.010 A 
HETATM    8  C   UNL     1      43.453 -17.978   6.106  1.00  0.00    -0.034 A 
HETATM    9  C   UNL     1      44.256 -16.906   6.519  1.00  0.00     0.010 A 
HETATM   10  C   UNL     1      43.769 -15.595   6.486  1.00  0.00     0.017 A 
BRANCH   8  11
HETATM   11  C   UNL     1      43.972 -19.395   6.159  1.00  0.00     0.214 C 
BRANCH  11  12
HETATM   12  O   UNL     1      44.961 -19.555   5.148  1.00  0.00    -0.347 OA
BRANCH  12  13
HETATM   13  C   UNL     1      44.577 -20.203   4.004  1.00  0.00     0.069 A 
HETATM   14  C   UNL     1      43.993 -19.614   2.882  1.00  0.00     0.037 A 
HETATM   15  C   UNL     1      43.648 -20.398   1.776  1.00  0.00     0.003 A 
HETATM   16  C   UNL     1      43.886 -21.771   1.787  1.00  0.00     0.000 A 
HETATM   17  C   UNL     1      44.467 -22.364   2.905  1.00  0.00     0.003 A 
HETATM   18  C   UNL     1      44.810 -21.581   4.009  1.00  0.00     0.037 A 
ENDBRANCH  12  13
ENDBRANCH  11  12
ENDBRANCH   8  11
ENDBRANCH   2   5
BRANCH   1  19
HETATM   19  C   UNL     1      42.046 -11.655   6.799  1.00  0.00     0.182 C 
BRANCH  19  20
HETATM   20  C   UNL     1      42.350 -11.047   8.152  1.00  0.00     0.052 A 
HETATM   21  N   UNL     1      43.594 -11.235   8.675  1.00  0.00    -0.256 NA
HETATM   22  C   UNL     1      43.873 -10.701   9.894  1.00  0.00     0.040 A 
HETATM   23  C   UNL     1      45.266 -10.952  10.395  1.00  0.00     0.071 C 
HETATM   24  C   UNL     1      42.938  -9.962  10.628  1.00  0.00    -0.006 A 
HETATM   25  C   UNL     1      41.663  -9.794  10.064  1.00  0.00     0.014 A 
HETATM   26  C   UNL     1      41.365 -10.336   8.820  1.00  0.00     0.029 A 
BRANCH  24  27
HETATM   27  C   UNL     1      43.239  -9.373  11.989  1.00  0.00     0.149 C 
HETATM   28  C   UNL     1      42.662 -10.213  13.122  1.00  0.00     0.044 C 
BRANCH  27  29
HETATM   29  O   UNL     1      42.700  -8.054  12.084  1.00  0.00    -0.391 OA
HETATM   30  H   UNL     1      42.364  -7.943  12.991  1.00  0.00     0.210 HD
ENDBRANCH  27  29
ENDBRANCH  24  27
ENDBRANCH  19  20
ENDBRANCH   1  19
TORSDOF 8
ENDMDL
MODEL 3
REMARK VINA RESULT:      -8.5      5.653      9.263
REMARK  8 active torsions:
REMARK  status: ('A' for Active; 'I' for Inactive)
REMARK    1  A    between atoms: C_4  and  C_5 
REMARK    2  A    between atoms: C_5  and  N_6 
REMARK       I    between atoms: N_6  and  C_7 
REMARK    3  A    between atoms: C_7  and  C_8 
REMARK    4  A    between atoms: C_11  and  C_12 
REMARK    5  A    between atoms: C_12  and  O_13 
REMARK    6  A    between atoms: O_13  and  C_14 
REMARK    7  A    between atoms: C_25  and  C_26 
REMARK    8  A    between atoms: C_26  and  O_27 
ROOT
HETATM    1  N   UNL     1      39.932 -14.964   2.977  1.00  0.00    -0.351 N 
HETATM    2  C   UNL     1      41.046 -14.681   3.728  1.00  0.00     0.251 C 
HETATM    3  O   UNL     1      41.518 -13.552   3.819  1.00  0.00    -0.268 OA
HETATM    4  H   UNL     1      39.636 -15.913   2.781  1.00  0.00     0.163 HD
ENDROOT
BRANCH   2   5
HETATM    5  C   UNL     1      41.705 -15.832   4.406  1.00  0.00     0.032 A 
HETATM    6  C   UNL     1      42.969 -15.630   4.971  1.00  0.00     0.017 A 
HETATM    7  C   UNL     1      43.641 -16.686   5.594  1.00  0.00     0.010 A 
HETATM    8  C   UNL     1      43.057 -17.958   5.661  1.00  0.00    -0.034 A 
HETATM    9  C   UNL     1      41.771 -18.144   5.133  1.00  0.00     0.010 A 
HETATM   10  C   UNL     1      41.098 -17.090   4.507  1.00  0.00     0.017 A 
BRANCH   8  11
HETATM   11  C   UNL     1      43.792 -19.100   6.320  1.00  0.00     0.214 C 
BRANCH  11  12
HETATM   12  O   UNL     1      44.924 -19.432   5.524  1.00  0.00    -0.347 OA
BRANCH  12  13
HETATM   13  C   UNL     1      44.742 -20.384   4.557  1.00  0.00     0.069 A 
HETATM   14  C   UNL     1      44.837 -21.765   4.734  1.00  0.00     0.037 A 
HETATM   15  C   UNL     1      44.625 -22.629   3.654  1.00  0.00     0.003 A 
HETATM   16  C   UNL     1      44.317 -22.116   2.395  1.00  0.00     0.000 A 
HETATM   17  C   UNL     1      44.223 -20.739   2.213  1.00  0.00     0.003 A 
HETATM   18  C   UNL     1      44.435 -19.878   3.291  1.00  0.00     0.037 A 
ENDBRANCH  12  13
ENDBRANCH  11  12
ENDBRANCH   8  11
ENDBRANCH   2   5
BRANCH   1  19
HETATM   19  C   UNL     1      39.284 -13.941   2.187  1.00  0.00     0.182 C 
BRANCH  19  20
HETATM   20  C   UNL     1      39.515 -14.136   0.703  1.00  0.00     0.052 A 
HETATM   21  N   UNL     1      38.625 -13.579  -0.164  1.00  0.00    -0.256 NA
HETATM   22  C   UNL     1      38.819 -13.757  -1.498  1.00  0.00     0.040 A 
HETATM   23  C   UNL     1      37.795 -13.108  -2.383  1.00  0.00     0.071 C 
HETATM   24  C   UNL     1      39.898 -14.485  -2.015  1.00  0.00    -0.006 A 
HETATM   25  C   UNL     1      40.792 -15.053  -1.093  1.00  0.00     0.014 A 
HETATM   26  C   UNL     1      40.604 -14.878   0.273  1.00  0.00     0.029 A 
BRANCH  24  27
HETATM   27  C   UNL     1      40.115 -14.695  -3.497  1.00  0.00     0.149 C 
HETATM   28  C   UNL     1      39.480 -15.987  -3.995  1.00  0.00     0.044 C 
BRANCH  27  29
HETATM   29  O   UNL     1      41.513 -14.735  -3.789  1.00  0.00    -0.391 OA
HETATM   30  H   UNL     1      41.813 -15.649  -3.638  1.00  0.00     0.210 HD
ENDBRANCH  27  29
ENDBRANCH  24  27
ENDBRANCH  19  20
ENDBRANCH   1  19
TORSDOF 8
ENDMDL
MODEL 4
REMARK VINA RESULT:      -8.3      1.990      2.792
REMARK  8 active torsions:
REMARK  status: ('A' for Active; 'I' for Inactive)
REMARK    1  A    between atoms: C_4  and  C_5 
REMARK    2  A    between atoms: C_5  and  N_6 
REMARK       I    between atoms: N_6  and  C_7 
REMARK    3  A    between atoms: C_7  and  C_8 
REMARK    4  A    between atoms: C_11  and  C_12 
REMARK    5  A    between atoms: C_12  and  O_13 
REMARK    6  A    between atoms: O_13  and  C_14 
REMARK    7  A    between atoms: C_25  and  C_26 
REMARK    8  A    between atoms: C_26  and  O_27 
ROOT
HETATM    1  N   UNL     1      41.702 -11.870   6.942  1.00  0.00    -0.351 N 
HETATM    2  C   UNL     1      41.754 -12.227   5.617  1.00  0.00     0.251 C 
HETATM    3  O   UNL     1      41.732 -11.405   4.706  1.00  0.00    -0.268 OA
HETATM    4  H   UNL     1      41.566 -12.550   7.681  1.00  0.00     0.163 HD
ENDROOT
BRANCH   2   5
HETATM    5  C   UNL     1      41.790 -13.685   5.318  1.00  0.00     0.032 A 
HETATM    6  C   UNL     1      42.836 -14.171   4.525  1.00  0.00     0.017 A 
HETATM    7  C   UNL     1      42.900 -15.527   4.193  1.00  0.00     0.010 A 
HETATM    8  C   UNL     1      41.917 -16.416   4.650  1.00  0.00    -0.034 A 
HETATM    9  C   UNL     1      40.896 -15.933   5.480  1.00  0.00     0.010 A 
HETATM   10  C   UNL     1      40.829 -14.575   5.811  1.00  0.00     0.017 A 
BRANCH   8  11
HETATM   11  C   UNL     1      41.980 -17.877   4.276  1.00  0.00     0.214 C 
BRANCH  11  12
HETATM   12  O   UNL     1      43.000 -18.054   3.299  1.00  0.00    -0.347 OA
BRANCH  12  13
HETATM   13  C   UNL     1      43.523 -19.312   3.171  1.00  0.00     0.069 A 
HETATM   14  C   UNL     1      44.333 -19.965   4.102  1.00  0.00     0.037 A 
HETATM   15  C   UNL     1      44.801 -21.257   3.843  1.00  0.00     0.003 A 
HETATM   16  C   UNL     1      44.461 -21.902   2.655  1.00  0.00     0.000 A 
HETATM   17  C   UNL     1      43.655 -21.254   1.722  1.00  0.00     0.003 A 
HETATM   18  C   UNL     1      43.189 -19.965   1.981  1.00  0.00     0.037 A 
ENDBRANCH  12  13
ENDBRANCH  11  12
ENDBRANCH   8  11
ENDBRANCH   2   5
BRANCH   1  19
HETATM   19  C   UNL     1      41.548 -10.488   7.339  1.00  0.00     0.182 C 
BRANCH  19  20
HETATM   20  C   UNL     1      41.995 -10.253   8.767  1.00  0.00     0.052 A 
HETATM   21  N   UNL     1      43.245 -10.658   9.124  1.00  0.00    -0.256 NA
HETATM   22  C   UNL     1      43.651 -10.460  10.406  1.00  0.00     0.040 A 
HETATM   23  C   UNL     1      45.043 -10.931  10.713  1.00  0.00     0.071 C 
HETATM   24  C   UNL     1      42.838  -9.853  11.371  1.00  0.00    -0.006 A 
HETATM   25  C   UNL     1      41.552  -9.456  10.973  1.00  0.00     0.014 A 
HETATM   26  C   UNL     1      41.125  -9.654   9.665  1.00  0.00     0.029 A 
BRANCH  24  27
HETATM   27  C   UNL     1      43.280  -9.638  12.802  1.00  0.00     0.149 C 
HETATM   28  C   UNL     1      42.585 -10.588  13.769  1.00  0.00     0.044 C 
BRANCH  27  29
HETATM   29  O   UNL     1      43.001  -8.297  13.207  1.00  0.00    -0.391 OA
HETATM   30  H   UNL     1      43.854  -7.871  13.406  1.00  0.00     0.210 HD
ENDBRANCH  27  29
ENDBRANCH  24  27
ENDBRANCH  19  20
ENDBRANCH   1  19
TORSDOF 8
ENDMDL
MODEL 5
REMARK VINA RESULT:      -8.2      5.671      9.256
REMARK  8 active torsions:
REMARK  status: ('A' for Active; 'I' for Inactive)
REMARK    1  A    between atoms: C_4  and  C_5 
REMARK    2  A    between atoms: C_5  and  N_6 
REMARK       I    between atoms: N_6  and  C_7 
REMARK    3  A    between atoms: C_7  and  C_8 
REMARK    4  A    between atoms: C_11  and  C_12 
REMARK    5  A    between atoms: C_12  and  O_13 
REMARK    6  A    between atoms: O_13  and  C_14 
REMARK    7  A    between atoms: C_25  and  C_26 
REMARK    8  A    between atoms: C_26  and  O_27 
ROOT
HETATM    1  N   UNL     1      41.310 -14.230   2.422  1.00  0.00    -0.351 N 
HETATM    2  C   UNL     1      40.843 -14.710   3.621  1.00  0.00     0.251 C 
HETATM    3  O   UNL     1      39.848 -14.255   4.177  1.00  0.00    -0.268 OA
HETATM    4  H   UNL     1      42.210 -14.501   2.044  1.00  0.00     0.163 HD
ENDROOT
BRANCH   2   5
HETATM    5  C   UNL     1      41.633 -15.799   4.259  1.00  0.00     0.032 A 
HETATM    6  C   UNL     1      41.099 -17.092   4.255  1.00  0.00     0.017 A 
HETATM    7  C   UNL     1      41.789 -18.143   4.866  1.00  0.00     0.010 A 
HETATM    8  C   UNL     1      43.024 -17.914   5.488  1.00  0.00    -0.034 A 
HETATM    9  C   UNL     1      43.576 -16.626   5.450  1.00  0.00     0.010 A 
HETATM   10  C   UNL     1      42.885 -15.572   4.843  1.00  0.00     0.017 A 
BRANCH   8  11
HETATM   11  C   UNL     1      43.759 -19.048   6.161  1.00  0.00     0.214 C 
BRANCH  11  12
HETATM   12  O   UNL     1      44.897 -19.383   5.373  1.00  0.00    -0.347 OA
BRANCH  12  13
HETATM   13  C   UNL     1      44.698 -20.263   4.343  1.00  0.00     0.069 A 
HETATM   14  C   UNL     1      44.362 -19.930   3.030  1.00  0.00     0.037 A 
HETATM   15  C   UNL     1      44.189 -20.935   2.072  1.00  0.00     0.003 A 
HETATM   16  C   UNL     1      44.351 -22.275   2.423  1.00  0.00     0.000 A 
HETATM   17  C   UNL     1      44.685 -22.612   3.732  1.00  0.00     0.003 A 
HETATM   18  C   UNL     1      44.857 -21.608   4.687  1.00  0.00     0.037 A 
ENDBRANCH  12  13
ENDBRANCH  11  12
ENDBRANCH   8  11
ENDBRANCH   2   5
BRANCH   1  19
HETATM   19  C   UNL     1      40.684 -13.098   1.775  1.00  0.00     0.182 C 
BRANCH  19  20
HETATM   20  C   UNL     1      40.027 -13.482   0.466  1.00  0.00     0.052 A 
HETATM   21  N   UNL     1      40.820 -13.950  -0.538  1.00  0.00    -0.256 NA
HETATM   22  C   UNL     1      40.239 -14.288  -1.720  1.00  0.00     0.040 A 
HETATM   23  C   UNL     1      41.184 -14.797  -2.770  1.00  0.00     0.071 C 
HETATM   24  C   UNL     1      38.862 -14.181  -1.944  1.00  0.00    -0.006 A 
HETATM   25  C   UNL     1      38.074 -13.688  -0.892  1.00  0.00     0.014 A 
HETATM   26  C   UNL     1      38.656 -13.337   0.321  1.00  0.00     0.029 A 
BRANCH  24  27
HETATM   27  C   UNL     1      38.211 -14.547  -3.260  1.00  0.00     0.149 C 
HETATM   28  C   UNL     1      37.182 -13.513  -3.701  1.00  0.00     0.044 C 
BRANCH  27  29
HETATM   29  O   UNL     1      37.561 -15.814  -3.152  1.00  0.00    -0.391 OA
HETATM   30  H   UNL     1      38.256 -16.496  -3.149  1.00  0.00     0.210 HD
ENDBRANCH  27  29
ENDBRANCH  24  27
ENDBRANCH  19  20
ENDBRANCH   1  19
TORSDOF 8
ENDMDL
MODEL 6
REMARK VINA RESULT:      -8.0      7.241     10.287
REMARK  8 active torsions:
REMARK  status: ('A' for Active; 'I' for Inactive)
REMARK    1  A    between atoms: C_4  and  C_5 
REMARK    2  A    between atoms: C_5  and  N_6 
REMARK       I    between atoms: N_6  and  C_7 
REMARK    3  A    between atoms: C_7  and  C_8 
REMARK    4  A    between atoms: C_11  and  C_12 
REMARK    5  A    between atoms: C_12  and  O_13 
REMARK    6  A    between atoms: O_13  and  C_14 
REMARK    7  A    between atoms: C_25  and  C_26 
REMARK    8  A    between atoms: C_26  and  O_27 
ROOT
HETATM    1  N   UNL     1      39.994 -14.566  -0.287  1.00  0.00    -0.351 N 
HETATM    2  C   UNL     1      40.805 -15.645  -0.536  1.00  0.00     0.251 C 
HETATM    3  O   UNL     1      41.007 -16.079  -1.666  1.00  0.00    -0.268 OA
HETATM    4  H   UNL     1      39.710 -14.306   0.650  1.00  0.00     0.163 HD
ENDROOT
BRANCH   2   5
HETATM    5  C   UNL     1      41.410 -16.315   0.649  1.00  0.00     0.032 A 
HETATM    6  C   UNL     1      40.649 -16.396   1.821  1.00  0.00     0.017 A 
HETATM    7  C   UNL     1      41.181 -16.990   2.968  1.00  0.00     0.010 A 
HETATM    8  C   UNL     1      42.482 -17.513   2.959  1.00  0.00    -0.034 A 
HETATM    9  C   UNL     1      43.223 -17.469   1.769  1.00  0.00     0.010 A 
HETATM   10  C   UNL     1      42.693 -16.872   0.621  1.00  0.00     0.017 A 
BRANCH   8  11
HETATM   11  C   UNL     1      43.059 -18.140   4.205  1.00  0.00     0.214 C 
BRANCH  11  12
HETATM   12  O   UNL     1      44.338 -18.682   3.890  1.00  0.00    -0.347 OA
BRANCH  12  13
HETATM   13  C   UNL     1      44.470 -20.042   3.970  1.00  0.00     0.069 A 
HETATM   14  C   UNL     1      44.729 -20.777   5.128  1.00  0.00     0.037 A 
HETATM   15  C   UNL     1      44.840 -22.169   5.067  1.00  0.00     0.003 A 
HETATM   16  C   UNL     1      44.692 -22.833   3.850  1.00  0.00     0.000 A 
HETATM   17  C   UNL     1      44.435 -22.104   2.691  1.00  0.00     0.003 A 
HETATM   18  C   UNL     1      44.325 -20.714   2.753  1.00  0.00     0.037 A 
ENDBRANCH  12  13
ENDBRANCH  11  12
ENDBRANCH   8  11
ENDBRANCH   2   5
BRANCH   1  19
HETATM   19  C   UNL     1      39.268 -13.914  -1.354  1.00  0.00     0.182 C 
BRANCH  19  20
HETATM   20  C   UNL     1      40.129 -12.923  -2.107  1.00  0.00     0.052 A 
HETATM   21  N   UNL     1      41.211 -12.397  -1.469  1.00  0.00    -0.256 NA
HETATM   22  C   UNL     1      41.985 -11.499  -2.134  1.00  0.00     0.040 A 
HETATM   23  C   UNL     1      43.158 -10.972  -1.359  1.00  0.00     0.071 C 
HETATM   24  C   UNL     1      41.719 -11.098  -3.449  1.00  0.00    -0.006 A 
HETATM   25  C   UNL     1      40.591 -11.652  -4.075  1.00  0.00     0.014 A 
HETATM   26  C   UNL     1      39.791 -12.570  -3.405  1.00  0.00     0.029 A 
BRANCH  24  27
HETATM   27  C   UNL     1      42.570 -10.092  -4.191  1.00  0.00     0.149 C 
HETATM   28  C   UNL     1      41.907  -8.722  -4.272  1.00  0.00     0.044 C 
BRANCH  27  29
HETATM   29  O   UNL     1      42.826 -10.550  -5.520  1.00  0.00    -0.391 OA
HETATM   30  H   UNL     1      42.670  -9.798  -6.120  1.00  0.00     0.210 HD
ENDBRANCH  27  29
ENDBRANCH  24  27
ENDBRANCH  19  20
ENDBRANCH   1  19
TORSDOF 8
ENDMDL
MODEL 7
REMARK VINA RESULT:      -8.0      2.696      3.590
REMARK  8 active torsions:
REMARK  status: ('A' for Active; 'I' for Inactive)
REMARK    1  A    between atoms: C_4  and  C_5 
REMARK    2  A    between atoms: C_5  and  N_6 
REMARK       I    between atoms: N_6  and  C_7 
REMARK    3  A    between atoms: C_7  and  C_8 
REMARK    4  A    between atoms: C_11  and  C_12 
REMARK    5  A    between atoms: C_12  and  O_13 
REMARK    6  A    between atoms: O_13  and  C_14 
REMARK    7  A    between atoms: C_25  and  C_26 
REMARK    8  A    between atoms: C_26  and  O_27 
ROOT
HETATM    1  N   UNL     1      40.022 -13.870   6.367  1.00  0.00    -0.351 N 
HETATM    2  C   UNL     1      41.177 -14.049   5.646  1.00  0.00     0.251 C 
HETATM    3  O   UNL     1      41.626 -13.196   4.887  1.00  0.00    -0.268 OA
HETATM    4  H   UNL     1      39.575 -14.627   6.871  1.00  0.00     0.163 HD
ENDROOT
BRANCH   2   5
HETATM    5  C   UNL     1      41.856 -15.367   5.787  1.00  0.00     0.032 A 
HETATM    6  C   UNL     1      43.206 -15.378   6.153  1.00  0.00     0.017 A 
HETATM    7  C   UNL     1      43.896 -16.588   6.271  1.00  0.00     0.010 A 
HETATM    8  C   UNL     1      43.244 -17.804   6.024  1.00  0.00    -0.034 A 
HETATM    9  C   UNL     1      41.880 -17.790   5.701  1.00  0.00     0.010 A 
HETATM   10  C   UNL     1      41.188 -16.580   5.579  1.00  0.00     0.017 A 
BRANCH   8  11
HETATM   11  C   UNL     1      43.996 -19.108   6.137  1.00  0.00     0.214 C 
BRANCH  11  12
HETATM   12  O   UNL     1      44.906 -19.204   5.046  1.00  0.00    -0.347 OA
BRANCH  12  13
HETATM   13  C   UNL     1      44.587 -20.088   4.051  1.00  0.00     0.069 A 
HETATM   14  C   UNL     1      44.845 -21.460   4.054  1.00  0.00     0.037 A 
HETATM   15  C   UNL     1      44.463 -22.250   2.965  1.00  0.00     0.003 A 
HETATM   16  C   UNL     1      43.820 -21.674   1.870  1.00  0.00     0.000 A 
HETATM   17  C   UNL     1      43.561 -20.305   1.862  1.00  0.00     0.003 A 
HETATM   18  C   UNL     1      43.943 -19.518   2.949  1.00  0.00     0.037 A 
ENDBRANCH  12  13
ENDBRANCH  11  12
ENDBRANCH   8  11
ENDBRANCH   2   5
BRANCH   1  19
HETATM   19  C   UNL     1      39.224 -12.674   6.216  1.00  0.00     0.182 C 
BRANCH  19  20
HETATM   20  C   UNL     1      39.628 -11.593   7.196  1.00  0.00     0.052 A 
HETATM   21  N   UNL     1      40.338 -10.531   6.723  1.00  0.00    -0.256 NA
HETATM   22  C   UNL     1      40.713  -9.560   7.598  1.00  0.00     0.040 A 
HETATM   23  C   UNL     1      41.489  -8.425   6.994  1.00  0.00     0.071 C 
HETATM   24  C   UNL     1      40.396  -9.605   8.960  1.00  0.00    -0.006 A 
HETATM   25  C   UNL     1      39.671 -10.717   9.417  1.00  0.00     0.014 A 
HETATM   26  C   UNL     1      39.282 -11.717   8.533  1.00  0.00     0.029 A 
BRANCH  24  27
HETATM   27  C   UNL     1      40.818  -8.533   9.940  1.00  0.00     0.149 C 
HETATM   28  C   UNL     1      41.609  -9.101  11.112  1.00  0.00     0.044 C 
BRANCH  27  29
HETATM   29  O   UNL     1      39.670  -7.856  10.455  1.00  0.00    -0.391 OA
HETATM   30  H   UNL     1      39.868  -7.611  11.376  1.00  0.00     0.210 HD
ENDBRANCH  27  29
ENDBRANCH  24  27
ENDBRANCH  19  20
ENDBRANCH   1  19
TORSDOF 8
ENDMDL
MODEL 8
REMARK VINA RESULT:      -7.8      2.454      3.128
REMARK  8 active torsions:
REMARK  status: ('A' for Active; 'I' for Inactive)
REMARK    1  A    between atoms: C_4  and  C_5 
REMARK    2  A    between atoms: C_5  and  N_6 
REMARK       I    between atoms: N_6  and  C_7 
REMARK    3  A    between atoms: C_7  and  C_8 
REMARK    4  A    between atoms: C_11  and  C_12 
REMARK    5  A    between atoms: C_12  and  O_13 
REMARK    6  A    between atoms: O_13  and  C_14 
REMARK    7  A    between atoms: C_25  and  C_26 
REMARK    8  A    between atoms: C_26  and  O_27 
ROOT
HETATM    1  N   UNL     1      40.534 -11.614   7.221  1.00  0.00    -0.351 N 
HETATM    2  C   UNL     1      39.937 -12.470   6.329  1.00  0.00     0.251 C 
HETATM    3  O   UNL     1      38.751 -12.391   6.022  1.00  0.00    -0.268 OA
HETATM    4  H   UNL     1      41.465 -11.775   7.586  1.00  0.00     0.163 HD
ENDROOT
BRANCH   2   5
HETATM    5  C   UNL     1      40.791 -13.555   5.768  1.00  0.00     0.032 A 
HETATM    6  C   UNL     1      42.024 -13.202   5.210  1.00  0.00     0.017 A 
HETATM    7  C   UNL     1      42.849 -14.179   4.647  1.00  0.00     0.010 A 
HETATM    8  C   UNL     1      42.451 -15.523   4.634  1.00  0.00    -0.034 A 
HETATM    9  C   UNL     1      41.235 -15.877   5.235  1.00  0.00     0.010 A 
HETATM   10  C   UNL     1      40.406 -14.900   5.797  1.00  0.00     0.017 A 
BRANCH   8  11
HETATM   11  C   UNL     1      43.338 -16.574   4.011  1.00  0.00     0.214 C 
BRANCH  11  12
HETATM   12  O   UNL     1      42.517 -17.628   3.519  1.00  0.00    -0.347 OA
BRANCH  12  13
HETATM   13  C   UNL     1      43.141 -18.808   3.216  1.00  0.00     0.069 A 
HETATM   14  C   UNL     1      42.995 -19.536   2.034  1.00  0.00     0.037 A 
HETATM   15  C   UNL     1      43.696 -20.733   1.854  1.00  0.00     0.003 A 
HETATM   16  C   UNL     1      44.546 -21.206   2.853  1.00  0.00     0.000 A 
HETATM   17  C   UNL     1      44.694 -20.483   4.035  1.00  0.00     0.003 A 
HETATM   18  C   UNL     1      43.993 -19.290   4.214  1.00  0.00     0.037 A 
ENDBRANCH  12  13
ENDBRANCH  11  12
ENDBRANCH   8  11
ENDBRANCH   2   5
BRANCH   1  19
HETATM   19  C   UNL     1      39.769 -10.599   7.910  1.00  0.00     0.182 C 
BRANCH  19  20
HETATM   20  C   UNL     1      40.291 -10.343   9.308  1.00  0.00     0.052 A 
HETATM   21  N   UNL     1      39.427  -9.846  10.236  1.00  0.00    -0.256 NA
HETATM   22  C   UNL     1      39.890  -9.603  11.490  1.00  0.00     0.040 A 
HETATM   23  C   UNL     1      38.872  -9.059  12.451  1.00  0.00     0.071 C 
HETATM   24  C   UNL     1      41.215  -9.849  11.869  1.00  0.00    -0.006 A 
HETATM   25  C   UNL     1      42.082 -10.354  10.887  1.00  0.00     0.014 A 
HETATM   26  C   UNL     1      41.621 -10.605   9.600  1.00  0.00     0.029 A 
BRANCH  24  27
HETATM   27  C   UNL     1      41.739  -9.573  13.261  1.00  0.00     0.149 C 
HETATM   28  C   UNL     1      43.259  -9.472  13.296  1.00  0.00     0.044 C 
BRANCH  27  29
HETATM   29  O   UNL     1      41.334 -10.613  14.154  1.00  0.00    -0.391 OA
HETATM   30  H   UNL     1      40.940 -10.186  14.935  1.00  0.00     0.210 HD
ENDBRANCH  27  29
ENDBRANCH  24  27
ENDBRANCH  19  20
ENDBRANCH   1  19
TORSDOF 8
ENDMDL
MODEL 9
REMARK VINA RESULT:      -7.8      6.474     10.424
REMARK  8 active torsions:
REMARK  status: ('A' for Active; 'I' for Inactive)
REMARK    1  A    between atoms: C_4  and  C_5 
REMARK    2  A    between atoms: C_5  and  N_6 
REMARK       I    between atoms: N_6  and  C_7 
REMARK    3  A    between atoms: C_7  and  C_8 
REMARK    4  A    between atoms: C_11  and  C_12 
REMARK    5  A    between atoms: C_12  and  O_13 
REMARK    6  A    between atoms: O_13  and  C_14 
REMARK    7  A    between atoms: C_25  and  C_26 
REMARK    8  A    between atoms: C_26  and  O_27 
ROOT
HETATM    1  N   UNL     1      42.086 -14.913   0.077  1.00  0.00    -0.351 N 
HETATM    2  C   UNL     1      41.648 -15.399   1.284  1.00  0.00     0.251 C 
HETATM    3  O   UNL     1      40.807 -14.822   1.967  1.00  0.00    -0.268 OA
HETATM    4  H   UNL     1      42.883 -15.307  -0.409  1.00  0.00     0.163 HD
ENDROOT
BRANCH   2   5
HETATM    5  C   UNL     1      42.280 -16.658   1.768  1.00  0.00     0.032 A 
HETATM    6  C   UNL     1      43.370 -17.166   1.054  1.00  0.00     0.017 A 
HETATM    7  C   UNL     1      43.981 -18.358   1.451  1.00  0.00     0.010 A 
HETATM    8  C   UNL     1      43.509 -19.059   2.570  1.00  0.00    -0.034 A 
HETATM    9  C   UNL     1      42.445 -18.522   3.308  1.00  0.00     0.010 A 
HETATM   10  C   UNL     1      41.830 -17.330   2.910  1.00  0.00     0.017 A 
BRANCH   8  11
HETATM   11  C   UNL     1      44.160 -20.355   2.987  1.00  0.00     0.214 C 
BRANCH  11  12
HETATM   12  O   UNL     1      45.199 -20.064   3.916  1.00  0.00    -0.347 OA
BRANCH  12  13
HETATM   13  C   UNL     1      44.816 -19.711   5.182  1.00  0.00     0.069 A 
HETATM   14  C   UNL     1      45.050 -18.482   5.801  1.00  0.00     0.037 A 
HETATM   15  C   UNL     1      44.600 -18.255   7.106  1.00  0.00     0.003 A 
HETATM   16  C   UNL     1      43.914 -19.253   7.796  1.00  0.00     0.000 A 
HETATM   17  C   UNL     1      43.678 -20.482   7.183  1.00  0.00     0.003 A 
HETATM   18  C   UNL     1      44.128 -20.708   5.882  1.00  0.00     0.037 A 
ENDBRANCH  12  13
ENDBRANCH  11  12
ENDBRANCH   8  11
ENDBRANCH   2   5
BRANCH   1  19
HETATM   19  C   UNL     1      41.622 -13.641  -0.431  1.00  0.00     0.182 C 
BRANCH  19  20
HETATM   20  C   UNL     1      40.466 -13.800  -1.395  1.00  0.00     0.052 A 
HETATM   21  N   UNL     1      40.459 -14.886  -2.217  1.00  0.00    -0.256 NA
HETATM   22  C   UNL     1      39.430 -15.031  -3.093  1.00  0.00     0.040 A 
HETATM   23  C   UNL     1      39.498 -16.256  -3.958  1.00  0.00     0.071 C 
HETATM   24  C   UNL     1      38.375 -14.114  -3.180  1.00  0.00    -0.006 A 
HETATM   25  C   UNL     1      38.417 -13.001  -2.325  1.00  0.00     0.014 A 
HETATM   26  C   UNL     1      39.464 -12.841  -1.426  1.00  0.00     0.029 A 
BRANCH  24  27
HETATM   27  C   UNL     1      37.232 -14.265  -4.159  1.00  0.00     0.149 C 
HETATM   28  C   UNL     1      36.427 -12.980  -4.308  1.00  0.00     0.044 C 
BRANCH  27  29
HETATM   29  O   UNL     1      36.350 -15.303  -3.729  1.00  0.00    -0.391 OA
HETATM   30  H   UNL     1      35.896 -15.643  -4.520  1.00  0.00     0.210 HD
ENDBRANCH  27  29
ENDBRANCH  24  27
ENDBRANCH  19  20
ENDBRANCH   1  19
TORSDOF 8
ENDMDL
MODEL 10
REMARK VINA RESULT:      -7.6      3.088     10.308
REMARK  8 active torsions:
REMARK  status: ('A' for Active; 'I' for Inactive)
REMARK    1  A    between atoms: C_4  and  C_5 
REMARK    2  A    between atoms: C_5  and  N_6 
REMARK       I    between atoms: N_6  and  C_7 
REMARK    3  A    between atoms: C_7  and  C_8 
REMARK    4  A    between atoms: C_11  and  C_12 
REMARK    5  A    between atoms: C_12  and  O_13 
REMARK    6  A    between atoms: O_13  and  C_14 
REMARK    7  A    between atoms: C_25  and  C_26 
REMARK    8  A    between atoms: C_26  and  O_27 
ROOT
HETATM    1  N   UNL     1      41.432 -15.336   3.491  1.00  0.00    -0.351 N 
HETATM    2  C   UNL     1      40.365 -14.491   3.673  1.00  0.00     0.251 C 
HETATM    3  O   UNL     1      39.366 -14.519   2.961  1.00  0.00    -0.268 OA
HETATM    4  H   UNL     1      42.312 -15.211   3.978  1.00  0.00     0.163 HD
ENDROOT
BRANCH   2   5
HETATM    5  C   UNL     1      40.488 -13.483   4.762  1.00  0.00     0.032 A 
HETATM    6  C   UNL     1      41.713 -12.824   4.917  1.00  0.00     0.017 A 
HETATM    7  C   UNL     1      41.888 -11.890   5.941  1.00  0.00     0.010 A 
HETATM    8  C   UNL     1      40.839 -11.602   6.826  1.00  0.00    -0.034 A 
HETATM    9  C   UNL     1      39.601 -12.232   6.639  1.00  0.00     0.010 A 
HETATM   10  C   UNL     1      39.424 -13.170   5.616  1.00  0.00     0.017 A 
BRANCH   8  11
HETATM   11  C   UNL     1      41.036 -10.604   7.941  1.00  0.00     0.214 C 
BRANCH  11  12
HETATM   12  O   UNL     1      42.432 -10.379   8.109  1.00  0.00    -0.347 OA
BRANCH  12  13
HETATM   13  C   UNL     1      43.003 -10.865   9.254  1.00  0.00     0.069 A 
HETATM   14  C   UNL     1      44.281 -11.416   9.366  1.00  0.00     0.037 A 
HETATM   15  C   UNL     1      44.742 -11.876  10.604  1.00  0.00     0.003 A 
HETATM   16  C   UNL     1      43.930 -11.788  11.733  1.00  0.00     0.000 A 
HETATM   17  C   UNL     1      42.653 -11.241  11.626  1.00  0.00     0.003 A 
HETATM   18  C   UNL     1      42.194 -10.782  10.391  1.00  0.00     0.037 A 
ENDBRANCH  12  13
ENDBRANCH  11  12
ENDBRANCH   8  11
ENDBRANCH   2   5
BRANCH   1  19
HETATM   19  C   UNL     1      41.465 -16.274   2.391  1.00  0.00     0.182 C 
BRANCH  19  20
HETATM   20  C   UNL     1      42.333 -17.477   2.693  1.00  0.00     0.052 A 
HETATM   21  N   UNL     1      43.085 -17.457   3.829  1.00  0.00    -0.256 NA
HETATM   22  C   UNL     1      43.875 -18.528   4.103  1.00  0.00     0.040 A 
HETATM   23  C   UNL     1      44.667 -18.427   5.376  1.00  0.00     0.071 C 
HETATM   24  C   UNL     1      43.944 -19.651   3.270  1.00  0.00    -0.006 A 
HETATM   25  C   UNL     1      43.164 -19.636   2.103  1.00  0.00     0.014 A 
HETATM   26  C   UNL     1      42.353 -18.546   1.811  1.00  0.00     0.029 A 
BRANCH  24  27
HETATM   27  C   UNL     1      44.829 -20.842   3.565  1.00  0.00     0.149 C 
HETATM   28  C   UNL     1      44.644 -21.964   2.550  1.00  0.00     0.044 C 
BRANCH  27  29
HETATM   29  O   UNL     1      44.542 -21.358   4.866  1.00  0.00    -0.391 OA
HETATM   30  H   UNL     1      45.142 -20.915   5.491  1.00  0.00     0.210 HD
ENDBRANCH  27  29
ENDBRANCH  24  27
ENDBRANCH  19  20
ENDBRANCH   1  19
TORSDOF 8
ENDMDL
