MODEL 1
REMARK VINA RESULT:      -8.6      0.000      0.000
REMARK  9 active torsions:
REMARK  status: ('A' for Active; 'I' for Inactive)
REMARK    1  A    between atoms: C_2  and  N_3 
REMARK    2  A    between atoms: N_3  and  C_4 
REMARK    3  A    between atoms: C_4  and  N_5 
REMARK    4  A    between atoms: N_8  and  C_10 
REMARK    5  A    between atoms: C_10  and  C_11 
REMARK    6  A    between atoms: C_11  and  N_12 
REMARK    7  A    between atoms: C_13  and  C_14 
REMARK    8  A    between atoms: N_17  and  C_18 
REMARK    9  A    between atoms: C_28  and  C_29 
ROOT
HETATM    1  C   UNL     1      42.661 -14.723   5.281  1.00  0.00     0.085 C 
HETATM    2  C   UNL     1      42.512 -15.922   4.390  1.00  0.00     0.278 C 
HETATM    3  O   UNL     1      41.688 -15.980   3.494  1.00  0.00    -0.265 OA
HETATM    4  N   UNL     1      43.489 -16.825   4.785  1.00  0.00    -0.212 N 
HETATM    5  N   UNL     1      44.191 -16.289   5.862  1.00  0.00    -0.189 NA
HETATM    6  C   UNL     1      43.726 -14.990   6.065  1.00  0.00     0.130 C 
HETATM    7  H   UNL     1      45.201 -16.451   5.866  1.00  0.00     0.153 HD
ENDROOT
BRANCH   1   8
HETATM    8  C   UNL     1      41.786 -13.522   5.295  1.00  0.00     0.042 C 
HETATM    9  N   UNL     1      40.776 -13.483   6.110  1.00  0.00    -0.292 NA
HETATM   10  C   UNL     1      42.149 -12.401   4.335  1.00  0.00     0.071 C 
BRANCH   9  11
HETATM   11  C   UNL     1      39.890 -12.311   6.080  1.00  0.00     0.176 C 
BRANCH  11  12
HETATM   12  C   UNL     1      39.208 -12.159   7.446  1.00  0.00     0.256 C 
BRANCH  12  13
HETATM   13  N   UNL     1      39.810 -11.011   8.232  1.00  0.00    -0.066 N 
HETATM   14  C   UNL     1      39.544 -11.102   9.733  1.00  0.00     0.254 C 
HETATM   15  C   UNL     1      40.223  -9.935  10.478  1.00  0.00     0.153 C 
HETATM   16  N   UNL     1      41.664  -9.916  10.186  1.00  0.00    -0.355 N 
HETATM   17  C   UNL     1      41.945  -9.762   8.750  1.00  0.00     0.153 C 
HETATM   18  C   UNL     1      41.296 -10.874   7.911  1.00  0.00     0.254 C 
HETATM   19  H   UNL     1      39.311 -10.169   7.888  1.00  0.00     0.280 HD
BRANCH  16  20
HETATM   20  C   UNL     1      42.530 -10.617  11.044  1.00  0.00     0.169 C 
HETATM   21  S   UNL     1      42.902 -10.136  12.603  1.00  0.00    -0.041 SA
BRANCH  20  22
HETATM   22  N   UNL     1      43.058 -11.734  10.423  1.00  0.00    -0.367 N 
HETATM   23  H   UNL     1      42.402 -12.504  10.374  1.00  0.00     0.161 HD
BRANCH  22  24
HETATM   24  C   UNL     1      44.464 -12.132  10.457  1.00  0.00     0.117 C 
HETATM   25  C   UNL     1      45.346 -11.103   9.773  1.00  0.00     0.026 C 
ENDBRANCH  22  24
ENDBRANCH  20  22
ENDBRANCH  16  20
ENDBRANCH  12  13
ENDBRANCH  11  12
ENDBRANCH   9  11
ENDBRANCH   1   8
BRANCH   6  26
HETATM   26  C   UNL     1      44.362 -14.068   7.065  1.00  0.00     0.430 C 
HETATM   27  F   UNL     1      45.668 -13.835   6.769  1.00  0.00    -0.165 F 
HETATM   28  F   UNL     1      43.771 -12.835   7.109  1.00  0.00    -0.165 F 
HETATM   29  F   UNL     1      44.326 -14.557   8.330  1.00  0.00    -0.165 F 
ENDBRANCH   6  26
BRANCH   4  30
HETATM   30  C   UNL     1      43.695 -18.117   4.342  1.00  0.00     0.192 A 
HETATM   31  S   UNL     1      44.387 -19.286   5.373  1.00  0.00    -0.048 SA
HETATM   32  C   UNL     1      44.350 -20.442   4.102  1.00  0.00     0.037 A 
HETATM   33  C   UNL     1      43.777 -19.852   2.974  1.00  0.00     0.076 A 
HETATM   34  C   UNL     1      44.800 -21.773   4.102  1.00  0.00     0.021 A 
HETATM   35  N   UNL     1      43.385 -18.528   3.133  1.00  0.00    -0.222 NA
HETATM   36  C   UNL     1      43.654 -20.621   1.799  1.00  0.00     0.033 A 
HETATM   37  C   UNL     1      44.106 -21.945   1.784  1.00  0.00     0.002 A 
HETATM   38  C   UNL     1      44.671 -22.512   2.922  1.00  0.00     0.002 A 
ENDBRANCH   4  30
TORSDOF 9
ENDMDL
MODEL 2
REMARK VINA RESULT:      -8.4      1.230      1.938
REMARK  9 active torsions:
REMARK  status: ('A' for Active; 'I' for Inactive)
REMARK    1  A    between atoms: C_2  and  N_3 
REMARK    2  A    between atoms: N_3  and  C_4 
REMARK    3  A    between atoms: C_4  and  N_5 
REMARK    4  A    between atoms: N_8  and  C_10 
REMARK    5  A    between atoms: C_10  and  C_11 
REMARK    6  A    between atoms: C_11  and  N_12 
REMARK    7  A    between atoms: C_13  and  C_14 
REMARK    8  A    between atoms: N_17  and  C_18 
REMARK    9  A    between atoms: C_28  and  C_29 
ROOT
HETATM    1  C   UNL     1      42.716 -14.669   5.366  1.00  0.00     0.085 C 
HETATM    2  C   UNL     1      42.581 -15.928   4.559  1.00  0.00     0.278 C 
HETATM    3  O   UNL     1      41.763 -16.053   3.665  1.00  0.00    -0.265 OA
HETATM    4  N   UNL     1      43.564 -16.793   5.020  1.00  0.00    -0.212 N 
HETATM    5  N   UNL     1      44.254 -16.179   6.061  1.00  0.00    -0.189 NA
HETATM    6  C   UNL     1      43.779 -14.873   6.172  1.00  0.00     0.130 C 
HETATM    7  H   UNL     1      45.267 -16.331   6.082  1.00  0.00     0.153 HD
ENDROOT
BRANCH   1   8
HETATM    8  C   UNL     1      41.830 -13.477   5.293  1.00  0.00     0.042 C 
HETATM    9  N   UNL     1      40.927 -13.302   6.209  1.00  0.00    -0.292 NA
HETATM   10  C   UNL     1      42.058 -12.529   4.128  1.00  0.00     0.071 C 
BRANCH   9  11
HETATM   11  C   UNL     1      40.027 -12.146   6.099  1.00  0.00     0.176 C 
BRANCH  11  12
HETATM   12  C   UNL     1      40.663 -10.943   6.808  1.00  0.00     0.256 C 
BRANCH  12  13
HETATM   13  N   UNL     1      40.955 -11.257   8.262  1.00  0.00    -0.066 N 
HETATM   14  C   UNL     1      42.177 -10.521   8.805  1.00  0.00     0.254 C 
HETATM   15  C   UNL     1      42.389 -10.844  10.298  1.00  0.00     0.153 C 
HETATM   16  N   UNL     1      41.178 -10.517  11.065  1.00  0.00    -0.355 N 
HETATM   17  C   UNL     1      39.998 -11.266  10.602  1.00  0.00     0.153 C 
HETATM   18  C   UNL     1      39.708 -11.023   9.113  1.00  0.00     0.254 C 
HETATM   19  H   UNL     1      41.183 -12.269   8.270  1.00  0.00     0.280 HD
BRANCH  16  20
HETATM   20  C   UNL     1      41.070  -9.235  11.633  1.00  0.00     0.169 C 
HETATM   21  S   UNL     1      41.045  -7.813  10.750  1.00  0.00    -0.041 SA
BRANCH  20  22
HETATM   22  N   UNL     1      41.019  -9.299  13.013  1.00  0.00    -0.367 N 
HETATM   23  H   UNL     1      40.637  -8.461  13.432  1.00  0.00     0.161 HD
BRANCH  22  24
HETATM   24  C   UNL     1      41.964 -10.028  13.857  1.00  0.00     0.117 C 
HETATM   25  C   UNL     1      43.314  -9.336  13.901  1.00  0.00     0.026 C 
ENDBRANCH  22  24
ENDBRANCH  20  22
ENDBRANCH  16  20
ENDBRANCH  12  13
ENDBRANCH  11  12
ENDBRANCH   9  11
ENDBRANCH   1   8
BRANCH   6  26
HETATM   26  C   UNL     1      44.400 -13.879   7.111  1.00  0.00     0.430 C 
HETATM   27  F   UNL     1      44.377 -14.324   8.395  1.00  0.00    -0.165 F 
HETATM   28  F   UNL     1      45.716 -13.631   6.834  1.00  0.00    -0.165 F 
HETATM   29  F   UNL     1      43.771 -12.677   7.098  1.00  0.00    -0.165 F 
ENDBRANCH   6  26
BRANCH   4  30
HETATM   30  C   UNL     1      43.783 -18.111   4.667  1.00  0.00     0.192 A 
HETATM   31  S   UNL     1      44.257 -19.254   5.840  1.00  0.00    -0.048 SA
HETATM   32  C   UNL     1      44.371 -20.465   4.627  1.00  0.00     0.037 A 
HETATM   33  C   UNL     1      44.006 -19.908   3.400  1.00  0.00     0.076 A 
HETATM   34  C   UNL     1      44.761 -21.809   4.751  1.00  0.00     0.021 A 
HETATM   35  N   UNL     1      43.648 -18.566   3.442  1.00  0.00    -0.222 NA
HETATM   36  C   UNL     1      44.035 -20.727   2.252  1.00  0.00     0.033 A 
HETATM   37  C   UNL     1      44.429 -22.065   2.362  1.00  0.00     0.002 A 
HETATM   38  C   UNL     1      44.786 -22.597   3.597  1.00  0.00     0.002 A 
ENDBRANCH   4  30
TORSDOF 9
ENDMDL
MODEL 3
REMARK VINA RESULT:      -8.3      3.843      6.780
REMARK  9 active torsions:
REMARK  status: ('A' for Active; 'I' for Inactive)
REMARK    1  A    between atoms: C_2  and  N_3 
REMARK    2  A    between atoms: N_3  and  C_4 
REMARK    3  A    between atoms: C_4  and  N_5 
REMARK    4  A    between atoms: N_8  and  C_10 
REMARK    5  A    between atoms: C_10  and  C_11 
REMARK    6  A    between atoms: C_11  and  N_12 
REMARK    7  A    between atoms: C_13  and  C_14 
REMARK    8  A    between atoms: N_17  and  C_18 
REMARK    9  A    between atoms: C_28  and  C_29 
ROOT
HETATM    1  C   UNL     1      42.634 -14.730   5.195  1.00  0.00     0.085 C 
HETATM    2  C   UNL     1      42.519 -15.977   4.368  1.00  0.00     0.278 C 
HETATM    3  O   UNL     1      41.719 -16.092   3.456  1.00  0.00    -0.265 OA
HETATM    4  N   UNL     1      43.495 -16.846   4.835  1.00  0.00    -0.212 N 
HETATM    5  N   UNL     1      44.163 -16.245   5.900  1.00  0.00    -0.189 NA
HETATM    6  C   UNL     1      43.681 -14.942   6.020  1.00  0.00     0.130 C 
HETATM    7  H   UNL     1      45.175 -16.394   5.938  1.00  0.00     0.153 HD
ENDROOT
BRANCH   1   8
HETATM    8  C   UNL     1      41.746 -13.540   5.123  1.00  0.00     0.042 C 
HETATM    9  N   UNL     1      42.094 -12.534   4.379  1.00  0.00    -0.292 NA
HETATM   10  C   UNL     1      40.465 -13.594   5.938  1.00  0.00     0.071 C 
BRANCH   9  11
HETATM   11  C   UNL     1      41.231 -11.344   4.354  1.00  0.00     0.176 C 
BRANCH  11  12
HETATM   12  C   UNL     1      40.594 -11.214   2.965  1.00  0.00     0.256 C 
BRANCH  12  13
HETATM   13  N   UNL     1      40.778 -12.484   2.158  1.00  0.00    -0.066 N 
HETATM   14  C   UNL     1      39.471 -13.229   1.899  1.00  0.00     0.254 C 
HETATM   15  C   UNL     1      39.719 -14.481   1.034  1.00  0.00     0.153 C 
HETATM   16  N   UNL     1      40.383 -14.105  -0.223  1.00  0.00    -0.355 N 
HETATM   17  C   UNL     1      41.678 -13.444   0.000  1.00  0.00     0.153 C 
HETATM   18  C   UNL     1      41.542 -12.185   0.870  1.00  0.00     0.254 C 
HETATM   19  H   UNL     1      41.359 -13.095   2.762  1.00  0.00     0.280 HD
BRANCH  16  20
HETATM   20  C   UNL     1      39.583 -13.818  -1.343  1.00  0.00     0.169 C 
HETATM   21  S   UNL     1      38.886 -12.326  -1.644  1.00  0.00    -0.041 SA
BRANCH  20  22
HETATM   22  N   UNL     1      39.421 -14.932  -2.145  1.00  0.00    -0.367 N 
HETATM   23  H   UNL     1      39.583 -15.800  -1.650  1.00  0.00     0.161 HD
BRANCH  22  24
HETATM   24  C   UNL     1      39.702 -14.986  -3.579  1.00  0.00     0.117 C 
HETATM   25  C   UNL     1      38.956 -16.128  -4.245  1.00  0.00     0.026 C 
ENDBRANCH  22  24
ENDBRANCH  20  22
ENDBRANCH  16  20
ENDBRANCH  12  13
ENDBRANCH  11  12
ENDBRANCH   9  11
ENDBRANCH   1   8
BRANCH   6  26
HETATM   26  C   UNL     1      44.281 -13.960   6.984  1.00  0.00     0.430 C 
HETATM   27  F   UNL     1      44.371 -14.483   8.236  1.00  0.00    -0.165 F 
HETATM   28  F   UNL     1      45.554 -13.590   6.650  1.00  0.00    -0.165 F 
HETATM   29  F   UNL     1      43.560 -12.815   7.087  1.00  0.00    -0.165 F 
ENDBRANCH   6  26
BRANCH   4  30
HETATM   30  C   UNL     1      43.726 -18.158   4.469  1.00  0.00     0.192 A 
HETATM   31  S   UNL     1      44.270 -19.296   5.616  1.00  0.00    -0.048 SA
HETATM   32  C   UNL     1      44.357 -20.500   4.394  1.00  0.00     0.037 A 
HETATM   33  C   UNL     1      43.932 -19.946   3.186  1.00  0.00     0.076 A 
HETATM   34  C   UNL     1      44.778 -21.836   4.496  1.00  0.00     0.021 A 
HETATM   35  N   UNL     1      43.550 -18.612   3.248  1.00  0.00    -0.222 NA
HETATM   36  C   UNL     1      43.931 -20.760   2.034  1.00  0.00     0.033 A 
HETATM   37  C   UNL     1      44.355 -22.090   2.122  1.00  0.00     0.002 A 
HETATM   38  C   UNL     1      44.773 -22.620   3.338  1.00  0.00     0.002 A 
ENDBRANCH   4  30
TORSDOF 9
ENDMDL
MODEL 4
REMARK VINA RESULT:      -8.2      2.680      3.234
REMARK  9 active torsions:
REMARK  status: ('A' for Active; 'I' for Inactive)
REMARK    1  A    between atoms: C_2  and  N_3 
REMARK    2  A    between atoms: N_3  and  C_4 
REMARK    3  A    between atoms: C_4  and  N_5 
REMARK    4  A    between atoms: N_8  and  C_10 
REMARK    5  A    between atoms: C_10  and  C_11 
REMARK    6  A    between atoms: C_11  and  N_12 
REMARK    7  A    between atoms: C_13  and  C_14 
REMARK    8  A    between atoms: N_17  and  C_18 
REMARK    9  A    between atoms: C_28  and  C_29 
ROOT
HETATM    1  C   UNL     1      41.667 -14.989   3.753  1.00  0.00     0.085 C 
HETATM    2  C   UNL     1      42.626 -16.036   4.241  1.00  0.00     0.278 C 
HETATM    3  O   UNL     1      43.462 -15.816   5.100  1.00  0.00    -0.265 OA
HETATM    4  N   UNL     1      42.306 -17.204   3.564  1.00  0.00    -0.212 N 
HETATM    5  N   UNL     1      41.260 -16.942   2.681  1.00  0.00    -0.189 NA
HETATM    6  C   UNL     1      40.845 -15.628   2.895  1.00  0.00     0.130 C 
HETATM    7  H   UNL     1      40.546 -17.670   2.600  1.00  0.00     0.153 HD
ENDROOT
BRANCH   1   8
HETATM    8  C   UNL     1      41.668 -13.550   4.129  1.00  0.00     0.042 C 
HETATM    9  N   UNL     1      41.261 -13.204   5.312  1.00  0.00    -0.292 NA
HETATM   10  C   UNL     1      42.161 -12.571   3.077  1.00  0.00     0.071 C 
BRANCH   9  11
HETATM   11  C   UNL     1      41.221 -11.775   5.654  1.00  0.00     0.176 C 
BRANCH  11  12
HETATM   12  C   UNL     1      39.862 -11.447   6.285  1.00  0.00     0.256 C 
BRANCH  12  13
HETATM   13  N   UNL     1      40.027 -10.567   7.509  1.00  0.00    -0.066 N 
HETATM   14  C   UNL     1      39.120 -10.970   8.669  1.00  0.00     0.254 C 
HETATM   15  C   UNL     1      39.372 -10.071   9.896  1.00  0.00     0.153 C 
HETATM   16  N   UNL     1      40.790 -10.122  10.278  1.00  0.00    -0.355 N 
HETATM   17  C   UNL     1      41.682  -9.673   9.197  1.00  0.00     0.153 C 
HETATM   18  C   UNL     1      41.497 -10.500   7.916  1.00  0.00     0.254 C 
HETATM   19  H   UNL     1      39.720  -9.627   7.198  1.00  0.00     0.280 HD
BRANCH  16  20
HETATM   20  C   UNL     1      41.194 -11.076  11.230  1.00  0.00     0.169 C 
HETATM   21  S   UNL     1      40.294 -11.503  12.575  1.00  0.00    -0.041 SA
BRANCH  20  22
HETATM   22  N   UNL     1      42.440 -11.592  10.926  1.00  0.00    -0.367 N 
HETATM   23  H   UNL     1      42.394 -12.408  10.329  1.00  0.00     0.161 HD
BRANCH  22  24
HETATM   24  C   UNL     1      43.608 -11.544  11.804  1.00  0.00     0.117 C 
HETATM   25  C   UNL     1      43.871 -10.132  12.297  1.00  0.00     0.026 C 
ENDBRANCH  22  24
ENDBRANCH  20  22
ENDBRANCH  16  20
ENDBRANCH  12  13
ENDBRANCH  11  12
ENDBRANCH   9  11
ENDBRANCH   1   8
BRANCH   6  26
HETATM   26  C   UNL     1      39.641 -15.054   2.205  1.00  0.00     0.430 C 
HETATM   27  F   UNL     1      39.958 -14.563   0.977  1.00  0.00    -0.165 F 
HETATM   28  F   UNL     1      38.657 -15.978   1.987  1.00  0.00    -0.165 F 
HETATM   29  F   UNL     1      39.070 -14.038   2.900  1.00  0.00    -0.165 F 
ENDBRANCH   6  26
BRANCH   4  30
HETATM   30  C   UNL     1      42.961 -18.419   3.587  1.00  0.00     0.192 A 
HETATM   31  S   UNL     1      43.143 -19.334   2.160  1.00  0.00    -0.048 SA
HETATM   32  C   UNL     1      43.914 -20.586   3.048  1.00  0.00     0.037 A 
HETATM   33  C   UNL     1      44.004 -20.197   4.386  1.00  0.00     0.076 A 
HETATM   34  C   UNL     1      44.398 -21.824   2.596  1.00  0.00     0.021 A 
HETATM   35  N   UNL     1      43.477 -18.945   4.676  1.00  0.00    -0.222 NA
HETATM   36  C   UNL     1      44.598 -21.084   5.307  1.00  0.00     0.033 A 
HETATM   37  C   UNL     1      45.077 -22.323   4.870  1.00  0.00     0.002 A 
HETATM   38  C   UNL     1      44.978 -22.687   3.530  1.00  0.00     0.002 A 
ENDBRANCH   4  30
TORSDOF 9
ENDMDL
MODEL 5
REMARK VINA RESULT:      -8.1      5.324      8.302
REMARK  9 active torsions:
REMARK  status: ('A' for Active; 'I' for Inactive)
REMARK    1  A    between atoms: C_2  and  N_3 
REMARK    2  A    between atoms: N_3  and  C_4 
REMARK    3  A    between atoms: C_4  and  N_5 
REMARK    4  A    between atoms: N_8  and  C_10 
REMARK    5  A    between atoms: C_10  and  C_11 
REMARK    6  A    between atoms: C_11  and  N_12 
REMARK    7  A    between atoms: C_13  and  C_14 
REMARK    8  A    between atoms: N_17  and  C_18 
REMARK    9  A    between atoms: C_28  and  C_29 
ROOT
HETATM    1  C   UNL     1      42.274 -14.723   2.664  1.00  0.00     0.085 C 
HETATM    2  C   UNL     1      42.772 -16.049   2.166  1.00  0.00     0.278 C 
HETATM    3  O   UNL     1      42.842 -16.324   0.981  1.00  0.00    -0.265 OA
HETATM    4  N   UNL     1      43.139 -16.775   3.290  1.00  0.00    -0.212 N 
HETATM    5  N   UNL     1      42.869 -16.016   4.426  1.00  0.00    -0.189 NA
HETATM    6  C   UNL     1      42.442 -14.758   4.002  1.00  0.00     0.130 C 
HETATM    7  H   UNL     1      43.563 -16.066   5.177  1.00  0.00     0.153 HD
ENDROOT
BRANCH   1   8
HETATM    8  C   UNL     1      41.694 -13.633   1.837  1.00  0.00     0.042 C 
HETATM    9  N   UNL     1      42.479 -12.722   1.346  1.00  0.00    -0.292 NA
HETATM   10  C   UNL     1      40.190 -13.669   1.618  1.00  0.00     0.071 C 
BRANCH   9  11
HETATM   11  C   UNL     1      41.886 -11.623   0.571  1.00  0.00     0.176 C 
BRANCH  11  12
HETATM   12  C   UNL     1      42.799 -11.297  -0.618  1.00  0.00     0.256 C 
BRANCH  12  13
HETATM   13  N   UNL     1      42.108 -11.597  -1.934  1.00  0.00    -0.066 N 
HETATM   14  C   UNL     1      41.867 -13.087  -2.165  1.00  0.00     0.254 C 
HETATM   15  C   UNL     1      41.118 -13.319  -3.493  1.00  0.00     0.153 C 
HETATM   16  N   UNL     1      39.858 -12.562  -3.503  1.00  0.00    -0.355 N 
HETATM   17  C   UNL     1      40.070 -11.114  -3.349  1.00  0.00     0.153 C 
HETATM   18  C   UNL     1      40.827 -10.775  -2.056  1.00  0.00     0.254 C 
HETATM   19  H   UNL     1      42.780 -11.284  -2.659  1.00  0.00     0.280 HD
BRANCH  16  20
HETATM   20  C   UNL     1      38.691 -13.197  -3.043  1.00  0.00     0.169 C 
HETATM   21  S   UNL     1      38.115 -13.087  -1.475  1.00  0.00    -0.041 SA
BRANCH  20  22
HETATM   22  N   UNL     1      38.100 -13.947  -4.042  1.00  0.00    -0.367 N 
HETATM   23  H   UNL     1      37.456 -13.410  -4.610  1.00  0.00     0.161 HD
BRANCH  22  24
HETATM   24  C   UNL     1      37.791 -15.373  -3.954  1.00  0.00     0.117 C 
HETATM   25  C   UNL     1      39.036 -16.221  -4.139  1.00  0.00     0.026 C 
ENDBRANCH  22  24
ENDBRANCH  20  22
ENDBRANCH  16  20
ENDBRANCH  12  13
ENDBRANCH  11  12
ENDBRANCH   9  11
ENDBRANCH   1   8
BRANCH   6  26
HETATM   26  C   UNL     1      42.194 -13.637   4.970  1.00  0.00     0.430 C 
HETATM   27  F   UNL     1      42.839 -12.501   4.593  1.00  0.00    -0.165 F 
HETATM   28  F   UNL     1      40.874 -13.293   5.065  1.00  0.00    -0.165 F 
HETATM   29  F   UNL     1      42.608 -13.926   6.229  1.00  0.00    -0.165 F 
ENDBRANCH   6  26
BRANCH   4  30
HETATM   30  C   UNL     1      43.559 -18.089   3.366  1.00  0.00     0.192 A 
HETATM   31  S   UNL     1      43.543 -19.086   1.983  1.00  0.00    -0.048 SA
HETATM   32  C   UNL     1      44.086 -20.416   2.924  1.00  0.00     0.037 A 
HETATM   33  C   UNL     1      44.270 -19.990   4.241  1.00  0.00     0.076 A 
HETATM   34  C   UNL     1      44.325 -21.742   2.528  1.00  0.00     0.021 A 
HETATM   35  N   UNL     1      43.988 -18.650   4.475  1.00  0.00    -0.222 NA
HETATM   36  C   UNL     1      44.707 -20.928   5.199  1.00  0.00     0.033 A 
HETATM   37  C   UNL     1      44.941 -22.254   4.818  1.00  0.00     0.002 A 
HETATM   38  C   UNL     1      44.753 -22.653   3.498  1.00  0.00     0.002 A 
ENDBRANCH   4  30
TORSDOF 9
ENDMDL
MODEL 6
REMARK VINA RESULT:      -7.8      5.863      8.709
REMARK  9 active torsions:
REMARK  status: ('A' for Active; 'I' for Inactive)
REMARK    1  A    between atoms: C_2  and  N_3 
REMARK    2  A    between atoms: N_3  and  C_4 
REMARK    3  A    between atoms: C_4  and  N_5 
REMARK    4  A    between atoms: N_8  and  C_10 
REMARK    5  A    between atoms: C_10  and  C_11 
REMARK    6  A    between atoms: C_11  and  N_12 
REMARK    7  A    between atoms: C_13  and  C_14 
REMARK    8  A    between atoms: N_17  and  C_18 
REMARK    9  A    between atoms: C_28  and  C_29 
ROOT
HETATM    1  C   UNL     1      41.390 -13.687   2.098  1.00  0.00     0.085 C 
HETATM    2  C   UNL     1      42.515 -14.547   2.597  1.00  0.00     0.278 C 
HETATM    3  O   UNL     1      43.602 -14.095   2.911  1.00  0.00    -0.265 OA
HETATM    4  N   UNL     1      42.022 -15.844   2.646  1.00  0.00    -0.212 N 
HETATM    5  N   UNL     1      40.708 -15.845   2.183  1.00  0.00    -0.189 NA
HETATM    6  C   UNL     1      40.338 -14.520   1.957  1.00  0.00     0.130 C 
HETATM    7  H   UNL     1      40.055 -16.453   2.684  1.00  0.00     0.153 HD
ENDROOT
BRANCH   1   8
HETATM    8  C   UNL     1      41.459 -12.232   1.801  1.00  0.00     0.042 C 
HETATM    9  N   UNL     1      41.923 -11.840   0.653  1.00  0.00    -0.292 NA
HETATM   10  C   UNL     1      40.966 -11.290   2.887  1.00  0.00     0.071 C 
BRANCH   9  11
HETATM   11  C   UNL     1      42.031 -10.399   0.391  1.00  0.00     0.176 C 
BRANCH  11  12
HETATM   12  C   UNL     1      43.082 -10.163  -0.701  1.00  0.00     0.256 C 
BRANCH  12  13
HETATM   13  N   UNL     1      42.517 -10.461  -2.076  1.00  0.00    -0.066 N 
HETATM   14  C   UNL     1      42.733 -11.907  -2.517  1.00  0.00     0.254 C 
HETATM   15  C   UNL     1      42.093 -12.157  -3.898  1.00  0.00     0.153 C 
HETATM   16  N   UNL     1      40.665 -11.811  -3.864  1.00  0.00    -0.355 N 
HETATM   17  C   UNL     1      40.434 -10.402  -3.506  1.00  0.00     0.153 C 
HETATM   18  C   UNL     1      41.050 -10.044  -2.145  1.00  0.00     0.254 C 
HETATM   19  H   UNL     1      43.069  -9.863  -2.720  1.00  0.00     0.280 HD
BRANCH  16  20
HETATM   20  C   UNL     1      39.738 -12.821  -3.549  1.00  0.00     0.169 C 
HETATM   21  S   UNL     1      38.253 -12.545  -2.829  1.00  0.00    -0.041 SA
BRANCH  20  22
HETATM   22  N   UNL     1      40.225 -14.071  -3.882  1.00  0.00    -0.367 N 
HETATM   23  H   UNL     1      40.222 -14.242  -4.880  1.00  0.00     0.161 HD
BRANCH  22  24
HETATM   24  C   UNL     1      40.098 -15.272  -3.058  1.00  0.00     0.117 C 
HETATM   25  C   UNL     1      40.971 -15.186  -1.819  1.00  0.00     0.026 C 
ENDBRANCH  22  24
ENDBRANCH  20  22
ENDBRANCH  16  20
ENDBRANCH  12  13
ENDBRANCH  11  12
ENDBRANCH   9  11
ENDBRANCH   1   8
BRANCH   6  26
HETATM   26  C   UNL     1      38.935 -14.141   1.580  1.00  0.00     0.430 C 
HETATM   27  F   UNL     1      38.866 -13.694   0.298  1.00  0.00    -0.165 F 
HETATM   28  F   UNL     1      38.060 -15.190   1.649  1.00  0.00    -0.165 F 
HETATM   29  F   UNL     1      38.424 -13.161   2.367  1.00  0.00    -0.165 F 
ENDBRANCH   6  26
BRANCH   4  30
HETATM   30  C   UNL     1      42.699 -17.011   2.940  1.00  0.00     0.192 A 
HETATM   31  S   UNL     1      43.096 -18.118   1.706  1.00  0.00    -0.048 SA
HETATM   32  C   UNL     1      43.771 -19.187   2.869  1.00  0.00     0.037 A 
HETATM   33  C   UNL     1      43.669 -18.601   4.132  1.00  0.00     0.076 A 
HETATM   34  C   UNL     1      44.343 -20.456   2.679  1.00  0.00     0.021 A 
HETATM   35  N   UNL     1      43.075 -17.345   4.155  1.00  0.00    -0.222 NA
HETATM   36  C   UNL     1      44.155 -19.313   5.248  1.00  0.00     0.033 A 
HETATM   37  C   UNL     1      44.720 -20.580   5.072  1.00  0.00     0.002 A 
HETATM   38  C   UNL     1      44.813 -21.143   3.802  1.00  0.00     0.002 A 
ENDBRANCH   4  30
TORSDOF 9
ENDMDL
MODEL 7
REMARK VINA RESULT:      -7.8      3.994      5.975
REMARK  9 active torsions:
REMARK  status: ('A' for Active; 'I' for Inactive)
REMARK    1  A    between atoms: C_2  and  N_3 
REMARK    2  A    between atoms: N_3  and  C_4 
REMARK    3  A    between atoms: C_4  and  N_5 
REMARK    4  A    between atoms: N_8  and  C_10 
REMARK    5  A    between atoms: C_10  and  C_11 
REMARK    6  A    between atoms: C_11  and  N_12 
REMARK    7  A    between atoms: C_13  and  C_14 
REMARK    8  A    between atoms: N_17  and  C_18 
REMARK    9  A    between atoms: C_28  and  C_29 
ROOT
HETATM    1  C   UNL     1      42.638 -13.922   4.938  1.00  0.00     0.085 C 
HETATM    2  C   UNL     1      43.199 -13.716   3.561  1.00  0.00     0.278 C 
HETATM    3  O   UNL     1      44.392 -13.768   3.320  1.00  0.00    -0.265 OA
HETATM    4  N   UNL     1      42.110 -13.524   2.722  1.00  0.00    -0.212 N 
HETATM    5  N   UNL     1      40.943 -13.559   3.482  1.00  0.00    -0.189 NA
HETATM    6  C   UNL     1      41.298 -13.894   4.787  1.00  0.00     0.130 C 
HETATM    7  H   UNL     1      40.143 -14.036   3.057  1.00  0.00     0.153 HD
ENDROOT
BRANCH   1   8
HETATM    8  C   UNL     1      43.420 -14.086   6.192  1.00  0.00     0.042 C 
HETATM    9  N   UNL     1      43.755 -13.033   6.874  1.00  0.00    -0.292 NA
HETATM   10  C   UNL     1      43.773 -15.508   6.594  1.00  0.00     0.071 C 
BRANCH   9  11
HETATM   11  C   UNL     1      44.569 -13.205   8.085  1.00  0.00     0.176 C 
BRANCH  11  12
HETATM   12  C   UNL     1      44.566 -11.896   8.885  1.00  0.00     0.256 C 
BRANCH  12  13
HETATM   13  N   UNL     1      43.411 -11.859   9.866  1.00  0.00    -0.066 N 
HETATM   14  C   UNL     1      43.858 -11.717  11.319  1.00  0.00     0.254 C 
HETATM   15  C   UNL     1      42.638 -11.635  12.260  1.00  0.00     0.153 C 
HETATM   16  N   UNL     1      41.761 -10.528  11.855  1.00  0.00    -0.355 N 
HETATM   17  C   UNL     1      41.263 -10.677  10.479  1.00  0.00     0.153 C 
HETATM   18  C   UNL     1      42.407 -10.784   9.459  1.00  0.00     0.254 C 
HETATM   19  H   UNL     1      42.963 -12.790   9.778  1.00  0.00     0.280 HD
BRANCH  16  20
HETATM   20  C   UNL     1      41.961  -9.265  12.442  1.00  0.00     0.169 C 
HETATM   21  S   UNL     1      41.811  -7.813  11.625  1.00  0.00    -0.041 SA
BRANCH  20  22
HETATM   22  N   UNL     1      42.328  -9.381  13.770  1.00  0.00    -0.367 N 
HETATM   23  H   UNL     1      43.126  -9.990  13.907  1.00  0.00     0.161 HD
BRANCH  22  24
HETATM   24  C   UNL     1      41.411  -9.313  14.907  1.00  0.00     0.117 C 
HETATM   25  C   UNL     1      42.156  -9.055  16.203  1.00  0.00     0.026 C 
ENDBRANCH  22  24
ENDBRANCH  20  22
ENDBRANCH  16  20
ENDBRANCH  12  13
ENDBRANCH  11  12
ENDBRANCH   9  11
ENDBRANCH   1   8
BRANCH   6  26
HETATM   26  C   UNL     1      40.266 -14.152   5.848  1.00  0.00     0.430 C 
HETATM   27  F   UNL     1      40.248 -13.160   6.778  1.00  0.00    -0.165 F 
HETATM   28  F   UNL     1      38.993 -14.214   5.354  1.00  0.00    -0.165 F 
HETATM   29  F   UNL     1      40.477 -15.314   6.517  1.00  0.00    -0.165 F 
ENDBRANCH   6  26
BRANCH   4  30
HETATM   30  C   UNL     1      42.105 -13.194   1.381  1.00  0.00     0.192 A 
HETATM   31  S   UNL     1      41.617 -14.333   0.210  1.00  0.00    -0.048 SA
HETATM   32  C   UNL     1      41.972 -13.212  -1.043  1.00  0.00     0.037 A 
HETATM   33  C   UNL     1      42.418 -12.021  -0.466  1.00  0.00     0.076 A 
HETATM   34  C   UNL     1      41.869 -13.376  -2.434  1.00  0.00     0.021 A 
HETATM   35  N   UNL     1      42.467 -12.017   0.922  1.00  0.00    -0.222 NA
HETATM   36  C   UNL     1      42.780 -10.955  -1.315  1.00  0.00     0.033 A 
HETATM   37  C   UNL     1      42.689 -11.109  -2.703  1.00  0.00     0.002 A 
HETATM   38  C   UNL     1      42.239 -12.305  -3.253  1.00  0.00     0.002 A 
ENDBRANCH   4  30
TORSDOF 9
ENDMDL
MODEL 8
REMARK VINA RESULT:      -7.7      3.986      4.733
REMARK  9 active torsions:
REMARK  status: ('A' for Active; 'I' for Inactive)
REMARK    1  A    between atoms: C_2  and  N_3 
REMARK    2  A    between atoms: N_3  and  C_4 
REMARK    3  A    between atoms: C_4  and  N_5 
REMARK    4  A    between atoms: N_8  and  C_10 
REMARK    5  A    between atoms: C_10  and  C_11 
REMARK    6  A    between atoms: C_11  and  N_12 
REMARK    7  A    between atoms: C_13  and  C_14 
REMARK    8  A    between atoms: N_17  and  C_18 
REMARK    9  A    between atoms: C_28  and  C_29 
ROOT
HETATM    1  C   UNL     1      40.305 -14.846   1.168  1.00  0.00     0.085 C 
HETATM    2  C   UNL     1      40.696 -15.906   2.156  1.00  0.00     0.278 C 
HETATM    3  O   UNL     1      40.215 -15.977   3.273  1.00  0.00    -0.265 OA
HETATM    4  N   UNL     1      41.612 -16.723   1.508  1.00  0.00    -0.212 N 
HETATM    5  N   UNL     1      41.836 -16.224   0.227  1.00  0.00    -0.189 NA
HETATM    6  C   UNL     1      40.962 -15.155   0.031  1.00  0.00     0.130 C 
HETATM    7  H   UNL     1      41.928 -16.920  -0.518  1.00  0.00     0.153 HD
ENDROOT
BRANCH   1   8
HETATM    8  C   UNL     1      39.405 -13.690   1.427  1.00  0.00     0.042 C 
HETATM    9  N   UNL     1      39.885 -12.629   2.000  1.00  0.00    -0.292 NA
HETATM   10  C   UNL     1      37.959 -13.840   0.985  1.00  0.00     0.071 C 
BRANCH   9  11
HETATM   11  C   UNL     1      38.974 -11.514   2.294  1.00  0.00     0.176 C 
BRANCH  11  12
HETATM   12  C   UNL     1      38.749 -11.433   3.809  1.00  0.00     0.256 C 
BRANCH  12  13
HETATM   13  N   UNL     1      40.047 -11.150   4.540  1.00  0.00    -0.066 N 
HETATM   14  C   UNL     1      40.049  -9.809   5.269  1.00  0.00     0.254 C 
HETATM   15  C   UNL     1      41.375  -9.605   6.031  1.00  0.00     0.153 C 
HETATM   16  N   UNL     1      41.603 -10.722   6.958  1.00  0.00    -0.355 N 
HETATM   17  C   UNL     1      41.671 -12.021   6.269  1.00  0.00     0.153 C 
HETATM   18  C   UNL     1      40.397 -12.315   5.463  1.00  0.00     0.254 C 
HETATM   19  H   UNL     1      40.761 -11.087   3.790  1.00  0.00     0.280 HD
BRANCH  16  20
HETATM   20  C   UNL     1      41.135 -10.604   8.279  1.00  0.00     0.169 C 
HETATM   21  S   UNL     1      39.555 -10.896   8.748  1.00  0.00    -0.041 SA
BRANCH  20  22
HETATM   22  N   UNL     1      42.139 -10.186   9.133  1.00  0.00    -0.367 N 
HETATM   23  H   UNL     1      42.758  -9.505   8.710  1.00  0.00     0.161 HD
BRANCH  22  24
HETATM   24  C   UNL     1      42.755 -11.006  10.174  1.00  0.00     0.117 C 
HETATM   25  C   UNL     1      43.942 -10.300  10.803  1.00  0.00     0.026 C 
ENDBRANCH  22  24
ENDBRANCH  20  22
ENDBRANCH  16  20
ENDBRANCH  12  13
ENDBRANCH  11  12
ENDBRANCH   9  11
ENDBRANCH   1   8
BRANCH   6  26
HETATM   26  C   UNL     1      40.837 -14.465  -1.297  1.00  0.00     0.430 C 
HETATM   27  F   UNL     1      41.214 -13.161  -1.218  1.00  0.00    -0.165 F 
HETATM   28  F   UNL     1      41.631 -15.017  -2.264  1.00  0.00    -0.165 F 
HETATM   29  F   UNL     1      39.570 -14.481  -1.782  1.00  0.00    -0.165 F 
ENDBRANCH   6  26
BRANCH   4  30
HETATM   30  C   UNL     1      42.342 -17.776   2.025  1.00  0.00     0.192 A 
HETATM   31  S   UNL     1      43.260 -17.580   3.448  1.00  0.00    -0.048 SA
HETATM   32  C   UNL     1      43.833 -19.193   3.312  1.00  0.00     0.037 A 
HETATM   33  C   UNL     1      43.252 -19.784   2.189  1.00  0.00     0.076 A 
HETATM   34  C   UNL     1      44.737 -19.884   4.136  1.00  0.00     0.021 A 
HETATM   35  N   UNL     1      42.382 -18.970   1.475  1.00  0.00    -0.222 NA
HETATM   36  C   UNL     1      43.591 -21.116   1.875  1.00  0.00     0.033 A 
HETATM   37  C   UNL     1      44.496 -21.812   2.684  1.00  0.00     0.002 A 
HETATM   38  C   UNL     1      45.060 -21.202   3.800  1.00  0.00     0.002 A 
ENDBRANCH   4  30
TORSDOF 9
ENDMDL
MODEL 9
REMARK VINA RESULT:      -7.6      3.073      3.716
REMARK  9 active torsions:
REMARK  status: ('A' for Active; 'I' for Inactive)
REMARK    1  A    between atoms: C_2  and  N_3 
REMARK    2  A    between atoms: N_3  and  C_4 
REMARK    3  A    between atoms: C_4  and  N_5 
REMARK    4  A    between atoms: N_8  and  C_10 
REMARK    5  A    between atoms: C_10  and  C_11 
REMARK    6  A    between atoms: C_11  and  N_12 
REMARK    7  A    between atoms: C_13  and  C_14 
REMARK    8  A    between atoms: N_17  and  C_18 
REMARK    9  A    between atoms: C_28  and  C_29 
ROOT
HETATM    1  C   UNL     1      40.500 -13.512   3.635  1.00  0.00     0.085 C 
HETATM    2  C   UNL     1      41.260 -14.623   4.299  1.00  0.00     0.278 C 
HETATM    3  O   UNL     1      41.609 -14.579   5.465  1.00  0.00    -0.265 OA
HETATM    4  N   UNL     1      41.398 -15.624   3.347  1.00  0.00    -0.212 N 
HETATM    5  N   UNL     1      40.819 -15.195   2.154  1.00  0.00    -0.189 NA
HETATM    6  C   UNL     1      40.210 -13.965   2.398  1.00  0.00     0.130 C 
HETATM    7  H   UNL     1      40.297 -15.901   1.628  1.00  0.00     0.153 HD
ENDROOT
BRANCH   1   8
HETATM    8  C   UNL     1      40.178 -12.187   4.229  1.00  0.00     0.042 C 
HETATM    9  N   UNL     1      41.098 -11.272   4.275  1.00  0.00    -0.292 NA
HETATM   10  C   UNL     1      38.762 -11.998   4.746  1.00  0.00     0.071 C 
BRANCH   9  11
HETATM   11  C   UNL     1      40.781  -9.985   4.908  1.00  0.00     0.176 C 
BRANCH  11  12
HETATM   12  C   UNL     1      41.624  -9.829   6.181  1.00  0.00     0.256 C 
BRANCH  12  13
HETATM   13  N   UNL     1      40.743  -9.737   7.411  1.00  0.00    -0.066 N 
HETATM   14  C   UNL     1      40.206 -11.089   7.873  1.00  0.00     0.254 C 
HETATM   15  C   UNL     1      39.361 -10.932   9.153  1.00  0.00     0.153 C 
HETATM   16  N   UNL     1      40.153 -10.280  10.206  1.00  0.00    -0.355 N 
HETATM   17  C   UNL     1      40.626  -8.944   9.809  1.00  0.00     0.153 C 
HETATM   18  C   UNL     1      41.471  -8.989   8.526  1.00  0.00     0.254 C 
HETATM   19  H   UNL     1      39.926  -9.175   7.106  1.00  0.00     0.280 HD
BRANCH  16  20
HETATM   20  C   UNL     1      40.874 -11.090  11.101  1.00  0.00     0.169 C 
HETATM   21  S   UNL     1      40.314 -11.557  12.608  1.00  0.00    -0.041 SA
BRANCH  20  22
HETATM   22  N   UNL     1      42.113 -11.425  10.589  1.00  0.00    -0.367 N 
HETATM   23  H   UNL     1      42.059 -12.099   9.836  1.00  0.00     0.161 HD
BRANCH  22  24
HETATM   24  C   UNL     1      43.358 -11.464  11.355  1.00  0.00     0.117 C 
HETATM   25  C   UNL     1      43.733 -10.086  11.870  1.00  0.00     0.026 C 
ENDBRANCH  22  24
ENDBRANCH  20  22
ENDBRANCH  16  20
ENDBRANCH  12  13
ENDBRANCH  11  12
ENDBRANCH   9  11
ENDBRANCH   1   8
BRANCH   6  26
HETATM   26  C   UNL     1      39.371 -13.276   1.360  1.00  0.00     0.430 C 
HETATM   27  F   UNL     1      39.389 -13.948   0.178  1.00  0.00    -0.165 F 
HETATM   28  F   UNL     1      38.052 -13.186   1.710  1.00  0.00    -0.165 F 
HETATM   29  F   UNL     1      39.789 -12.011   1.100  1.00  0.00    -0.165 F 
ENDBRANCH   6  26
BRANCH   4  30
HETATM   30  C   UNL     1      42.108 -16.805   3.437  1.00  0.00     0.192 A 
HETATM   31  S   UNL     1      42.834 -17.270   4.907  1.00  0.00    -0.048 SA
HETATM   32  C   UNL     1      43.497 -18.663   4.152  1.00  0.00     0.037 A 
HETATM   33  C   UNL     1      43.086 -18.688   2.817  1.00  0.00     0.076 A 
HETATM   34  C   UNL     1      44.325 -19.658   4.697  1.00  0.00     0.021 A 
HETATM   35  N   UNL     1      42.271 -17.632   2.428  1.00  0.00    -0.222 NA
HETATM   36  C   UNL     1      43.524 -19.748   1.997  1.00  0.00     0.033 A 
HETATM   37  C   UNL     1      44.355 -20.741   2.527  1.00  0.00     0.002 A 
HETATM   38  C   UNL     1      44.749 -20.694   3.861  1.00  0.00     0.002 A 
ENDBRANCH   4  30
TORSDOF 9
ENDMDL
MODEL 10
REMARK VINA RESULT:      -7.5      4.268      5.462
REMARK  9 active torsions:
REMARK  status: ('A' for Active; 'I' for Inactive)
REMARK    1  A    between atoms: C_2  and  N_3 
REMARK    2  A    between atoms: N_3  and  C_4 
REMARK    3  A    between atoms: C_4  and  N_5 
REMARK    4  A    between atoms: N_8  and  C_10 
REMARK    5  A    between atoms: C_10  and  C_11 
REMARK    6  A    between atoms: C_11  and  N_12 
REMARK    7  A    between atoms: C_13  and  C_14 
REMARK    8  A    between atoms: N_17  and  C_18 
REMARK    9  A    between atoms: C_28  and  C_29 
ROOT
HETATM    1  C   UNL     1      40.119 -14.702   0.877  1.00  0.00     0.085 C 
HETATM    2  C   UNL     1      40.577 -15.579   2.006  1.00  0.00     0.278 C 
HETATM    3  O   UNL     1      40.062 -15.555   3.110  1.00  0.00    -0.265 OA
HETATM    4  N   UNL     1      41.595 -16.372   1.495  1.00  0.00    -0.212 N 
HETATM    5  N   UNL     1      41.817 -16.021   0.165  1.00  0.00    -0.189 NA
HETATM    6  C   UNL     1      40.848 -15.085  -0.192  1.00  0.00     0.130 C 
HETATM    7  H   UNL     1      42.007 -16.794  -0.478  1.00  0.00     0.153 HD
ENDROOT
BRANCH   1   8
HETATM    8  C   UNL     1      39.098 -13.624   0.957  1.00  0.00     0.042 C 
HETATM    9  N   UNL     1      39.468 -12.422   1.282  1.00  0.00    -0.292 NA
HETATM   10  C   UNL     1      37.665 -14.017   0.641  1.00  0.00     0.071 C 
BRANCH   9  11
HETATM   11  C   UNL     1      38.443 -11.378   1.405  1.00  0.00     0.176 C 
BRANCH  11  12
HETATM   12  C   UNL     1      38.239 -11.044   2.889  1.00  0.00     0.256 C 
BRANCH  12  13
HETATM   13  N   UNL     1      39.417 -11.514   3.720  1.00  0.00    -0.066 N 
HETATM   14  C   UNL     1      40.405 -10.398   4.051  1.00  0.00     0.254 C 
HETATM   15  C   UNL     1      41.549 -10.929   4.938  1.00  0.00     0.153 C 
HETATM   16  N   UNL     1      41.003 -11.543   6.157  1.00  0.00    -0.355 N 
HETATM   17  C   UNL     1      40.097 -12.665   5.865  1.00  0.00     0.153 C 
HETATM   18  C   UNL     1      38.924 -12.243   4.968  1.00  0.00     0.254 C 
HETATM   19  H   UNL     1      39.915 -12.188   3.110  1.00  0.00     0.280 HD
BRANCH  16  20
HETATM   20  C   UNL     1      40.847 -10.738   7.300  1.00  0.00     0.169 C 
HETATM   21  S   UNL     1      41.430  -9.176   7.438  1.00  0.00    -0.041 SA
BRANCH  20  22
HETATM   22  N   UNL     1      40.180 -11.415   8.304  1.00  0.00    -0.367 N 
HETATM   23  H   UNL     1      39.544 -12.119   7.949  1.00  0.00     0.161 HD
BRANCH  22  24
HETATM   24  C   UNL     1      39.800 -10.846   9.596  1.00  0.00     0.117 C 
HETATM   25  C   UNL     1      38.502 -10.067   9.496  1.00  0.00     0.026 C 
ENDBRANCH  22  24
ENDBRANCH  20  22
ENDBRANCH  16  20
ENDBRANCH  12  13
ENDBRANCH  11  12
ENDBRANCH   9  11
ENDBRANCH   1   8
BRANCH   6  26
HETATM   26  C   UNL     1      40.706 -14.589  -1.603  1.00  0.00     0.430 C 
HETATM   27  F   UNL     1      39.432 -14.732  -2.056  1.00  0.00    -0.165 F 
HETATM   28  F   UNL     1      40.994 -13.258  -1.734  1.00  0.00    -0.165 F 
HETATM   29  F   UNL     1      41.511 -15.245  -2.476  1.00  0.00    -0.165 F 
ENDBRANCH   6  26
BRANCH   4  30
HETATM   30  C   UNL     1      42.406 -17.267   2.165  1.00  0.00     0.192 A 
HETATM   31  S   UNL     1      43.382 -18.366   1.301  1.00  0.00    -0.048 SA
HETATM   32  C   UNL     1      43.919 -19.064   2.776  1.00  0.00     0.037 A 
HETATM   33  C   UNL     1      43.327 -18.378   3.839  1.00  0.00     0.076 A 
HETATM   34  C   UNL     1      44.795 -20.143   2.978  1.00  0.00     0.021 A 
HETATM   35  N   UNL     1      42.483 -17.337   3.475  1.00  0.00    -0.222 NA
HETATM   36  C   UNL     1      43.621 -18.792   5.155  1.00  0.00     0.033 A 
HETATM   37  C   UNL     1      44.486 -19.870   5.368  1.00  0.00     0.002 A 
HETATM   38  C   UNL     1      45.065 -20.535   4.292  1.00  0.00     0.002 A 
ENDBRANCH   4  30
TORSDOF 9
ENDMDL
