MODEL 1
REMARK VINA RESULT:     -10.3      0.000      0.000
REMARK  6 active torsions:
REMARK  status: ('A' for Active; 'I' for Inactive)
REMARK    1  A    between atoms: C_4  and  C_5 
REMARK    2  A    between atoms: N_7  and  C_8 
REMARK    3  A    between atoms: C_8  and  C_9 
REMARK    4  A    between atoms: C_9  and  C_10 
REMARK       I    between atoms: C_10  and  N_11 
REMARK    5  A    between atoms: N_11  and  N_12 
REMARK    6  A    between atoms: C_24  and  C_25 
ROOT
HETATM    1  C   UNL     1      44.040 -14.989   7.173  1.00  0.00     0.161 C 
ENDROOT
BRANCH   1   2
HETATM    2  N   UNL     1      43.648 -15.664   5.946  1.00  0.00    -0.268 N 
HETATM    3  N   UNL     1      44.176 -16.875   5.695  1.00  0.00    -0.172 NA
HETATM    4  C   UNL     1      43.584 -17.294   4.566  1.00  0.00     0.089 A 
HETATM    5  C   UNL     1      42.655 -16.318   4.120  1.00  0.00     0.066 A 
HETATM    6  C   UNL     1      42.705 -15.275   5.026  1.00  0.00     0.065 A 
BRANCH   4   7
HETATM    7  C   UNL     1      43.893 -18.601   3.971  1.00  0.00    -0.006 A 
HETATM    8  C   UNL     1      44.655 -19.542   4.681  1.00  0.00     0.014 A 
HETATM    9  C   UNL     1      44.957 -20.790   4.125  1.00  0.00     0.001 A 
HETATM   10  C   UNL     1      44.498 -21.114   2.851  1.00  0.00     0.000 A 
HETATM   11  C   UNL     1      43.738 -20.193   2.133  1.00  0.00     0.001 A 
HETATM   12  C   UNL     1      43.437 -18.945   2.690  1.00  0.00     0.014 A 
ENDBRANCH   4   7
BRANCH   6  13
HETATM   13  C   UNL     1      41.886 -14.069   5.085  1.00  0.00    -0.008 A 
HETATM   14  C   UNL     1      42.299 -12.874   4.486  1.00  0.00     0.014 A 
HETATM   15  C   UNL     1      41.500 -11.730   4.566  1.00  0.00     0.001 A 
HETATM   16  C   UNL     1      40.277 -11.776   5.233  1.00  0.00     0.000 A 
HETATM   17  C   UNL     1      39.848 -12.965   5.815  1.00  0.00     0.001 A 
HETATM   18  C   UNL     1      40.647 -14.107   5.740  1.00  0.00     0.014 A 
ENDBRANCH   6  13
ENDBRANCH   1   2
BRANCH   1  19
HETATM   19  C   UNL     1      45.008 -13.845   6.929  1.00  0.00     0.126 C 
BRANCH  19  20
HETATM   20  C   UNL     1      45.204 -13.016   8.176  1.00  0.00     0.239 C 
HETATM   21  N   UNL     1      44.070 -12.906   8.960  1.00  0.00    -0.246 N 
HETATM   22  H   UNL     1      43.241 -13.475   8.769  1.00  0.00     0.192 HD
HETATM   23  O   UNL     1      46.290 -12.491   8.414  1.00  0.00    -0.272 OA
BRANCH  21  24
HETATM   24  N   UNL     1      44.103 -12.156  10.099  1.00  0.00    -0.166 NA
HETATM   25  C   UNL     1      43.315 -11.131  10.143  1.00  0.00     0.157 A 
HETATM   26  C   UNL     1      42.367 -10.597   9.063  1.00  0.00     0.277 A 
HETATM   27  C   UNL     1      43.183 -10.218  11.272  1.00  0.00     0.027 A 
HETATM   28  O   UNL     1      42.250 -11.054   7.945  1.00  0.00    -0.266 OA
HETATM   29  N   UNL     1      41.754  -9.496   9.620  1.00  0.00    -0.321 N 
HETATM   30  C   UNL     1      42.237  -9.263  10.906  1.00  0.00     0.048 A 
HETATM   31  H   UNL     1      41.075  -8.934   9.130  1.00  0.00     0.169 HD
HETATM   32  C   UNL     1      41.893  -8.236  11.758  1.00  0.00     0.030 A 
HETATM   33  C   UNL     1      42.534  -8.193  13.003  1.00  0.00     0.002 A 
HETATM   34  C   UNL     1      43.490  -9.164  13.367  1.00  0.00     0.001 A 
HETATM   35  C   UNL     1      43.826 -10.199  12.492  1.00  0.00     0.016 A 
ENDBRANCH  21  24
ENDBRANCH  19  20
ENDBRANCH   1  19
TORSDOF 6
ENDMDL
MODEL 2
REMARK VINA RESULT:      -9.5      5.193      7.631
REMARK  6 active torsions:
REMARK  status: ('A' for Active; 'I' for Inactive)
REMARK    1  A    between atoms: C_4  and  C_5 
REMARK    2  A    between atoms: N_7  and  C_8 
REMARK    3  A    between atoms: C_8  and  C_9 
REMARK    4  A    between atoms: C_9  and  C_10 
REMARK       I    between atoms: C_10  and  N_11 
REMARK    5  A    between atoms: N_11  and  N_12 
REMARK    6  A    between atoms: C_24  and  C_25 
ROOT
HETATM    1  C   UNL     1      40.968 -14.921   4.263  1.00  0.00     0.161 C 
ENDROOT
BRANCH   1   2
HETATM    2  N   UNL     1      41.406 -15.971   3.356  1.00  0.00    -0.268 N 
HETATM    3  N   UNL     1      42.201 -16.937   3.847  1.00  0.00    -0.172 NA
HETATM    4  C   UNL     1      42.373 -17.803   2.836  1.00  0.00     0.089 A 
HETATM    5  C   UNL     1      41.652 -17.361   1.697  1.00  0.00     0.066 A 
HETATM    6  C   UNL     1      41.028 -16.179   2.052  1.00  0.00     0.065 A 
BRANCH   4   7
HETATM    7  C   UNL     1      43.183 -19.019   2.991  1.00  0.00    -0.006 A 
HETATM    8  C   UNL     1      43.205 -19.991   1.978  1.00  0.00     0.014 A 
HETATM    9  C   UNL     1      43.971 -21.153   2.114  1.00  0.00     0.001 A 
HETATM   10  C   UNL     1      44.728 -21.358   3.264  1.00  0.00     0.000 A 
HETATM   11  C   UNL     1      44.721 -20.402   4.278  1.00  0.00     0.001 A 
HETATM   12  C   UNL     1      43.953 -19.241   4.142  1.00  0.00     0.014 A 
ENDBRANCH   4   7
BRANCH   6  13
HETATM   13  C   UNL     1      40.091 -15.366   1.283  1.00  0.00    -0.008 A 
HETATM   14  C   UNL     1      38.793 -15.114   1.742  1.00  0.00     0.014 A 
HETATM   15  C   UNL     1      37.913 -14.341   0.982  1.00  0.00     0.001 A 
HETATM   16  C   UNL     1      38.327 -13.801  -0.235  1.00  0.00     0.000 A 
HETATM   17  C   UNL     1      39.623 -14.028  -0.690  1.00  0.00     0.001 A 
HETATM   18  C   UNL     1      40.502 -14.806   0.066  1.00  0.00     0.014 A 
ENDBRANCH   6  13
ENDBRANCH   1   2
BRANCH   1  19
HETATM   19  C   UNL     1      42.093 -13.979   4.655  1.00  0.00     0.126 C 
BRANCH  19  20
HETATM   20  C   UNL     1      42.793 -13.424   3.437  1.00  0.00     0.239 C 
HETATM   21  N   UNL     1      41.971 -12.684   2.607  1.00  0.00    -0.246 N 
HETATM   22  H   UNL     1      41.026 -12.422   2.900  1.00  0.00     0.192 HD
HETATM   23  O   UNL     1      43.984 -13.657   3.239  1.00  0.00    -0.272 OA
BRANCH  21  24
HETATM   24  N   UNL     1      42.471 -12.153   1.454  1.00  0.00    -0.166 NA
HETATM   25  C   UNL     1      41.696 -11.351   0.800  1.00  0.00     0.157 A 
HETATM   26  C   UNL     1      40.252 -10.938   1.111  1.00  0.00     0.277 A 
HETATM   27  C   UNL     1      42.046 -10.664  -0.437  1.00  0.00     0.027 A 
HETATM   28  O   UNL     1      39.585 -11.362   2.032  1.00  0.00    -0.266 OA
HETATM   29  N   UNL     1      39.895 -10.059   0.111  1.00  0.00    -0.321 N 
HETATM   30  C   UNL     1      40.935  -9.907  -0.802  1.00  0.00     0.048 A 
HETATM   31  H   UNL     1      38.986  -9.626   0.055  1.00  0.00     0.169 HD
HETATM   32  C   UNL     1      40.938  -9.144  -1.950  1.00  0.00     0.030 A 
HETATM   33  C   UNL     1      42.100  -9.164  -2.733  1.00  0.00     0.002 A 
HETATM   34  C   UNL     1      43.221  -9.933  -2.356  1.00  0.00     0.001 A 
HETATM   35  C   UNL     1      43.202 -10.700  -1.188  1.00  0.00     0.016 A 
ENDBRANCH  21  24
ENDBRANCH  19  20
ENDBRANCH   1  19
TORSDOF 6
ENDMDL
MODEL 3
REMARK VINA RESULT:      -9.4      2.688      3.483
REMARK  6 active torsions:
REMARK  status: ('A' for Active; 'I' for Inactive)
REMARK    1  A    between atoms: C_4  and  C_5 
REMARK    2  A    between atoms: N_7  and  C_8 
REMARK    3  A    between atoms: C_8  and  C_9 
REMARK    4  A    between atoms: C_9  and  C_10 
REMARK       I    between atoms: C_10  and  N_11 
REMARK    5  A    between atoms: N_11  and  N_12 
REMARK    6  A    between atoms: C_24  and  C_25 
ROOT
HETATM    1  C   UNL     1      41.677 -13.983   3.735  1.00  0.00     0.161 C 
ENDROOT
BRANCH   1   2
HETATM    2  N   UNL     1      41.821 -15.264   3.060  1.00  0.00    -0.268 N 
HETATM    3  N   UNL     1      42.665 -16.165   3.592  1.00  0.00    -0.172 NA
HETATM    4  C   UNL     1      42.535 -17.264   2.833  1.00  0.00     0.089 A 
HETATM    5  C   UNL     1      41.574 -17.035   1.815  1.00  0.00     0.066 A 
HETATM    6  C   UNL     1      41.118 -15.740   1.980  1.00  0.00     0.065 A 
BRANCH   4   7
HETATM    7  C   UNL     1      43.297 -18.490   3.111  1.00  0.00    -0.006 A 
HETATM    8  C   UNL     1      43.963 -18.649   4.336  1.00  0.00     0.014 A 
HETATM    9  C   UNL     1      44.692 -19.810   4.613  1.00  0.00     0.001 A 
HETATM   10  C   UNL     1      44.763 -20.830   3.667  1.00  0.00     0.000 A 
HETATM   11  C   UNL     1      44.105 -20.691   2.447  1.00  0.00     0.001 A 
HETATM   12  C   UNL     1      43.377 -19.528   2.171  1.00  0.00     0.014 A 
ENDBRANCH   4   7
BRANCH   6  13
HETATM   13  C   UNL     1      40.059 -15.039   1.261  1.00  0.00    -0.008 A 
HETATM   14  C   UNL     1      38.741 -15.025   1.730  1.00  0.00     0.014 A 
HETATM   15  C   UNL     1      37.744 -14.354   1.018  1.00  0.00     0.001 A 
HETATM   16  C   UNL     1      38.059 -13.680  -0.161  1.00  0.00     0.000 A 
HETATM   17  C   UNL     1      39.372 -13.670  -0.625  1.00  0.00     0.001 A 
HETATM   18  C   UNL     1      40.368 -14.345   0.084  1.00  0.00     0.014 A 
ENDBRANCH   6  13
ENDBRANCH   1   2
BRANCH   1  19
HETATM   19  C   UNL     1      42.538 -13.878   4.981  1.00  0.00     0.126 C 
BRANCH  19  20
HETATM   20  C   UNL     1      41.964 -12.883   5.962  1.00  0.00     0.239 C 
HETATM   21  N   UNL     1      42.899 -12.347   6.828  1.00  0.00    -0.246 N 
HETATM   22  H   UNL     1      43.900 -12.507   6.686  1.00  0.00     0.192 HD
HETATM   23  O   UNL     1      40.761 -12.625   5.961  1.00  0.00    -0.272 OA
BRANCH  21  24
HETATM   24  N   UNL     1      42.507 -11.459   7.787  1.00  0.00    -0.166 NA
HETATM   25  C   UNL     1      43.200 -11.439   8.878  1.00  0.00     0.157 A 
HETATM   26  C   UNL     1      44.391 -12.316   9.280  1.00  0.00     0.277 A 
HETATM   27  C   UNL     1      42.960 -10.554  10.012  1.00  0.00     0.027 A 
HETATM   28  O   UNL     1      44.845 -13.227   8.620  1.00  0.00    -0.266 OA
HETATM   29  N   UNL     1      44.767 -11.879  10.532  1.00  0.00    -0.321 N 
HETATM   30  C   UNL     1      43.925 -10.859  10.969  1.00  0.00     0.048 A 
HETATM   31  H   UNL     1      45.530 -12.283  11.053  1.00  0.00     0.169 HD
HETATM   32  C   UNL     1      43.962 -10.201  12.179  1.00  0.00     0.030 A 
HETATM   33  C   UNL     1      42.990  -9.218  12.407  1.00  0.00     0.002 A 
HETATM   34  C   UNL     1      42.017  -8.914  11.432  1.00  0.00     0.001 A 
HETATM   35  C   UNL     1      41.994  -9.589  10.209  1.00  0.00     0.016 A 
ENDBRANCH  21  24
ENDBRANCH  19  20
ENDBRANCH   1  19
TORSDOF 6
ENDMDL
MODEL 4
REMARK VINA RESULT:      -9.4      1.876      2.326
REMARK  6 active torsions:
REMARK  status: ('A' for Active; 'I' for Inactive)
REMARK    1  A    between atoms: C_4  and  C_5 
REMARK    2  A    between atoms: N_7  and  C_8 
REMARK    3  A    between atoms: C_8  and  C_9 
REMARK    4  A    between atoms: C_9  and  C_10 
REMARK       I    between atoms: C_10  and  N_11 
REMARK    5  A    between atoms: N_11  and  N_12 
REMARK    6  A    between atoms: C_24  and  C_25 
ROOT
HETATM    1  C   UNL     1      42.468 -15.443   5.257  1.00  0.00     0.161 C 
ENDROOT
BRANCH   1   2
HETATM    2  N   UNL     1      42.575 -16.385   4.154  1.00  0.00    -0.268 N 
HETATM    3  N   UNL     1      43.195 -17.556   4.383  1.00  0.00    -0.172 NA
HETATM    4  C   UNL     1      43.072 -18.252   3.242  1.00  0.00     0.089 A 
HETATM    5  C   UNL     1      42.344 -17.492   2.291  1.00  0.00     0.066 A 
HETATM    6  C   UNL     1      42.026 -16.291   2.898  1.00  0.00     0.065 A 
BRANCH   4   7
HETATM    7  C   UNL     1      43.618 -19.610   3.103  1.00  0.00    -0.006 A 
HETATM    8  C   UNL     1      43.443 -20.327   1.909  1.00  0.00     0.014 A 
HETATM    9  C   UNL     1      43.957 -21.619   1.765  1.00  0.00     0.001 A 
HETATM   10  C   UNL     1      44.655 -22.212   2.813  1.00  0.00     0.000 A 
HETATM   11  C   UNL     1      44.841 -21.514   4.004  1.00  0.00     0.001 A 
HETATM   12  C   UNL     1      44.325 -20.221   4.148  1.00  0.00     0.014 A 
ENDBRANCH   4   7
BRANCH   6  13
HETATM   13  C   UNL     1      41.207 -15.194   2.394  1.00  0.00    -0.008 A 
HETATM   14  C   UNL     1      41.777 -13.982   1.988  1.00  0.00     0.014 A 
HETATM   15  C   UNL     1      40.969 -12.943   1.518  1.00  0.00     0.001 A 
HETATM   16  C   UNL     1      39.588 -13.112   1.437  1.00  0.00     0.000 A 
HETATM   17  C   UNL     1      39.013 -14.321   1.820  1.00  0.00     0.001 A 
HETATM   18  C   UNL     1      39.819 -15.358   2.294  1.00  0.00     0.014 A 
ENDBRANCH   6  13
ENDBRANCH   1   2
BRANCH   1  19
HETATM   19  C   UNL     1      43.686 -14.544   5.379  1.00  0.00     0.126 C 
BRANCH  19  20
HETATM   20  C   UNL     1      43.952 -14.173   6.819  1.00  0.00     0.239 C 
HETATM   21  N   UNL     1      43.726 -12.840   7.105  1.00  0.00    -0.246 N 
HETATM   22  H   UNL     1      43.269 -12.226   6.425  1.00  0.00     0.192 HD
HETATM   23  O   UNL     1      44.354 -15.017   7.618  1.00  0.00    -0.272 OA
BRANCH  21  24
HETATM   24  N   UNL     1      43.961 -12.366   8.363  1.00  0.00    -0.166 NA
HETATM   25  C   UNL     1      43.200 -11.404   8.773  1.00  0.00     0.157 A 
HETATM   26  C   UNL     1      42.083 -10.672   8.021  1.00  0.00     0.277 A 
HETATM   27  C   UNL     1      43.272 -10.775  10.086  1.00  0.00     0.027 A 
HETATM   28  O   UNL     1      41.771 -10.868   6.864  1.00  0.00    -0.266 OA
HETATM   29  N   UNL     1      41.583  -9.746   8.911  1.00  0.00    -0.321 N 
HETATM   30  C   UNL     1      42.283  -9.794  10.114  1.00  0.00     0.048 A 
HETATM   31  H   UNL     1      40.833  -9.111   8.685  1.00  0.00     0.169 HD
HETATM   32  C   UNL     1      42.099  -8.998  11.224  1.00  0.00     0.030 A 
HETATM   33  C   UNL     1      42.946  -9.216  12.319  1.00  0.00     0.002 A 
HETATM   34  C   UNL     1      43.944 -10.212  12.283  1.00  0.00     0.001 A 
HETATM   35  C   UNL     1      44.116 -11.012  11.150  1.00  0.00     0.016 A 
ENDBRANCH  21  24
ENDBRANCH  19  20
ENDBRANCH   1  19
TORSDOF 6
ENDMDL
MODEL 5
REMARK VINA RESULT:      -9.3      5.430      8.936
REMARK  6 active torsions:
REMARK  status: ('A' for Active; 'I' for Inactive)
REMARK    1  A    between atoms: C_4  and  C_5 
REMARK    2  A    between atoms: N_7  and  C_8 
REMARK    3  A    between atoms: C_8  and  C_9 
REMARK    4  A    between atoms: C_9  and  C_10 
REMARK       I    between atoms: C_10  and  N_11 
REMARK    5  A    between atoms: N_11  and  N_12 
REMARK    6  A    between atoms: C_24  and  C_25 
ROOT
HETATM    1  C   UNL     1      42.227 -15.499   1.297  1.00  0.00     0.161 C 
ENDROOT
BRANCH   1   2
HETATM    2  N   UNL     1      42.454 -16.517   2.311  1.00  0.00    -0.268 N 
HETATM    3  N   UNL     1      42.949 -17.702   1.916  1.00  0.00    -0.172 NA
HETATM    4  C   UNL     1      43.138 -18.403   3.044  1.00  0.00     0.089 A 
HETATM    5  C   UNL     1      42.761 -17.619   4.165  1.00  0.00     0.066 A 
HETATM    6  C   UNL     1      42.327 -16.402   3.674  1.00  0.00     0.065 A 
BRANCH   4   7
HETATM    7  C   UNL     1      43.690 -19.765   3.025  1.00  0.00    -0.006 A 
HETATM    8  C   UNL     1      43.550 -20.572   1.885  1.00  0.00     0.014 A 
HETATM    9  C   UNL     1      44.069 -21.870   1.855  1.00  0.00     0.001 A 
HETATM   10  C   UNL     1      44.739 -22.378   2.965  1.00  0.00     0.000 A 
HETATM   11  C   UNL     1      44.891 -21.590   4.103  1.00  0.00     0.001 A 
HETATM   12  C   UNL     1      44.369 -20.292   4.133  1.00  0.00     0.014 A 
ENDBRANCH   4   7
BRANCH   6  13
HETATM   13  C   UNL     1      41.921 -15.207   4.406  1.00  0.00    -0.008 A 
HETATM   14  C   UNL     1      42.854 -14.248   4.817  1.00  0.00     0.014 A 
HETATM   15  C   UNL     1      42.440 -13.117   5.526  1.00  0.00     0.001 A 
HETATM   16  C   UNL     1      41.089 -12.929   5.816  1.00  0.00     0.000 A 
HETATM   17  C   UNL     1      40.151 -13.866   5.394  1.00  0.00     0.001 A 
HETATM   18  C   UNL     1      40.564 -14.999   4.690  1.00  0.00     0.014 A 
ENDBRANCH   6  13
ENDBRANCH   1   2
BRANCH   1  19
HETATM   19  C   UNL     1      40.814 -15.530   0.743  1.00  0.00     0.126 C 
BRANCH  19  20
HETATM   20  C   UNL     1      40.695 -14.684  -0.504  1.00  0.00     0.239 C 
HETATM   21  N   UNL     1      41.910 -14.282  -1.026  1.00  0.00    -0.246 N 
HETATM   22  H   UNL     1      42.789 -14.670  -0.673  1.00  0.00     0.192 HD
HETATM   23  O   UNL     1      39.590 -14.392  -0.958  1.00  0.00    -0.272 OA
BRANCH  21  24
HETATM   24  N   UNL     1      41.943 -13.485  -2.133  1.00  0.00    -0.166 NA
HETATM   25  C   UNL     1      42.233 -12.239  -1.944  1.00  0.00     0.157 A 
HETATM   26  C   UNL     1      42.506 -11.502  -0.628  1.00  0.00     0.277 A 
HETATM   27  C   UNL     1      42.341 -11.231  -2.992  1.00  0.00     0.027 A 
HETATM   28  O   UNL     1      42.438 -11.995   0.479  1.00  0.00    -0.266 OA
HETATM   29  N   UNL     1      42.776 -10.198  -0.983  1.00  0.00    -0.321 N 
HETATM   30  C   UNL     1      42.669 -10.033  -2.362  1.00  0.00     0.048 A 
HETATM   31  H   UNL     1      42.989  -9.475  -0.313  1.00  0.00     0.169 HD
HETATM   32  C   UNL     1      42.828  -8.868  -3.081  1.00  0.00     0.030 A 
HETATM   33  C   UNL     1      42.646  -8.941  -4.469  1.00  0.00     0.002 A 
HETATM   34  C   UNL     1      42.316 -10.158  -5.100  1.00  0.00     0.001 A 
HETATM   35  C   UNL     1      42.159 -11.330  -4.355  1.00  0.00     0.016 A 
ENDBRANCH  21  24
ENDBRANCH  19  20
ENDBRANCH   1  19
TORSDOF 6
ENDMDL
MODEL 6
REMARK VINA RESULT:      -9.3      1.679      2.476
REMARK  6 active torsions:
REMARK  status: ('A' for Active; 'I' for Inactive)
REMARK    1  A    between atoms: C_4  and  C_5 
REMARK    2  A    between atoms: N_7  and  C_8 
REMARK    3  A    between atoms: C_8  and  C_9 
REMARK    4  A    between atoms: C_9  and  C_10 
REMARK       I    between atoms: C_10  and  N_11 
REMARK    5  A    between atoms: N_11  and  N_12 
REMARK    6  A    between atoms: C_24  and  C_25 
ROOT
HETATM    1  C   UNL     1      43.250 -15.758   6.091  1.00  0.00     0.161 C 
ENDROOT
BRANCH   1   2
HETATM    2  N   UNL     1      43.285 -16.637   4.933  1.00  0.00    -0.268 N 
HETATM    3  N   UNL     1      43.786 -17.874   5.095  1.00  0.00    -0.172 NA
HETATM    4  C   UNL     1      43.616 -18.484   3.912  1.00  0.00     0.089 A 
HETATM    5  C   UNL     1      42.979 -17.600   3.003  1.00  0.00     0.066 A 
HETATM    6  C   UNL     1      42.767 -16.414   3.680  1.00  0.00     0.065 A 
BRANCH   4   7
HETATM    7  C   UNL     1      44.032 -19.877   3.694  1.00  0.00    -0.006 A 
HETATM    8  C   UNL     1      44.547 -20.638   4.754  1.00  0.00     0.014 A 
HETATM    9  C   UNL     1      44.947 -21.964   4.559  1.00  0.00     0.001 A 
HETATM   10  C   UNL     1      44.835 -22.548   3.299  1.00  0.00     0.000 A 
HETATM   11  C   UNL     1      44.322 -21.807   2.236  1.00  0.00     0.001 A 
HETATM   12  C   UNL     1      43.923 -20.480   2.432  1.00  0.00     0.014 A 
ENDBRANCH   4   7
BRANCH   6  13
HETATM   13  C   UNL     1      42.064 -15.214   3.237  1.00  0.00    -0.008 A 
HETATM   14  C   UNL     1      40.707 -15.016   3.517  1.00  0.00     0.014 A 
HETATM   15  C   UNL     1      40.055 -13.863   3.073  1.00  0.00     0.001 A 
HETATM   16  C   UNL     1      40.757 -12.893   2.359  1.00  0.00     0.000 A 
HETATM   17  C   UNL     1      42.112 -13.071   2.094  1.00  0.00     0.001 A 
HETATM   18  C   UNL     1      42.763 -14.226   2.533  1.00  0.00     0.014 A 
ENDBRANCH   6  13
ENDBRANCH   1   2
BRANCH   1  19
HETATM   19  C   UNL     1      43.976 -14.446   5.852  1.00  0.00     0.126 C 
BRANCH  19  20
HETATM   20  C   UNL     1      43.173 -13.273   6.364  1.00  0.00     0.239 C 
HETATM   21  N   UNL     1      43.615 -12.778   7.577  1.00  0.00    -0.246 N 
HETATM   22  H   UNL     1      44.501 -13.093   7.982  1.00  0.00     0.192 HD
HETATM   23  O   UNL     1      42.209 -12.851   5.728  1.00  0.00    -0.272 OA
BRANCH  21  24
HETATM   24  N   UNL     1      42.957 -11.739   8.166  1.00  0.00    -0.166 NA
HETATM   25  C   UNL     1      43.382 -11.367   9.329  1.00  0.00     0.157 A 
HETATM   26  C   UNL     1      44.508 -11.964  10.181  1.00  0.00     0.277 A 
HETATM   27  C   UNL     1      42.832 -10.268  10.115  1.00  0.00     0.027 A 
HETATM   28  O   UNL     1      45.160 -12.946   9.891  1.00  0.00    -0.266 OA
HETATM   29  N   UNL     1      44.559 -11.192  11.321  1.00  0.00    -0.321 N 
HETATM   30  C   UNL     1      43.574 -10.208  11.292  1.00  0.00     0.048 A 
HETATM   31  H   UNL     1      45.211 -11.358  12.072  1.00  0.00     0.169 HD
HETATM   32  C   UNL     1      43.291  -9.276  12.267  1.00  0.00     0.030 A 
HETATM   33  C   UNL     1      42.229  -8.394  12.025  1.00  0.00     0.002 A 
HETATM   34  C   UNL     1      41.483  -8.461  10.829  1.00  0.00     0.001 A 
HETATM   35  C   UNL     1      41.784  -9.412   9.851  1.00  0.00     0.016 A 
ENDBRANCH  21  24
ENDBRANCH  19  20
ENDBRANCH   1  19
TORSDOF 6
ENDMDL
MODEL 7
REMARK VINA RESULT:      -9.3      2.034      4.983
REMARK  6 active torsions:
REMARK  status: ('A' for Active; 'I' for Inactive)
REMARK    1  A    between atoms: C_4  and  C_5 
REMARK    2  A    between atoms: N_7  and  C_8 
REMARK    3  A    between atoms: C_8  and  C_9 
REMARK    4  A    between atoms: C_9  and  C_10 
REMARK       I    between atoms: C_10  and  N_11 
REMARK    5  A    between atoms: N_11  and  N_12 
REMARK    6  A    between atoms: C_24  and  C_25 
ROOT
HETATM    1  C   UNL     1      43.678 -15.463   5.707  1.00  0.00     0.161 C 
ENDROOT
BRANCH   1   2
HETATM    2  N   UNL     1      42.623 -15.787   4.760  1.00  0.00    -0.268 N 
HETATM    3  N   UNL     1      41.810 -14.794   4.358  1.00  0.00    -0.172 NA
HETATM    4  C   UNL     1      41.005 -15.346   3.437  1.00  0.00     0.089 A 
HETATM    5  C   UNL     1      41.341 -16.713   3.261  1.00  0.00     0.066 A 
HETATM    6  C   UNL     1      42.392 -16.980   4.118  1.00  0.00     0.065 A 
BRANCH   4   7
HETATM    7  C   UNL     1      39.973 -14.561   2.744  1.00  0.00    -0.006 A 
HETATM    8  C   UNL     1      39.825 -13.191   3.009  1.00  0.00     0.014 A 
HETATM    9  C   UNL     1      38.847 -12.434   2.356  1.00  0.00     0.001 A 
HETATM   10  C   UNL     1      38.004 -13.038   1.426  1.00  0.00     0.000 A 
HETATM   11  C   UNL     1      38.140 -14.396   1.148  1.00  0.00     0.001 A 
HETATM   12  C   UNL     1      39.118 -15.153   1.802  1.00  0.00     0.014 A 
ENDBRANCH   4   7
BRANCH   6  13
HETATM   13  C   UNL     1      43.174 -18.203   4.263  1.00  0.00    -0.008 A 
HETATM   14  C   UNL     1      43.341 -18.823   5.507  1.00  0.00     0.014 A 
HETATM   15  C   UNL     1      44.102 -19.988   5.620  1.00  0.00     0.001 A 
HETATM   16  C   UNL     1      44.691 -20.552   4.489  1.00  0.00     0.000 A 
HETATM   17  C   UNL     1      44.515 -19.955   3.243  1.00  0.00     0.001 A 
HETATM   18  C   UNL     1      43.758 -18.787   3.130  1.00  0.00     0.014 A 
ENDBRANCH   6  13
ENDBRANCH   1   2
BRANCH   1  19
HETATM   19  C   UNL     1      43.879 -13.967   5.871  1.00  0.00     0.126 C 
BRANCH  19  20
HETATM   20  C   UNL     1      44.121 -13.601   7.317  1.00  0.00     0.239 C 
HETATM   21  N   UNL     1      43.656 -12.345   7.662  1.00  0.00    -0.246 N 
HETATM   22  H   UNL     1      43.068 -11.807   7.020  1.00  0.00     0.192 HD
HETATM   23  O   UNL     1      44.702 -14.379   8.071  1.00  0.00    -0.272 OA
BRANCH  21  24
HETATM   24  N   UNL     1      43.841 -11.878   8.930  1.00  0.00    -0.166 NA
HETATM   25  C   UNL     1      43.062 -10.920   9.315  1.00  0.00     0.157 A 
HETATM   26  C   UNL     1      41.974 -10.185   8.525  1.00  0.00     0.277 A 
HETATM   27  C   UNL     1      43.082 -10.298  10.634  1.00  0.00     0.027 A 
HETATM   28  O   UNL     1      41.707 -10.376   7.356  1.00  0.00    -0.266 OA
HETATM   29  N   UNL     1      41.438  -9.265   9.399  1.00  0.00    -0.321 N 
HETATM   30  C   UNL     1      42.091  -9.318  10.628  1.00  0.00     0.048 A 
HETATM   31  H   UNL     1      40.696  -8.630   9.148  1.00  0.00     0.169 HD
HETATM   32  C   UNL     1      41.862  -8.529  11.734  1.00  0.00     0.030 A 
HETATM   33  C   UNL     1      42.666  -8.751  12.860  1.00  0.00     0.002 A 
HETATM   34  C   UNL     1      43.667  -9.745  12.858  1.00  0.00     0.001 A 
HETATM   35  C   UNL     1      43.885 -10.538  11.729  1.00  0.00     0.016 A 
ENDBRANCH  21  24
ENDBRANCH  19  20
ENDBRANCH   1  19
TORSDOF 6
ENDMDL
MODEL 8
REMARK VINA RESULT:      -9.2      3.076      3.862
REMARK  6 active torsions:
REMARK  status: ('A' for Active; 'I' for Inactive)
REMARK    1  A    between atoms: C_4  and  C_5 
REMARK    2  A    between atoms: N_7  and  C_8 
REMARK    3  A    between atoms: C_8  and  C_9 
REMARK    4  A    between atoms: C_9  and  C_10 
REMARK       I    between atoms: C_10  and  N_11 
REMARK    5  A    between atoms: N_11  and  N_12 
REMARK    6  A    between atoms: C_24  and  C_25 
ROOT
HETATM    1  C   UNL     1      42.313 -13.454   2.829  1.00  0.00     0.161 C 
ENDROOT
BRANCH   1   2
HETATM    2  N   UNL     1      42.235 -14.869   2.501  1.00  0.00    -0.268 N 
HETATM    3  N   UNL     1      43.111 -15.702   3.089  1.00  0.00    -0.172 NA
HETATM    4  C   UNL     1      42.761 -16.931   2.682  1.00  0.00     0.089 A 
HETATM    5  C   UNL     1      41.629 -16.851   1.830  1.00  0.00     0.066 A 
HETATM    6  C   UNL     1      41.298 -15.513   1.729  1.00  0.00     0.065 A 
BRANCH   4   7
HETATM    7  C   UNL     1      43.485 -18.129   3.130  1.00  0.00    -0.006 A 
HETATM    8  C   UNL     1      43.754 -19.174   2.233  1.00  0.00     0.014 A 
HETATM    9  C   UNL     1      44.442 -20.319   2.648  1.00  0.00     0.001 A 
HETATM   10  C   UNL     1      44.872 -20.433   3.967  1.00  0.00     0.000 A 
HETATM   11  C   UNL     1      44.618 -19.404   4.870  1.00  0.00     0.001 A 
HETATM   12  C   UNL     1      43.928 -18.259   4.455  1.00  0.00     0.014 A 
ENDBRANCH   4   7
BRANCH   6  13
HETATM   13  C   UNL     1      40.162 -14.894   1.055  1.00  0.00    -0.008 A 
HETATM   14  C   UNL     1      38.902 -14.823   1.660  1.00  0.00     0.014 A 
HETATM   15  C   UNL     1      37.827 -14.234   0.989  1.00  0.00     0.001 A 
HETATM   16  C   UNL     1      38.007 -13.699  -0.286  1.00  0.00     0.000 A 
HETATM   17  C   UNL     1      39.261 -13.747  -0.889  1.00  0.00     0.001 A 
HETATM   18  C   UNL     1      40.334 -14.340  -0.221  1.00  0.00     0.014 A 
ENDBRANCH   6  13
ENDBRANCH   1   2
BRANCH   1  19
HETATM   19  C   UNL     1      41.235 -13.020   3.807  1.00  0.00     0.126 C 
BRANCH  19  20
HETATM   20  C   UNL     1      41.833 -12.574   5.121  1.00  0.00     0.239 C 
HETATM   21  N   UNL     1      41.225 -11.457   5.663  1.00  0.00    -0.246 N 
HETATM   22  H   UNL     1      40.354 -11.090   5.270  1.00  0.00     0.192 HD
HETATM   23  O   UNL     1      42.790 -13.174   5.609  1.00  0.00    -0.272 OA
BRANCH  21  24
HETATM   24  N   UNL     1      41.691 -10.931   6.832  1.00  0.00    -0.166 NA
HETATM   25  C   UNL     1      40.937 -11.073   7.874  1.00  0.00     0.157 A 
HETATM   26  C   UNL     1      39.550 -11.717   7.980  1.00  0.00     0.277 A 
HETATM   27  C   UNL     1      41.260 -10.605   9.216  1.00  0.00     0.027 A 
HETATM   28  O   UNL     1      38.912 -12.163   7.049  1.00  0.00    -0.266 OA
HETATM   29  N   UNL     1      39.197 -11.620   9.308  1.00  0.00    -0.321 N 
HETATM   30  C   UNL     1      40.188 -10.960  10.032  1.00  0.00     0.048 A 
HETATM   31  H   UNL     1      38.321 -11.961   9.674  1.00  0.00     0.169 HD
HETATM   32  C   UNL     1      40.175 -10.642  11.373  1.00  0.00     0.030 A 
HETATM   33  C   UNL     1      41.282  -9.948  11.879  1.00  0.00     0.002 A 
HETATM   34  C   UNL     1      42.365  -9.594  11.047  1.00  0.00     0.001 A 
HETATM   35  C   UNL     1      42.362  -9.925   9.690  1.00  0.00     0.016 A 
ENDBRANCH  21  24
ENDBRANCH  19  20
ENDBRANCH   1  19
TORSDOF 6
ENDMDL
MODEL 9
REMARK VINA RESULT:      -9.0      6.184      9.653
REMARK  6 active torsions:
REMARK  status: ('A' for Active; 'I' for Inactive)
REMARK    1  A    between atoms: C_4  and  C_5 
REMARK    2  A    between atoms: N_7  and  C_8 
REMARK    3  A    between atoms: C_8  and  C_9 
REMARK    4  A    between atoms: C_9  and  C_10 
REMARK       I    between atoms: C_10  and  N_11 
REMARK    5  A    between atoms: N_11  and  N_12 
REMARK    6  A    between atoms: C_24  and  C_25 
ROOT
HETATM    1  C   UNL     1      40.669 -15.803   1.402  1.00  0.00     0.161 C 
ENDROOT
BRANCH   1   2
HETATM    2  N   UNL     1      41.431 -16.584   2.365  1.00  0.00    -0.268 N 
HETATM    3  N   UNL     1      41.917 -17.773   1.968  1.00  0.00    -0.172 NA
HETATM    4  C   UNL     1      42.638 -18.225   3.006  1.00  0.00     0.089 A 
HETATM    5  C   UNL     1      42.603 -17.280   4.064  1.00  0.00     0.066 A 
HETATM    6  C   UNL     1      41.824 -16.223   3.631  1.00  0.00     0.065 A 
BRANCH   4   7
HETATM    7  C   UNL     1      43.349 -19.510   2.950  1.00  0.00    -0.006 A 
HETATM    8  C   UNL     1      44.188 -19.904   4.004  1.00  0.00     0.014 A 
HETATM    9  C   UNL     1      44.871 -21.123   3.963  1.00  0.00     0.001 A 
HETATM   10  C   UNL     1      44.723 -21.968   2.866  1.00  0.00     0.000 A 
HETATM   11  C   UNL     1      43.891 -21.594   1.812  1.00  0.00     0.001 A 
HETATM   12  C   UNL     1      43.209 -20.373   1.854  1.00  0.00     0.014 A 
ENDBRANCH   4   7
BRANCH   6  13
HETATM   13  C   UNL     1      41.547 -14.953   4.293  1.00  0.00    -0.008 A 
HETATM   14  C   UNL     1      42.362 -13.832   4.097  1.00  0.00     0.014 A 
HETATM   15  C   UNL     1      42.080 -12.630   4.751  1.00  0.00     0.001 A 
HETATM   16  C   UNL     1      40.974 -12.535   5.593  1.00  0.00     0.000 A 
HETATM   17  C   UNL     1      40.144 -13.638   5.779  1.00  0.00     0.001 A 
HETATM   18  C   UNL     1      40.429 -14.841   5.130  1.00  0.00     0.014 A 
ENDBRANCH   6  13
ENDBRANCH   1   2
BRANCH   1  19
HETATM   19  C   UNL     1      41.229 -15.903  -0.006  1.00  0.00     0.126 C 
BRANCH  19  20
HETATM   20  C   UNL     1      41.612 -14.543  -0.542  1.00  0.00     0.239 C 
HETATM   21  N   UNL     1      41.770 -14.507  -1.915  1.00  0.00    -0.246 N 
HETATM   22  H   UNL     1      41.489 -15.300  -2.498  1.00  0.00     0.192 HD
HETATM   23  O   UNL     1      41.777 -13.593   0.221  1.00  0.00    -0.272 OA
BRANCH  21  24
HETATM   24  N   UNL     1      42.148 -13.346  -2.524  1.00  0.00    -0.166 NA
HETATM   25  C   UNL     1      41.242 -12.728  -3.210  1.00  0.00     0.157 A 
HETATM   26  C   UNL     1      39.791 -13.141  -3.483  1.00  0.00     0.277 A 
HETATM   27  C   UNL     1      41.434 -11.467  -3.916  1.00  0.00     0.027 A 
HETATM   28  O   UNL     1      39.276 -14.177  -3.117  1.00  0.00    -0.266 OA
HETATM   29  N   UNL     1      39.257 -12.130  -4.253  1.00  0.00    -0.321 N 
HETATM   30  C   UNL     1      40.217 -11.157  -4.519  1.00  0.00     0.048 A 
HETATM   31  H   UNL     1      38.307 -12.135  -4.591  1.00  0.00     0.169 HD
HETATM   32  C   UNL     1      40.070 -10.020  -5.285  1.00  0.00     0.030 A 
HETATM   33  C   UNL     1      41.192  -9.194  -5.431  1.00  0.00     0.002 A 
HETATM   34  C   UNL     1      42.420  -9.515  -4.816  1.00  0.00     0.001 A 
HETATM   35  C   UNL     1      42.553 -10.670  -4.042  1.00  0.00     0.016 A 
ENDBRANCH  21  24
ENDBRANCH  19  20
ENDBRANCH   1  19
TORSDOF 6
ENDMDL
MODEL 10
REMARK VINA RESULT:      -9.0      2.804      5.228
REMARK  6 active torsions:
REMARK  status: ('A' for Active; 'I' for Inactive)
REMARK    1  A    between atoms: C_4  and  C_5 
REMARK    2  A    between atoms: N_7  and  C_8 
REMARK    3  A    between atoms: C_8  and  C_9 
REMARK    4  A    between atoms: C_9  and  C_10 
REMARK       I    between atoms: C_10  and  N_11 
REMARK    5  A    between atoms: N_11  and  N_12 
REMARK    6  A    between atoms: C_24  and  C_25 
ROOT
HETATM    1  C   UNL     1      42.169 -15.078   5.491  1.00  0.00     0.161 C 
ENDROOT
BRANCH   1   2
HETATM    2  N   UNL     1      41.600 -15.587   4.253  1.00  0.00    -0.268 N 
HETATM    3  N   UNL     1      40.833 -14.758   3.524  1.00  0.00    -0.172 NA
HETATM    4  C   UNL     1      40.522 -15.446   2.414  1.00  0.00     0.089 A 
HETATM    5  C   UNL     1      41.126 -16.729   2.459  1.00  0.00     0.066 A 
HETATM    6  C   UNL     1      41.823 -16.802   3.650  1.00  0.00     0.065 A 
BRANCH   4   7
HETATM    7  C   UNL     1      39.695 -14.861   1.349  1.00  0.00    -0.006 A 
HETATM    8  C   UNL     1      38.329 -14.620   1.562  1.00  0.00     0.014 A 
HETATM    9  C   UNL     1      37.532 -14.064   0.556  1.00  0.00     0.001 A 
HETATM   10  C   UNL     1      38.092 -13.740  -0.677  1.00  0.00     0.000 A 
HETATM   11  C   UNL     1      39.447 -13.968  -0.904  1.00  0.00     0.001 A 
HETATM   12  C   UNL     1      40.243 -14.526   0.102  1.00  0.00     0.014 A 
ENDBRANCH   4   7
BRANCH   6  13
HETATM   13  C   UNL     1      42.695 -17.863   4.143  1.00  0.00    -0.008 A 
HETATM   14  C   UNL     1      43.633 -18.485   3.311  1.00  0.00     0.014 A 
HETATM   15  C   UNL     1      44.448 -19.506   3.805  1.00  0.00     0.001 A 
HETATM   16  C   UNL     1      44.343 -19.903   5.137  1.00  0.00     0.000 A 
HETATM   17  C   UNL     1      43.428 -19.277   5.978  1.00  0.00     0.001 A 
HETATM   18  C   UNL     1      42.608 -18.260   5.484  1.00  0.00     0.014 A 
ENDBRANCH   6  13
ENDBRANCH   1   2
BRANCH   1  19
HETATM   19  C   UNL     1      42.846 -13.731   5.314  1.00  0.00     0.126 C 
BRANCH  19  20
HETATM   20  C   UNL     1      42.224 -12.682   6.205  1.00  0.00     0.239 C 
HETATM   21  N   UNL     1      43.063 -12.226   7.205  1.00  0.00    -0.246 N 
HETATM   22  H   UNL     1      44.056 -12.477   7.212  1.00  0.00     0.192 HD
HETATM   23  O   UNL     1      41.062 -12.318   6.027  1.00  0.00    -0.272 OA
BRANCH  21  24
HETATM   24  N   UNL     1      42.613 -11.301   8.100  1.00  0.00    -0.166 NA
HETATM   25  C   UNL     1      43.217 -11.257   9.243  1.00  0.00     0.157 A 
HETATM   26  C   UNL     1      44.354 -12.141   9.767  1.00  0.00     0.277 A 
HETATM   27  C   UNL     1      42.904 -10.331  10.325  1.00  0.00     0.027 A 
HETATM   28  O   UNL     1      44.841 -13.081   9.174  1.00  0.00    -0.266 OA
HETATM   29  N   UNL     1      44.637 -11.670  11.031  1.00  0.00    -0.321 N 
HETATM   30  C   UNL     1      43.784 -10.621  11.366  1.00  0.00     0.048 A 
HETATM   31  H   UNL     1      45.348 -12.070  11.624  1.00  0.00     0.169 HD
HETATM   32  C   UNL     1      43.737  -9.925  12.555  1.00  0.00     0.030 A 
HETATM   33  C   UNL     1      42.770  -8.918  12.672  1.00  0.00     0.002 A 
HETATM   34  C   UNL     1      41.884  -8.629  11.613  1.00  0.00     0.001 A 
HETATM   35  C   UNL     1      41.946  -9.344  10.414  1.00  0.00     0.016 A 
ENDBRANCH  21  24
ENDBRANCH  19  20
ENDBRANCH   1  19
TORSDOF 6
ENDMDL
