MODEL 1
REMARK VINA RESULT:      -8.8      0.000      0.000
REMARK  3 active torsions:
REMARK  status: ('A' for Active; 'I' for Inactive)
REMARK    1  A    between atoms: C_2  and  O_3 
REMARK    2  A    between atoms: O_3  and  C_4 
REMARK    3  A    between atoms: C_5  and  N_6 
REMARK       I    between atoms: N_6  and  C_7 
REMARK       I    between atoms: C_7  and  N_8 
ROOT
HETATM    1  N   UNL     1      42.185 -18.297   2.327  1.00  0.00    -0.306 N 
HETATM    2  C   UNL     1      42.373 -17.301   1.399  1.00  0.00     0.323 C 
HETATM    3  N   UNL     1      41.268 -16.482   1.176  1.00  0.00    -0.328 N 
HETATM    4  C   UNL     1      41.310 -15.727  -0.085  1.00  0.00     0.185 C 
HETATM    5  C   UNL     1      40.237 -14.703  -0.126  1.00  0.00     0.035 A 
HETATM    6  C   UNL     1      39.304 -14.432   0.849  1.00  0.00    -0.020 A 
HETATM    7  C   UNL     1      39.303 -15.193   2.122  1.00  0.00     0.061 C 
HETATM    8  C   UNL     1      39.986 -16.561   1.913  1.00  0.00     0.132 C 
HETATM    9  N   UNL     1      40.012 -13.858  -1.177  1.00  0.00    -0.357 N 
HETATM   10  H   UNL     1      40.546 -13.827  -2.035  1.00  0.00     0.166 HD
HETATM   11  C   UNL     1      38.941 -13.036  -0.895  1.00  0.00     0.043 A 
HETATM   12  C   UNL     1      38.480 -13.374   0.381  1.00  0.00    -0.001 A 
HETATM   13  C   UNL     1      38.355 -12.027  -1.668  1.00  0.00     0.030 A 
HETATM   14  C   UNL     1      37.271 -11.338  -1.118  1.00  0.00     0.002 A 
HETATM   15  C   UNL     1      36.792 -11.648   0.153  1.00  0.00     0.001 A 
HETATM   16  C   UNL     1      37.387 -12.662   0.913  1.00  0.00     0.014 A 
HETATM   17  O   UNL     1      43.417 -17.147   0.767  1.00  0.00    -0.247 OA
HETATM   18  H   UNL     1      41.246 -18.659   2.418  1.00  0.00     0.171 HD
ENDROOT
BRANCH   1  19
HETATM   19  C   UNL     1      43.176 -19.187   2.810  1.00  0.00     0.072 A 
HETATM   20  C   UNL     1      43.758 -18.895   4.065  1.00  0.00     0.096 A 
HETATM   21  C   UNL     1      44.724 -19.756   4.593  1.00  0.00     0.042 A 
HETATM   22  C   UNL     1      45.130 -20.880   3.869  1.00  0.00     0.045 A 
HETATM   23  C   UNL     1      44.570 -21.139   2.626  1.00  0.00     0.118 A 
HETATM   24  C   UNL     1      43.598 -20.305   2.089  1.00  0.00     0.074 A 
HETATM   25  F   UNL     1      44.980 -22.211   1.933  1.00  0.00    -0.206 F 
BRANCH  20  26
HETATM   26  O   UNL     1      43.283 -17.759   4.676  1.00  0.00    -0.344 OA
BRANCH  26  27
HETATM   27  C   UNL     1      42.459 -17.875   5.842  1.00  0.00     0.121 C 
HETATM   28  C   UNL     1      41.144 -17.131   5.624  1.00  0.00     0.040 C 
HETATM   29  C   UNL     1      43.235 -17.236   6.992  1.00  0.00     0.040 C 
ENDBRANCH  26  27
ENDBRANCH  20  26
ENDBRANCH   1  19
TORSDOF 3
ENDMDL
MODEL 2
REMARK VINA RESULT:      -8.8      3.398      9.018
REMARK  3 active torsions:
REMARK  status: ('A' for Active; 'I' for Inactive)
REMARK    1  A    between atoms: C_2  and  O_3 
REMARK    2  A    between atoms: O_3  and  C_4 
REMARK    3  A    between atoms: C_5  and  N_6 
REMARK       I    between atoms: N_6  and  C_7 
REMARK       I    between atoms: C_7  and  N_8 
ROOT
HETATM    1  N   UNL     1      39.290 -14.856   0.682  1.00  0.00    -0.306 N 
HETATM    2  C   UNL     1      39.906 -14.899   1.909  1.00  0.00     0.323 C 
HETATM    3  N   UNL     1      40.649 -16.050   2.160  1.00  0.00    -0.328 N 
HETATM    4  C   UNL     1      40.933 -16.300   3.581  1.00  0.00     0.185 C 
HETATM    5  C   UNL     1      41.929 -17.388   3.740  1.00  0.00     0.035 A 
HETATM    6  C   UNL     1      42.553 -18.102   2.741  1.00  0.00    -0.020 A 
HETATM    7  C   UNL     1      42.266 -17.809   1.316  1.00  0.00     0.061 C 
HETATM    8  C   UNL     1      40.878 -17.145   1.188  1.00  0.00     0.132 C 
HETATM    9  N   UNL     1      42.380 -17.856   4.942  1.00  0.00    -0.357 N 
HETATM   10  H   UNL     1      42.096 -17.517   5.852  1.00  0.00     0.166 HD
HETATM   11  C   UNL     1      43.294 -18.868   4.737  1.00  0.00     0.043 A 
HETATM   12  C   UNL     1      43.426 -19.038   3.356  1.00  0.00    -0.001 A 
HETATM   13  C   UNL     1      44.008 -19.635   5.665  1.00  0.00     0.030 A 
HETATM   14  C   UNL     1      44.889 -20.599   5.167  1.00  0.00     0.002 A 
HETATM   15  C   UNL     1      45.046 -20.788   3.796  1.00  0.00     0.001 A 
HETATM   16  C   UNL     1      44.322 -20.015   2.880  1.00  0.00     0.014 A 
HETATM   17  O   UNL     1      39.793 -14.018   2.760  1.00  0.00    -0.247 OA
HETATM   18  H   UNL     1      39.021 -15.743   0.279  1.00  0.00     0.171 HD
ENDROOT
BRANCH   1  19
HETATM   19  C   UNL     1      38.573 -13.758   0.145  1.00  0.00     0.072 A 
HETATM   20  C   UNL     1      39.116 -13.119  -0.994  1.00  0.00     0.096 A 
HETATM   21  C   UNL     1      38.432 -12.045  -1.572  1.00  0.00     0.042 A 
HETATM   22  C   UNL     1      37.237 -11.592  -1.009  1.00  0.00     0.045 A 
HETATM   23  C   UNL     1      36.730 -12.210   0.126  1.00  0.00     0.118 A 
HETATM   24  C   UNL     1      37.385 -13.288   0.708  1.00  0.00     0.074 A 
HETATM   25  F   UNL     1      35.592 -11.755   0.668  1.00  0.00    -0.206 F 
BRANCH  20  26
HETATM   26  O   UNL     1      40.298 -13.651  -1.451  1.00  0.00    -0.344 OA
BRANCH  26  27
HETATM   27  C   UNL     1      40.368 -14.185  -2.778  1.00  0.00     0.121 C 
HETATM   28  C   UNL     1      40.816 -15.644  -2.726  1.00  0.00     0.040 C 
HETATM   29  C   UNL     1      41.397 -13.349  -3.533  1.00  0.00     0.040 C 
ENDBRANCH  26  27
ENDBRANCH  20  26
ENDBRANCH   1  19
TORSDOF 3
ENDMDL
MODEL 3
REMARK VINA RESULT:      -8.6      3.466      8.839
REMARK  3 active torsions:
REMARK  status: ('A' for Active; 'I' for Inactive)
REMARK    1  A    between atoms: C_2  and  O_3 
REMARK    2  A    between atoms: O_3  and  C_4 
REMARK    3  A    between atoms: C_5  and  N_6 
REMARK       I    between atoms: N_6  and  C_7 
REMARK       I    between atoms: C_7  and  N_8 
ROOT
HETATM    1  N   UNL     1      41.864 -13.880   0.289  1.00  0.00    -0.306 N 
HETATM    2  C   UNL     1      42.486 -14.115   1.491  1.00  0.00     0.323 C 
HETATM    3  N   UNL     1      42.692 -15.458   1.801  1.00  0.00    -0.328 N 
HETATM    4  C   UNL     1      42.940 -15.728   3.225  1.00  0.00     0.185 C 
HETATM    5  C   UNL     1      43.394 -17.126   3.428  1.00  0.00     0.035 A 
HETATM    6  C   UNL     1      43.591 -18.089   2.464  1.00  0.00    -0.020 A 
HETATM    7  C   UNL     1      43.358 -17.779   1.033  1.00  0.00     0.061 C 
HETATM    8  C   UNL     1      42.373 -16.596   0.908  1.00  0.00     0.132 C 
HETATM    9  N   UNL     1      43.686 -17.676   4.645  1.00  0.00    -0.357 N 
HETATM   10  H   UNL     1      43.634 -17.200   5.536  1.00  0.00     0.166 HD
HETATM   11  C   UNL     1      44.074 -18.989   4.483  1.00  0.00     0.043 A 
HETATM   12  C   UNL     1      44.029 -19.272   3.115  1.00  0.00    -0.001 A 
HETATM   13  C   UNL     1      44.461 -19.936   5.439  1.00  0.00     0.030 A 
HETATM   14  C   UNL     1      44.818 -21.207   4.983  1.00  0.00     0.002 A 
HETATM   15  C   UNL     1      44.788 -21.518   3.625  1.00  0.00     0.001 A 
HETATM   16  C   UNL     1      44.397 -20.561   2.681  1.00  0.00     0.014 A 
HETATM   17  O   UNL     1      42.812 -13.225   2.275  1.00  0.00    -0.247 OA
HETATM   18  H   UNL     1      41.221 -14.589  -0.033  1.00  0.00     0.171 HD
ENDROOT
BRANCH   1  19
HETATM   19  C   UNL     1      41.640 -12.612  -0.303  1.00  0.00     0.072 A 
HETATM   20  C   UNL     1      40.334 -12.078  -0.224  1.00  0.00     0.096 A 
HETATM   21  C   UNL     1      40.070 -10.820  -0.774  1.00  0.00     0.042 A 
HETATM   22  C   UNL     1      41.085 -10.113  -1.422  1.00  0.00     0.045 A 
HETATM   23  C   UNL     1      42.356 -10.662  -1.517  1.00  0.00     0.118 A 
HETATM   24  C   UNL     1      42.645 -11.903  -0.965  1.00  0.00     0.074 A 
HETATM   25  F   UNL     1      43.318  -9.982  -2.156  1.00  0.00    -0.206 F 
BRANCH  20  26
HETATM   26  O   UNL     1      39.420 -12.870   0.430  1.00  0.00    -0.344 OA
BRANCH  26  27
HETATM   27  C   UNL     1      38.166 -13.167  -0.194  1.00  0.00     0.121 C 
HETATM   28  C   UNL     1      37.292 -13.980   0.759  1.00  0.00     0.040 C 
HETATM   29  C   UNL     1      38.481 -13.987  -1.442  1.00  0.00     0.040 C 
ENDBRANCH  26  27
ENDBRANCH  20  26
ENDBRANCH   1  19
TORSDOF 3
ENDMDL
MODEL 4
REMARK VINA RESULT:      -8.5      3.952      8.917
REMARK  3 active torsions:
REMARK  status: ('A' for Active; 'I' for Inactive)
REMARK    1  A    between atoms: C_2  and  O_3 
REMARK    2  A    between atoms: O_3  and  C_4 
REMARK    3  A    between atoms: C_5  and  N_6 
REMARK       I    between atoms: N_6  and  C_7 
REMARK       I    between atoms: C_7  and  N_8 
ROOT
HETATM    1  N   UNL     1      41.649 -13.503   1.949  1.00  0.00    -0.306 N 
HETATM    2  C   UNL     1      42.620 -14.092   2.721  1.00  0.00     0.323 C 
HETATM    3  N   UNL     1      42.672 -15.482   2.652  1.00  0.00    -0.328 N 
HETATM    4  C   UNL     1      43.380 -16.126   3.768  1.00  0.00     0.185 C 
HETATM    5  C   UNL     1      43.608 -17.566   3.492  1.00  0.00     0.035 A 
HETATM    6  C   UNL     1      43.245 -18.268   2.363  1.00  0.00    -0.020 A 
HETATM    7  C   UNL     1      42.555 -17.585   1.243  1.00  0.00     0.061 C 
HETATM    8  C   UNL     1      41.835 -16.322   1.764  1.00  0.00     0.132 C 
HETATM    9  N   UNL     1      44.226 -18.432   4.350  1.00  0.00    -0.357 N 
HETATM   10  H   UNL     1      44.602 -18.194   5.259  1.00  0.00     0.166 HD
HETATM   11  C   UNL     1      44.273 -19.691   3.791  1.00  0.00     0.043 A 
HETATM   12  C   UNL     1      43.666 -19.613   2.534  1.00  0.00    -0.001 A 
HETATM   13  C   UNL     1      44.805 -20.881   4.301  1.00  0.00     0.030 A 
HETATM   14  C   UNL     1      44.721 -22.023   3.501  1.00  0.00     0.002 A 
HETATM   15  C   UNL     1      44.127 -21.976   2.241  1.00  0.00     0.001 A 
HETATM   16  C   UNL     1      43.596 -20.779   1.746  1.00  0.00     0.014 A 
HETATM   17  O   UNL     1      43.376 -13.464   3.462  1.00  0.00    -0.247 OA
HETATM   18  H   UNL     1      40.811 -14.044   1.786  1.00  0.00     0.171 HD
ENDROOT
BRANCH   1  19
HETATM   19  C   UNL     1      41.460 -12.111   1.760  1.00  0.00     0.072 A 
HETATM   20  C   UNL     1      41.924 -11.550   0.548  1.00  0.00     0.096 A 
HETATM   21  C   UNL     1      41.741 -10.185   0.308  1.00  0.00     0.042 A 
HETATM   22  C   UNL     1      41.130  -9.380   1.272  1.00  0.00     0.045 A 
HETATM   23  C   UNL     1      40.705  -9.939   2.469  1.00  0.00     0.118 A 
HETATM   24  C   UNL     1      40.863 -11.296   2.724  1.00  0.00     0.074 A 
HETATM   25  F   UNL     1      40.136  -9.154   3.395  1.00  0.00    -0.206 F 
BRANCH  20  26
HETATM   26  O   UNL     1      42.514 -12.440  -0.317  1.00  0.00    -0.344 OA
BRANCH  26  27
HETATM   27  C   UNL     1      41.838 -12.805  -1.526  1.00  0.00     0.121 C 
HETATM   28  C   UNL     1      41.338 -14.244  -1.426  1.00  0.00     0.040 C 
HETATM   29  C   UNL     1      42.860 -12.685  -2.653  1.00  0.00     0.040 C 
ENDBRANCH  26  27
ENDBRANCH  20  26
ENDBRANCH   1  19
TORSDOF 3
ENDMDL
MODEL 5
REMARK VINA RESULT:      -8.3      2.286      3.528
REMARK  3 active torsions:
REMARK  status: ('A' for Active; 'I' for Inactive)
REMARK    1  A    between atoms: C_2  and  O_3 
REMARK    2  A    between atoms: O_3  and  C_4 
REMARK    3  A    between atoms: C_5  and  N_6 
REMARK       I    between atoms: N_6  and  C_7 
REMARK       I    between atoms: C_7  and  N_8 
ROOT
HETATM    1  N   UNL     1      41.981 -17.139   4.331  1.00  0.00    -0.306 N 
HETATM    2  C   UNL     1      42.539 -16.386   3.326  1.00  0.00     0.323 C 
HETATM    3  N   UNL     1      41.657 -15.983   2.327  1.00  0.00    -0.328 N 
HETATM    4  C   UNL     1      42.299 -15.574   1.069  1.00  0.00     0.185 C 
HETATM    5  C   UNL     1      41.322 -14.927   0.159  1.00  0.00     0.035 A 
HETATM    6  C   UNL     1      39.985 -14.696   0.397  1.00  0.00    -0.020 A 
HETATM    7  C   UNL     1      39.371 -15.096   1.686  1.00  0.00     0.061 C 
HETATM    8  C   UNL     1      40.196 -16.232   2.329  1.00  0.00     0.132 C 
HETATM    9  N   UNL     1      41.619 -14.458  -1.090  1.00  0.00    -0.357 N 
HETATM   10  H   UNL     1      42.528 -14.490  -1.532  1.00  0.00     0.166 HD
HETATM   11  C   UNL     1      40.488 -13.921  -1.668  1.00  0.00     0.043 A 
HETATM   12  C   UNL     1      39.445 -14.052  -0.747  1.00  0.00    -0.001 A 
HETATM   13  C   UNL     1      40.316 -13.331  -2.926  1.00  0.00     0.030 A 
HETATM   14  C   UNL     1      39.043 -12.855  -3.249  1.00  0.00     0.002 A 
HETATM   15  C   UNL     1      37.985 -12.968  -2.350  1.00  0.00     0.001 A 
HETATM   16  C   UNL     1      38.171 -13.563  -1.097  1.00  0.00     0.014 A 
HETATM   17  O   UNL     1      43.736 -16.109   3.267  1.00  0.00    -0.247 OA
HETATM   18  H   UNL     1      41.189 -17.713   4.079  1.00  0.00     0.171 HD
ENDROOT
BRANCH   1  19
HETATM   19  C   UNL     1      42.635 -17.577   5.509  1.00  0.00     0.072 A 
HETATM   20  C   UNL     1      43.253 -18.849   5.477  1.00  0.00     0.096 A 
HETATM   21  C   UNL     1      43.929 -19.314   6.609  1.00  0.00     0.042 A 
HETATM   22  C   UNL     1      43.967 -18.538   7.770  1.00  0.00     0.045 A 
HETATM   23  C   UNL     1      43.332 -17.304   7.796  1.00  0.00     0.118 A 
HETATM   24  C   UNL     1      42.667 -16.815   6.679  1.00  0.00     0.074 A 
HETATM   25  F   UNL     1      43.360 -16.576   8.921  1.00  0.00    -0.206 F 
BRANCH  20  26
HETATM   26  O   UNL     1      43.141 -19.520   4.283  1.00  0.00    -0.344 OA
BRANCH  26  27
HETATM   27  C   UNL     1      44.303 -19.711   3.467  1.00  0.00     0.121 C 
HETATM   28  C   UNL     1      43.974 -19.384   2.013  1.00  0.00     0.040 C 
HETATM   29  C   UNL     1      44.692 -21.181   3.597  1.00  0.00     0.040 C 
ENDBRANCH  26  27
ENDBRANCH  20  26
ENDBRANCH   1  19
TORSDOF 3
ENDMDL
MODEL 6
REMARK VINA RESULT:      -8.3      5.859      9.237
REMARK  3 active torsions:
REMARK  status: ('A' for Active; 'I' for Inactive)
REMARK    1  A    between atoms: C_2  and  O_3 
REMARK    2  A    between atoms: O_3  and  C_4 
REMARK    3  A    between atoms: C_5  and  N_6 
REMARK       I    between atoms: N_6  and  C_7 
REMARK       I    between atoms: C_7  and  N_8 
ROOT
HETATM    1  N   UNL     1      42.258 -12.389   6.737  1.00  0.00    -0.306 N 
HETATM    2  C   UNL     1      41.806 -13.162   5.695  1.00  0.00     0.323 C 
HETATM    3  N   UNL     1      42.533 -14.326   5.460  1.00  0.00    -0.328 N 
HETATM    4  C   UNL     1      42.343 -14.910   4.124  1.00  0.00     0.185 C 
HETATM    5  C   UNL     1      42.945 -16.264   4.047  1.00  0.00     0.035 A 
HETATM    6  C   UNL     1      43.595 -16.948   5.049  1.00  0.00    -0.020 A 
HETATM    7  C   UNL     1      43.749 -16.344   6.394  1.00  0.00     0.061 C 
HETATM    8  C   UNL     1      43.663 -14.806   6.290  1.00  0.00     0.132 C 
HETATM    9  N   UNL     1      42.943 -17.049   2.928  1.00  0.00    -0.357 N 
HETATM   10  H   UNL     1      42.532 -16.806   2.036  1.00  0.00     0.166 HD
HETATM   11  C   UNL     1      43.585 -18.240   3.192  1.00  0.00     0.043 A 
HETATM   12  C   UNL     1      44.000 -18.205   4.526  1.00  0.00    -0.001 A 
HETATM   13  C   UNL     1      43.823 -19.338   2.355  1.00  0.00     0.030 A 
HETATM   14  C   UNL     1      44.498 -20.433   2.900  1.00  0.00     0.002 A 
HETATM   15  C   UNL     1      44.920 -20.428   4.228  1.00  0.00     0.001 A 
HETATM   16  C   UNL     1      44.678 -19.322   5.051  1.00  0.00     0.014 A 
HETATM   17  O   UNL     1      40.856 -12.851   4.978  1.00  0.00    -0.247 OA
HETATM   18  H   UNL     1      43.248 -12.428   6.933  1.00  0.00     0.171 HD
ENDROOT
BRANCH   1  19
HETATM   19  C   UNL     1      41.633 -11.223   7.245  1.00  0.00     0.072 A 
HETATM   20  C   UNL     1      42.288 -10.538   8.295  1.00  0.00     0.096 A 
HETATM   21  C   UNL     1      41.721  -9.370   8.814  1.00  0.00     0.042 A 
HETATM   22  C   UNL     1      40.503  -8.902   8.316  1.00  0.00     0.045 A 
HETATM   23  C   UNL     1      39.857  -9.600   7.304  1.00  0.00     0.118 A 
HETATM   24  C   UNL     1      40.409 -10.755   6.763  1.00  0.00     0.074 A 
HETATM   25  F   UNL     1      38.680  -9.152   6.846  1.00  0.00    -0.206 F 
BRANCH  20  26
HETATM   26  O   UNL     1      43.474 -11.099   8.705  1.00  0.00    -0.344 OA
BRANCH  26  27
HETATM   27  C   UNL     1      44.036 -10.722   9.967  1.00  0.00     0.121 C 
HETATM   28  C   UNL     1      45.556 -10.853   9.917  1.00  0.00     0.040 C 
HETATM   29  C   UNL     1      43.462 -11.683  11.006  1.00  0.00     0.040 C 
ENDBRANCH  26  27
ENDBRANCH  20  26
ENDBRANCH   1  19
TORSDOF 3
ENDMDL
MODEL 7
REMARK VINA RESULT:      -8.2      2.778      2.934
REMARK  3 active torsions:
REMARK  status: ('A' for Active; 'I' for Inactive)
REMARK    1  A    between atoms: C_2  and  O_3 
REMARK    2  A    between atoms: O_3  and  C_4 
REMARK    3  A    between atoms: C_5  and  N_6 
REMARK       I    between atoms: N_6  and  C_7 
REMARK       I    between atoms: C_7  and  N_8 
ROOT
HETATM    1  N   UNL     1      42.494 -17.736   3.211  1.00  0.00    -0.306 N 
HETATM    2  C   UNL     1      42.960 -16.498   2.839  1.00  0.00     0.323 C 
HETATM    3  N   UNL     1      42.073 -15.444   3.043  1.00  0.00    -0.328 N 
HETATM    4  C   UNL     1      42.374 -14.230   2.269  1.00  0.00     0.185 C 
HETATM    5  C   UNL     1      41.546 -13.089   2.729  1.00  0.00     0.035 A 
HETATM    6  C   UNL     1      40.613 -13.088   3.742  1.00  0.00    -0.020 A 
HETATM    7  C   UNL     1      40.351 -14.320   4.523  1.00  0.00     0.061 C 
HETATM    8  C   UNL     1      40.747 -15.560   3.692  1.00  0.00     0.132 C 
HETATM    9  N   UNL     1      41.588 -11.833   2.189  1.00  0.00    -0.357 N 
HETATM   10  H   UNL     1      42.185 -11.538   1.428  1.00  0.00     0.166 HD
HETATM   11  C   UNL     1      40.694 -11.013   2.842  1.00  0.00     0.043 A 
HETATM   12  C   UNL     1      40.070 -11.779   3.832  1.00  0.00    -0.001 A 
HETATM   13  C   UNL     1      40.396  -9.661   2.634  1.00  0.00     0.030 A 
HETATM   14  C   UNL     1      39.439  -9.073   3.464  1.00  0.00     0.002 A 
HETATM   15  C   UNL     1      38.804  -9.809   4.462  1.00  0.00     0.001 A 
HETATM   16  C   UNL     1      39.110 -11.161   4.657  1.00  0.00     0.014 A 
HETATM   17  O   UNL     1      44.061 -16.312   2.323  1.00  0.00    -0.247 OA
HETATM   18  H   UNL     1      41.496 -17.880   3.148  1.00  0.00     0.171 HD
ENDROOT
BRANCH   1  19
HETATM   19  C   UNL     1      43.234 -18.944   3.207  1.00  0.00     0.072 A 
HETATM   20  C   UNL     1      44.037 -19.219   4.338  1.00  0.00     0.096 A 
HETATM   21  C   UNL     1      44.768 -20.410   4.389  1.00  0.00     0.042 A 
HETATM   22  C   UNL     1      44.727 -21.304   3.317  1.00  0.00     0.045 A 
HETATM   23  C   UNL     1      43.956 -21.007   2.201  1.00  0.00     0.118 A 
HETATM   24  C   UNL     1      43.210 -19.838   2.134  1.00  0.00     0.074 A 
HETATM   25  F   UNL     1      43.938 -21.864   1.170  1.00  0.00    -0.206 F 
BRANCH  20  26
HETATM   26  O   UNL     1      44.002 -18.262   5.323  1.00  0.00    -0.344 OA
BRANCH  26  27
HETATM   27  C   UNL     1      43.257 -18.507   6.522  1.00  0.00     0.121 C 
HETATM   28  C   UNL     1      42.341 -17.321   6.815  1.00  0.00     0.040 C 
HETATM   29  C   UNL     1      44.276 -18.670   7.646  1.00  0.00     0.040 C 
ENDBRANCH  26  27
ENDBRANCH  20  26
ENDBRANCH   1  19
TORSDOF 3
ENDMDL
MODEL 8
REMARK VINA RESULT:      -8.1      1.252      1.853
REMARK  3 active torsions:
REMARK  status: ('A' for Active; 'I' for Inactive)
REMARK    1  A    between atoms: C_2  and  O_3 
REMARK    2  A    between atoms: O_3  and  C_4 
REMARK    3  A    between atoms: C_5  and  N_6 
REMARK       I    between atoms: N_6  and  C_7 
REMARK       I    between atoms: C_7  and  N_8 
ROOT
HETATM    1  N   UNL     1      42.743 -17.278   2.206  1.00  0.00    -0.306 N 
HETATM    2  C   UNL     1      41.421 -16.966   2.411  1.00  0.00     0.323 C 
HETATM    3  N   UNL     1      40.934 -15.912   1.642  1.00  0.00    -0.328 N 
HETATM    4  C   UNL     1      39.698 -15.300   2.151  1.00  0.00     0.185 C 
HETATM    5  C   UNL     1      39.116 -14.369   1.153  1.00  0.00     0.035 A 
HETATM    6  C   UNL     1      39.604 -14.078  -0.101  1.00  0.00    -0.020 A 
HETATM    7  C   UNL     1      40.839 -14.731  -0.598  1.00  0.00     0.061 C 
HETATM    8  C   UNL     1      41.701 -15.196   0.595  1.00  0.00     0.132 C 
HETATM    9  N   UNL     1      37.977 -13.638   1.347  1.00  0.00    -0.357 N 
HETATM   10  H   UNL     1      37.402 -13.651   2.179  1.00  0.00     0.166 HD
HETATM   11  C   UNL     1      37.716 -12.875   0.229  1.00  0.00     0.043 A 
HETATM   12  C   UNL     1      38.724 -13.139  -0.703  1.00  0.00    -0.001 A 
HETATM   13  C   UNL     1      36.668 -11.981  -0.024  1.00  0.00     0.030 A 
HETATM   14  C   UNL     1      36.647 -11.343  -1.267  1.00  0.00     0.002 A 
HETATM   15  C   UNL     1      37.635 -11.590  -2.217  1.00  0.00     0.001 A 
HETATM   16  C   UNL     1      38.678 -12.485  -1.949  1.00  0.00     0.014 A 
HETATM   17  O   UNL     1      40.707 -17.532   3.237  1.00  0.00    -0.247 OA
HETATM   18  H   UNL     1      43.349 -16.519   1.927  1.00  0.00     0.171 HD
ENDROOT
BRANCH   1  19
HETATM   19  C   UNL     1      43.443 -18.369   2.779  1.00  0.00     0.072 A 
HETATM   20  C   UNL     1      43.924 -18.214   4.099  1.00  0.00     0.096 A 
HETATM   21  C   UNL     1      44.602 -19.271   4.714  1.00  0.00     0.042 A 
HETATM   22  C   UNL     1      44.825 -20.460   4.015  1.00  0.00     0.045 A 
HETATM   23  C   UNL     1      44.371 -20.588   2.709  1.00  0.00     0.118 A 
HETATM   24  C   UNL     1      43.683 -19.556   2.084  1.00  0.00     0.074 A 
HETATM   25  F   UNL     1      44.606 -21.727   2.043  1.00  0.00    -0.206 F 
BRANCH  20  26
HETATM   26  O   UNL     1      43.650 -16.998   4.679  1.00  0.00    -0.344 OA
BRANCH  26  27
HETATM   27  C   UNL     1      43.303 -16.938   6.067  1.00  0.00     0.121 C 
HETATM   28  C   UNL     1      41.924 -16.304   6.230  1.00  0.00     0.040 C 
HETATM   29  C   UNL     1      44.360 -16.071   6.746  1.00  0.00     0.040 C 
ENDBRANCH  26  27
ENDBRANCH  20  26
ENDBRANCH   1  19
TORSDOF 3
ENDMDL
MODEL 9
REMARK VINA RESULT:      -8.1      4.353      8.796
REMARK  3 active torsions:
REMARK  status: ('A' for Active; 'I' for Inactive)
REMARK    1  A    between atoms: C_2  and  O_3 
REMARK    2  A    between atoms: O_3  and  C_4 
REMARK    3  A    between atoms: C_5  and  N_6 
REMARK       I    between atoms: N_6  and  C_7 
REMARK       I    between atoms: C_7  and  N_8 
ROOT
HETATM    1  N   UNL     1      40.971 -13.965   4.853  1.00  0.00    -0.306 N 
HETATM    2  C   UNL     1      42.091 -14.668   5.226  1.00  0.00     0.323 C 
HETATM    3  N   UNL     1      42.213 -15.934   4.658  1.00  0.00    -0.328 N 
HETATM    4  C   UNL     1      43.135 -16.837   5.364  1.00  0.00     0.185 C 
HETATM    5  C   UNL     1      43.399 -18.058   4.563  1.00  0.00     0.035 A 
HETATM    6  C   UNL     1      42.895 -18.366   3.319  1.00  0.00    -0.020 A 
HETATM    7  C   UNL     1      41.989 -17.424   2.621  1.00  0.00     0.061 C 
HETATM    8  C   UNL     1      41.292 -16.508   3.650  1.00  0.00     0.132 C 
HETATM    9  N   UNL     1      44.202 -19.089   4.964  1.00  0.00    -0.357 N 
HETATM   10  H   UNL     1      44.709 -19.136   5.838  1.00  0.00     0.166 HD
HETATM   11  C   UNL     1      44.229 -20.065   3.991  1.00  0.00     0.043 A 
HETATM   12  C   UNL     1      43.418 -19.631   2.939  1.00  0.00    -0.001 A 
HETATM   13  C   UNL     1      44.909 -21.289   3.966  1.00  0.00     0.030 A 
HETATM   14  C   UNL     1      44.761 -22.088   2.829  1.00  0.00     0.002 A 
HETATM   15  C   UNL     1      43.964 -21.679   1.763  1.00  0.00     0.001 A 
HETATM   16  C   UNL     1      43.288 -20.454   1.804  1.00  0.00     0.014 A 
HETATM   17  O   UNL     1      42.921 -14.250   6.032  1.00  0.00    -0.247 OA
HETATM   18  H   UNL     1      40.152 -14.509   4.623  1.00  0.00     0.171 HD
ENDROOT
BRANCH   1  19
HETATM   19  C   UNL     1      40.671 -12.625   5.201  1.00  0.00     0.072 A 
HETATM   20  C   UNL     1      41.017 -11.618   4.271  1.00  0.00     0.096 A 
HETATM   21  C   UNL     1      40.721 -10.282   4.561  1.00  0.00     0.042 A 
HETATM   22  C   UNL     1      40.115  -9.947   5.774  1.00  0.00     0.045 A 
HETATM   23  C   UNL     1      39.807 -10.943   6.690  1.00  0.00     0.118 A 
HETATM   24  C   UNL     1      40.078 -12.278   6.417  1.00  0.00     0.074 A 
HETATM   25  F   UNL     1      39.241 -10.608   7.858  1.00  0.00    -0.206 F 
BRANCH  20  26
HETATM   26  O   UNL     1      41.615 -12.070   3.119  1.00  0.00    -0.344 OA
BRANCH  26  27
HETATM   27  C   UNL     1      41.048 -11.732   1.848  1.00  0.00     0.121 C 
HETATM   28  C   UNL     1      39.699 -12.426   1.681  1.00  0.00     0.040 C 
HETATM   29  C   UNL     1      42.026 -12.229   0.786  1.00  0.00     0.040 C 
ENDBRANCH  26  27
ENDBRANCH  20  26
ENDBRANCH   1  19
TORSDOF 3
ENDMDL
MODEL 10
REMARK VINA RESULT:      -8.0      3.634      8.369
REMARK  3 active torsions:
REMARK  status: ('A' for Active; 'I' for Inactive)
REMARK    1  A    between atoms: C_2  and  O_3 
REMARK    2  A    between atoms: O_3  and  C_4 
REMARK    3  A    between atoms: C_5  and  N_6 
REMARK       I    between atoms: N_6  and  C_7 
REMARK       I    between atoms: C_7  and  N_8 
ROOT
HETATM    1  N   UNL     1      42.395 -13.937   1.869  1.00  0.00    -0.306 N 
HETATM    2  C   UNL     1      42.109 -15.186   1.374  1.00  0.00     0.323 C 
HETATM    3  N   UNL     1      42.781 -16.238   1.993  1.00  0.00    -0.328 N 
HETATM    4  C   UNL     1      42.823 -17.483   1.212  1.00  0.00     0.185 C 
HETATM    5  C   UNL     1      43.326 -18.610   2.036  1.00  0.00     0.035 A 
HETATM    6  C   UNL     1      43.708 -18.572   3.358  1.00  0.00    -0.020 A 
HETATM    7  C   UNL     1      43.629 -17.307   4.127  1.00  0.00     0.061 C 
HETATM    8  C   UNL     1      43.680 -16.104   3.162  1.00  0.00     0.132 C 
HETATM    9  N   UNL     1      43.493 -19.888   1.581  1.00  0.00    -0.357 N 
HETATM   10  H   UNL     1      43.291 -20.213   0.645  1.00  0.00     0.166 HD
HETATM   11  C   UNL     1      43.979 -20.685   2.596  1.00  0.00     0.043 A 
HETATM   12  C   UNL     1      44.116 -19.880   3.731  1.00  0.00    -0.001 A 
HETATM   13  C   UNL     1      44.300 -22.048   2.593  1.00  0.00     0.030 A 
HETATM   14  C   UNL     1      44.768 -22.606   3.785  1.00  0.00     0.002 A 
HETATM   15  C   UNL     1      44.911 -21.830   4.933  1.00  0.00     0.001 A 
HETATM   16  C   UNL     1      44.589 -20.467   4.920  1.00  0.00     0.014 A 
HETATM   17  O   UNL     1      41.349 -15.387   0.428  1.00  0.00    -0.247 OA
HETATM   18  H   UNL     1      43.320 -13.804   2.254  1.00  0.00     0.171 HD
ENDROOT
BRANCH   1  19
HETATM   19  C   UNL     1      41.769 -12.724   1.490  1.00  0.00     0.072 A 
HETATM   20  C   UNL     1      41.034 -12.033   2.480  1.00  0.00     0.096 A 
HETATM   21  C   UNL     1      40.416 -10.820   2.158  1.00  0.00     0.042 A 
HETATM   22  C   UNL     1      40.503 -10.314   0.860  1.00  0.00     0.045 A 
HETATM   23  C   UNL     1      41.204 -11.017  -0.110  1.00  0.00     0.118 A 
HETATM   24  C   UNL     1      41.838 -12.216   0.190  1.00  0.00     0.074 A 
HETATM   25  F   UNL     1      41.266 -10.530  -1.357  1.00  0.00    -0.206 F 
BRANCH  20  26
HETATM   26  O   UNL     1      41.015 -12.634   3.716  1.00  0.00    -0.344 OA
BRANCH  26  27
HETATM   27  C   UNL     1      39.800 -13.218   4.200  1.00  0.00     0.121 C 
HETATM   28  C   UNL     1      39.240 -12.376   5.344  1.00  0.00     0.040 C 
HETATM   29  C   UNL     1      40.155 -14.614   4.705  1.00  0.00     0.040 C 
ENDBRANCH  26  27
ENDBRANCH  20  26
ENDBRANCH   1  19
TORSDOF 3
ENDMDL
