MODEL 1
REMARK VINA RESULT:      -9.0      0.000      0.000
REMARK  3 active torsions:
REMARK  status: ('A' for Active; 'I' for Inactive)
REMARK    1  A    between atoms: C_4  and  C_5 
REMARK    2  A    between atoms: C_9  and  C_10 
REMARK       I    between atoms: C_10  and  N_11 
REMARK    3  A    between atoms: N_11  and  N_12 
ROOT
HETATM    1  C   UNL     1      45.138 -13.660   7.325  1.00  0.00     0.289 C 
HETATM    2  N   UNL     1      44.177 -14.656   7.357  1.00  0.00    -0.241 N 
HETATM    3  O   UNL     1      46.092 -13.649   6.550  1.00  0.00    -0.264 OA
HETATM    4  H   UNL     1      43.404 -14.616   8.021  1.00  0.00     0.192 HD
ENDROOT
BRANCH   2   5
HETATM    5  N   UNL     1      44.255 -15.713   6.490  1.00  0.00    -0.165 NA
HETATM    6  C   UNL     1      44.042 -16.890   6.981  1.00  0.00     0.157 A 
HETATM    7  C   UNL     1      43.708 -17.279   8.424  1.00  0.00     0.277 A 
HETATM    8  C   UNL     1      44.078 -18.137   6.229  1.00  0.00     0.028 A 
HETATM    9  O   UNL     1      43.594 -16.492   9.339  1.00  0.00    -0.266 OA
HETATM   10  N   UNL     1      43.579 -18.651   8.417  1.00  0.00    -0.321 N 
HETATM   11  C   UNL     1      43.795 -19.158   7.137  1.00  0.00     0.048 A 
HETATM   12  H   UNL     1      43.358 -19.191   9.240  1.00  0.00     0.169 HD
HETATM   13  C   UNL     1      43.752 -20.477   6.738  1.00  0.00     0.032 A 
HETATM   14  C   UNL     1      44.004 -20.748   5.387  1.00  0.00     0.021 A 
HETATM   15  C   UNL     1      44.290 -19.704   4.480  1.00  0.00     0.012 A 
HETATM   16 BR   UNL     1      44.624 -20.124   2.665  1.00  0.00    -0.051 Br
HETATM   17  C   UNL     1      44.331 -18.374   4.894  1.00  0.00     0.035 A 
ENDBRANCH   2   5
BRANCH   1  18
HETATM   18  C   UNL     1      44.952 -12.599   8.282  1.00  0.00     0.121 A 
HETATM   19  N   UNL     1      45.956 -11.703   8.538  1.00  0.00    -0.272 N 
HETATM   20  N   UNL     1      45.644 -10.769   9.450  1.00  0.00    -0.172 NA
HETATM   21  H   UNL     1      46.878 -11.692   8.110  1.00  0.00     0.189 HD
HETATM   22  C   UNL     1      44.388 -11.072   9.798  1.00  0.00     0.113 A 
HETATM   23  C   UNL     1      43.909 -12.205   9.098  1.00  0.00     0.073 A 
BRANCH  22  24
HETATM   24  C   UNL     1      43.617 -10.289  10.804  1.00  0.00     0.105 A 
HETATM   25  O   UNL     1      42.514  -9.529  10.523  1.00  0.00    -0.320 OA
HETATM   26  C   UNL     1      42.098  -8.974  11.691  1.00  0.00     0.142 A 
HETATM   27  C   UNL     1      42.914  -9.362  12.727  1.00  0.00     0.027 A 
HETATM   28  C   UNL     1      43.893 -10.208  12.157  1.00  0.00     0.041 A 
ENDBRANCH  22  24
ENDBRANCH   1  18
TORSDOF 3
ENDMDL
MODEL 2
REMARK VINA RESULT:      -8.9      1.805      2.463
REMARK  3 active torsions:
REMARK  status: ('A' for Active; 'I' for Inactive)
REMARK    1  A    between atoms: C_4  and  C_5 
REMARK    2  A    between atoms: C_9  and  C_10 
REMARK       I    between atoms: C_10  and  N_11 
REMARK    3  A    between atoms: N_11  and  N_12 
ROOT
HETATM    1  C   UNL     1      45.110 -13.589   7.494  1.00  0.00     0.289 C 
HETATM    2  N   UNL     1      44.159 -14.593   7.574  1.00  0.00    -0.241 N 
HETATM    3  O   UNL     1      46.036 -13.583   6.686  1.00  0.00    -0.264 OA
HETATM    4  H   UNL     1      43.410 -14.549   8.265  1.00  0.00     0.192 HD
ENDROOT
BRANCH   2   5
HETATM    5  N   UNL     1      44.216 -15.661   6.721  1.00  0.00    -0.165 NA
HETATM    6  C   UNL     1      43.366 -15.678   5.746  1.00  0.00     0.157 A 
HETATM    7  C   UNL     1      42.283 -14.651   5.404  1.00  0.00     0.277 A 
HETATM    8  C   UNL     1      43.263 -16.720   4.734  1.00  0.00     0.028 A 
HETATM    9  O   UNL     1      42.072 -13.637   6.035  1.00  0.00    -0.266 OA
HETATM   10  N   UNL     1      41.655 -15.137   4.278  1.00  0.00    -0.321 N 
HETATM   11  C   UNL     1      42.224 -16.347   3.882  1.00  0.00     0.048 A 
HETATM   12  H   UNL     1      40.891 -14.662   3.820  1.00  0.00     0.169 HD
HETATM   13  C   UNL     1      41.866 -17.130   2.805  1.00  0.00     0.032 A 
HETATM   14  C   UNL     1      42.588 -18.314   2.604  1.00  0.00     0.021 A 
HETATM   15  C   UNL     1      43.637 -18.679   3.476  1.00  0.00     0.012 A 
HETATM   16 BR   UNL     1      44.581 -20.288   3.161  1.00  0.00    -0.051 Br
HETATM   17  C   UNL     1      43.990 -17.880   4.561  1.00  0.00     0.035 A 
ENDBRANCH   2   5
BRANCH   1  18
HETATM   18  C   UNL     1      44.949 -12.515   8.441  1.00  0.00     0.121 A 
HETATM   19  N   UNL     1      45.964 -11.625   8.669  1.00  0.00    -0.272 N 
HETATM   20  N   UNL     1      45.675 -10.678   9.576  1.00  0.00    -0.172 NA
HETATM   21  H   UNL     1      46.879 -11.626   8.227  1.00  0.00     0.189 HD
HETATM   22  C   UNL     1      44.423 -10.967   9.948  1.00  0.00     0.113 A 
HETATM   23  C   UNL     1      43.923 -12.103   9.270  1.00  0.00     0.073 A 
BRANCH  22  24
HETATM   24  C   UNL     1      43.676 -10.165  10.958  1.00  0.00     0.105 A 
HETATM   25  O   UNL     1      42.628  -9.331  10.673  1.00  0.00    -0.320 OA
HETATM   26  C   UNL     1      42.217  -8.784  11.846  1.00  0.00     0.142 A 
HETATM   27  C   UNL     1      42.980  -9.250  12.889  1.00  0.00     0.027 A 
HETATM   28  C   UNL     1      43.921 -10.139  12.319  1.00  0.00     0.041 A 
ENDBRANCH  22  24
ENDBRANCH   1  18
TORSDOF 3
ENDMDL
MODEL 3
REMARK VINA RESULT:      -8.2      5.333      6.198
REMARK  3 active torsions:
REMARK  status: ('A' for Active; 'I' for Inactive)
REMARK    1  A    between atoms: C_4  and  C_5 
REMARK    2  A    between atoms: C_9  and  C_10 
REMARK       I    between atoms: C_10  and  N_11 
REMARK    3  A    between atoms: N_11  and  N_12 
ROOT
HETATM    1  C   UNL     1      40.708 -15.674   5.751  1.00  0.00     0.289 C 
HETATM    2  N   UNL     1      41.835 -15.849   4.964  1.00  0.00    -0.241 N 
HETATM    3  O   UNL     1      40.234 -16.545   6.476  1.00  0.00    -0.264 OA
HETATM    4  H   UNL     1      42.187 -15.091   4.379  1.00  0.00     0.192 HD
ENDROOT
BRANCH   2   5
HETATM    5  N   UNL     1      42.492 -17.049   4.965  1.00  0.00    -0.165 NA
HETATM    6  C   UNL     1      42.608 -17.654   3.829  1.00  0.00     0.157 A 
HETATM    7  C   UNL     1      42.103 -17.210   2.453  1.00  0.00     0.277 A 
HETATM    8  C   UNL     1      43.269 -18.935   3.618  1.00  0.00     0.028 A 
HETATM    9  O   UNL     1      41.500 -16.180   2.241  1.00  0.00    -0.266 OA
HETATM   10  N   UNL     1      42.483 -18.207   1.580  1.00  0.00    -0.321 N 
HETATM   11  C   UNL     1      43.164 -19.218   2.256  1.00  0.00     0.048 A 
HETATM   12  H   UNL     1      42.284 -18.184   0.591  1.00  0.00     0.169 HD
HETATM   13  C   UNL     1      43.696 -20.373   1.723  1.00  0.00     0.032 A 
HETATM   14  C   UNL     1      44.342 -21.249   2.605  1.00  0.00     0.021 A 
HETATM   15  C   UNL     1      44.440 -20.949   3.982  1.00  0.00     0.012 A 
HETATM   16 BR   UNL     1      45.324 -22.165   5.131  1.00  0.00    -0.051 Br
HETATM   17  C   UNL     1      43.899 -19.778   4.509  1.00  0.00     0.035 A 
ENDBRANCH   2   5
BRANCH   1  18
HETATM   18  C   UNL     1      40.102 -14.369   5.669  1.00  0.00     0.121 A 
HETATM   19  N   UNL     1      39.706 -13.709   6.803  1.00  0.00    -0.272 N 
HETATM   20  N   UNL     1      39.158 -12.505   6.578  1.00  0.00    -0.172 NA
HETATM   21  H   UNL     1      39.791 -14.046   7.758  1.00  0.00     0.189 HD
HETATM   22  C   UNL     1      39.201 -12.380   5.246  1.00  0.00     0.113 A 
HETATM   23  C   UNL     1      39.780 -13.515   4.632  1.00  0.00     0.073 A 
BRANCH  22  24
HETATM   24  C   UNL     1      38.690 -11.176   4.531  1.00  0.00     0.105 A 
HETATM   25  O   UNL     1      38.444  -9.965   5.120  1.00  0.00    -0.320 OA
HETATM   26  C   UNL     1      37.992  -9.129   4.149  1.00  0.00     0.142 A 
HETATM   27  C   UNL     1      37.942  -9.778   2.939  1.00  0.00     0.027 A 
HETATM   28  C   UNL     1      38.391 -11.097   3.184  1.00  0.00     0.041 A 
ENDBRANCH  22  24
ENDBRANCH   1  18
TORSDOF 3
ENDMDL
MODEL 4
REMARK VINA RESULT:      -7.9      8.766     12.031
REMARK  3 active torsions:
REMARK  status: ('A' for Active; 'I' for Inactive)
REMARK    1  A    between atoms: C_4  and  C_5 
REMARK    2  A    between atoms: C_9  and  C_10 
REMARK       I    between atoms: C_10  and  N_11 
REMARK    3  A    between atoms: N_11  and  N_12 
ROOT
HETATM    1  C   UNL     1      40.577 -15.772   1.217  1.00  0.00     0.289 C 
HETATM    2  N   UNL     1      40.495 -15.154  -0.020  1.00  0.00    -0.241 N 
HETATM    3  O   UNL     1      39.830 -15.524   2.161  1.00  0.00    -0.264 OA
HETATM    4  H   UNL     1      41.141 -15.399  -0.771  1.00  0.00     0.192 HD
ENDROOT
BRANCH   2   5
HETATM    5  N   UNL     1      39.539 -14.202  -0.249  1.00  0.00    -0.165 NA
HETATM    6  C   UNL     1      39.168 -14.028  -1.475  1.00  0.00     0.157 A 
HETATM    7  C   UNL     1      39.656 -14.751  -2.734  1.00  0.00     0.277 A 
HETATM    8  C   UNL     1      38.168 -13.070  -1.927  1.00  0.00     0.028 A 
HETATM    9  O   UNL     1      40.496 -15.625  -2.744  1.00  0.00    -0.266 OA
HETATM   10  N   UNL     1      38.947 -14.196  -3.777  1.00  0.00    -0.321 N 
HETATM   11  C   UNL     1      38.076 -13.212  -3.311  1.00  0.00     0.048 A 
HETATM   12  H   UNL     1      39.061 -14.481  -4.739  1.00  0.00     0.169 HD
HETATM   13  C   UNL     1      37.208 -12.440  -4.053  1.00  0.00     0.032 A 
HETATM   14  C   UNL     1      36.424 -11.509  -3.359  1.00  0.00     0.021 A 
HETATM   15  C   UNL     1      36.528 -11.375  -1.958  1.00  0.00     0.012 A 
HETATM   16 BR   UNL     1      35.448 -10.102  -1.068  1.00  0.00    -0.051 Br
HETATM   17  C   UNL     1      37.410 -12.162  -1.217  1.00  0.00     0.035 A 
ENDBRANCH   2   5
BRANCH   1  18
HETATM   18  C   UNL     1      41.621 -16.758   1.340  1.00  0.00     0.121 A 
HETATM   19  N   UNL     1      42.750 -16.681   0.568  1.00  0.00    -0.272 N 
HETATM   20  N   UNL     1      43.638 -17.664   0.788  1.00  0.00    -0.172 NA
HETATM   21  H   UNL     1      42.958 -15.971  -0.129  1.00  0.00     0.189 HD
HETATM   22  C   UNL     1      43.061 -18.405   1.741  1.00  0.00     0.113 A 
HETATM   23  C   UNL     1      41.802 -17.883   2.121  1.00  0.00     0.073 A 
BRANCH  22  24
HETATM   24  C   UNL     1      43.697 -19.627   2.310  1.00  0.00     0.105 A 
HETATM   25  O   UNL     1      44.452 -19.654   3.452  1.00  0.00    -0.320 OA
HETATM   26  C   UNL     1      44.852 -20.938   3.641  1.00  0.00     0.142 A 
HETATM   27  C   UNL     1      44.369 -21.746   2.640  1.00  0.00     0.027 A 
HETATM   28  C   UNL     1      43.625 -20.902   1.781  1.00  0.00     0.041 A 
ENDBRANCH  22  24
ENDBRANCH   1  18
TORSDOF 3
ENDMDL
MODEL 5
REMARK VINA RESULT:      -7.8      7.187      9.652
REMARK  3 active torsions:
REMARK  status: ('A' for Active; 'I' for Inactive)
REMARK    1  A    between atoms: C_4  and  C_5 
REMARK    2  A    between atoms: C_9  and  C_10 
REMARK       I    between atoms: C_10  and  N_11 
REMARK    3  A    between atoms: N_11  and  N_12 
ROOT
HETATM    1  C   UNL     1      41.409 -15.516   1.117  1.00  0.00     0.289 C 
HETATM    2  N   UNL     1      42.700 -15.589   1.614  1.00  0.00    -0.241 N 
HETATM    3  O   UNL     1      40.415 -15.908   1.723  1.00  0.00    -0.264 OA
HETATM    4  H   UNL     1      43.491 -15.247   1.068  1.00  0.00     0.192 HD
ENDROOT
BRANCH   2   5
HETATM    5  N   UNL     1      42.927 -16.123   2.853  1.00  0.00    -0.165 NA
HETATM    6  C   UNL     1      43.419 -17.318   2.894  1.00  0.00     0.157 A 
HETATM    7  C   UNL     1      43.790 -18.240   1.729  1.00  0.00     0.277 A 
HETATM    8  C   UNL     1      43.732 -18.062   4.107  1.00  0.00     0.028 A 
HETATM    9  O   UNL     1      43.666 -17.954   0.558  1.00  0.00    -0.266 OA
HETATM   10  N   UNL     1      44.269 -19.395   2.309  1.00  0.00    -0.321 N 
HETATM   11  C   UNL     1      44.236 -19.297   3.699  1.00  0.00     0.048 A 
HETATM   12  H   UNL     1      44.593 -20.190   1.778  1.00  0.00     0.169 HD
HETATM   13  C   UNL     1      44.632 -20.245   4.617  1.00  0.00     0.032 A 
HETATM   14  C   UNL     1      44.506 -19.918   5.974  1.00  0.00     0.021 A 
HETATM   15  C   UNL     1      43.994 -18.664   6.372  1.00  0.00     0.012 A 
HETATM   16 BR   UNL     1      43.844 -18.271   8.217  1.00  0.00    -0.051 Br
HETATM   17  C   UNL     1      43.597 -17.712   5.435  1.00  0.00     0.035 A 
ENDBRANCH   2   5
BRANCH   1  18
HETATM   18  C   UNL     1      41.292 -14.933  -0.197  1.00  0.00     0.121 A 
HETATM   19  N   UNL     1      40.774 -15.656  -1.239  1.00  0.00    -0.272 N 
HETATM   20  N   UNL     1      40.724 -14.989  -2.403  1.00  0.00    -0.172 NA
HETATM   21  H   UNL     1      40.441 -16.615  -1.201  1.00  0.00     0.189 HD
HETATM   22  C   UNL     1      41.229 -13.786  -2.101  1.00  0.00     0.113 A 
HETATM   23  C   UNL     1      41.598 -13.700  -0.738  1.00  0.00     0.073 A 
BRANCH  22  24
HETATM   24  C   UNL     1      41.370 -12.695  -3.106  1.00  0.00     0.105 A 
HETATM   25  O   UNL     1      40.335 -12.156  -3.823  1.00  0.00    -0.320 OA
HETATM   26  C   UNL     1      40.859 -11.196  -4.628  1.00  0.00     0.142 A 
HETATM   27  C   UNL     1      42.218 -11.101  -4.444  1.00  0.00     0.027 A 
HETATM   28  C   UNL     1      42.548 -12.067  -3.465  1.00  0.00     0.041 A 
ENDBRANCH  22  24
ENDBRANCH   1  18
TORSDOF 3
ENDMDL
MODEL 6
REMARK VINA RESULT:      -7.8      6.238     10.005
REMARK  3 active torsions:
REMARK  status: ('A' for Active; 'I' for Inactive)
REMARK    1  A    between atoms: C_4  and  C_5 
REMARK    2  A    between atoms: C_9  and  C_10 
REMARK       I    between atoms: C_10  and  N_11 
REMARK    3  A    between atoms: N_11  and  N_12 
ROOT
HETATM    1  C   UNL     1      42.685 -15.665   4.450  1.00  0.00     0.289 C 
HETATM    2  N   UNL     1      41.353 -15.649   4.071  1.00  0.00    -0.241 N 
HETATM    3  O   UNL     1      43.341 -14.657   4.700  1.00  0.00    -0.264 OA
HETATM    4  H   UNL     1      40.854 -16.517   3.876  1.00  0.00     0.192 HD
ENDROOT
BRANCH   2   5
HETATM    5  N   UNL     1      40.688 -14.458   3.955  1.00  0.00    -0.165 NA
HETATM    6  C   UNL     1      39.885 -14.332   2.949  1.00  0.00     0.157 A 
HETATM    7  C   UNL     1      39.566 -15.346   1.847  1.00  0.00     0.277 A 
HETATM    8  C   UNL     1      39.088 -13.151   2.648  1.00  0.00     0.028 A 
HETATM    9  O   UNL     1      40.049 -16.455   1.771  1.00  0.00    -0.266 OA
HETATM   10  N   UNL     1      38.655 -14.722   1.023  1.00  0.00    -0.321 N 
HETATM   11  C   UNL     1      38.372 -13.438   1.486  1.00  0.00     0.048 A 
HETATM   12  H   UNL     1      38.260 -15.157   0.201  1.00  0.00     0.169 HD
HETATM   13  C   UNL     1      37.513 -12.515   0.930  1.00  0.00     0.032 A 
HETATM   14  C   UNL     1      37.390 -11.279   1.579  1.00  0.00     0.021 A 
HETATM   15  C   UNL     1      38.121 -11.002   2.754  1.00  0.00     0.012 A 
HETATM   16 BR   UNL     1      37.919  -9.318   3.592  1.00  0.00    -0.051 Br
HETATM   17  C   UNL     1      38.987 -11.943   3.308  1.00  0.00     0.035 A 
ENDBRANCH   2   5
BRANCH   1  18
HETATM   18  C   UNL     1      43.279 -16.975   4.541  1.00  0.00     0.121 A 
HETATM   19  N   UNL     1      44.105 -17.298   5.585  1.00  0.00    -0.272 N 
HETATM   20  N   UNL     1      44.587 -18.550   5.542  1.00  0.00    -0.172 NA
HETATM   21  H   UNL     1      44.371 -16.690   6.355  1.00  0.00     0.189 HD
HETATM   22  C   UNL     1      44.051 -19.058   4.425  1.00  0.00     0.113 A 
HETATM   23  C   UNL     1      43.227 -18.117   3.764  1.00  0.00     0.073 A 
BRANCH  22  24
HETATM   24  C   UNL     1      44.312 -20.451   3.965  1.00  0.00     0.105 A 
HETATM   25  O   UNL     1      44.613 -21.502   4.790  1.00  0.00    -0.320 OA
HETATM   26  C   UNL     1      44.781 -22.596   4.004  1.00  0.00     0.142 A 
HETATM   27  C   UNL     1      44.594 -22.274   2.681  1.00  0.00     0.027 A 
HETATM   28  C   UNL     1      44.292 -20.892   2.655  1.00  0.00     0.041 A 
ENDBRANCH  22  24
ENDBRANCH   1  18
TORSDOF 3
ENDMDL
MODEL 7
REMARK VINA RESULT:      -7.8      8.256     11.582
REMARK  3 active torsions:
REMARK  status: ('A' for Active; 'I' for Inactive)
REMARK    1  A    between atoms: C_4  and  C_5 
REMARK    2  A    between atoms: C_9  and  C_10 
REMARK       I    between atoms: C_10  and  N_11 
REMARK    3  A    between atoms: N_11  and  N_12 
ROOT
HETATM    1  C   UNL     1      40.865 -15.505   1.945  1.00  0.00     0.289 C 
HETATM    2  N   UNL     1      39.814 -15.570   1.045  1.00  0.00    -0.241 N 
HETATM    3  O   UNL     1      41.015 -14.601   2.763  1.00  0.00    -0.264 OA
HETATM    4  H   UNL     1      39.737 -16.345   0.386  1.00  0.00     0.192 HD
ENDROOT
BRANCH   2   5
HETATM    5  N   UNL     1      38.862 -14.587   1.031  1.00  0.00    -0.165 NA
HETATM    6  C   UNL     1      38.716 -13.929  -0.073  1.00  0.00     0.157 A 
HETATM    7  C   UNL     1      39.472 -14.097  -1.394  1.00  0.00     0.277 A 
HETATM    8  C   UNL     1      37.762 -12.850  -0.293  1.00  0.00     0.028 A 
HETATM    9  O   UNL     1      40.350 -14.910  -1.586  1.00  0.00    -0.266 OA
HETATM   10  N   UNL     1      38.938 -13.156  -2.248  1.00  0.00    -0.321 N 
HETATM   11  C   UNL     1      37.938 -12.424  -1.609  1.00  0.00     0.048 A 
HETATM   12  H   UNL     1      39.246 -13.034  -3.202  1.00  0.00     0.169 HD
HETATM   13  C   UNL     1      37.178 -11.403  -2.137  1.00  0.00     0.032 A 
HETATM   14  C   UNL     1      36.225 -10.812  -1.297  1.00  0.00     0.021 A 
HETATM   15  C   UNL     1      36.058 -11.253   0.033  1.00  0.00     0.012 A 
HETATM   16 BR   UNL     1      34.756 -10.421   1.126  1.00  0.00    -0.051 Br
HETATM   17  C   UNL     1      36.832 -12.287   0.557  1.00  0.00     0.035 A 
ENDBRANCH   2   5
BRANCH   1  18
HETATM   18  C   UNL     1      41.805 -16.596   1.868  1.00  0.00     0.121 A 
HETATM   19  N   UNL     1      42.732 -16.650   0.860  1.00  0.00    -0.272 N 
HETATM   20  N   UNL     1      43.541 -17.719   0.913  1.00  0.00    -0.172 NA
HETATM   21  H   UNL     1      42.848 -15.975   0.109  1.00  0.00     0.189 HD
HETATM   22  C   UNL     1      43.122 -18.382   1.997  1.00  0.00     0.113 A 
HETATM   23  C   UNL     1      42.041 -17.724   2.629  1.00  0.00     0.073 A 
BRANCH  22  24
HETATM   24  C   UNL     1      43.744 -19.658   2.454  1.00  0.00     0.105 A 
HETATM   25  O   UNL     1      44.487 -19.799   3.594  1.00  0.00    -0.320 OA
HETATM   26  C   UNL     1      44.876 -21.098   3.664  1.00  0.00     0.142 A 
HETATM   27  C   UNL     1      44.396 -21.804   2.588  1.00  0.00     0.027 A 
HETATM   28  C   UNL     1      43.666 -20.877   1.806  1.00  0.00     0.041 A 
ENDBRANCH  22  24
ENDBRANCH   1  18
TORSDOF 3
ENDMDL
MODEL 8
REMARK VINA RESULT:      -7.8      4.314      9.270
REMARK  3 active torsions:
REMARK  status: ('A' for Active; 'I' for Inactive)
REMARK    1  A    between atoms: C_4  and  C_5 
REMARK    2  A    between atoms: C_9  and  C_10 
REMARK       I    between atoms: C_10  and  N_11 
REMARK    3  A    between atoms: N_11  and  N_12 
ROOT
HETATM    1  C   UNL     1      42.113 -12.525   5.749  1.00  0.00     0.289 C 
HETATM    2  N   UNL     1      42.855 -12.388   6.911  1.00  0.00    -0.241 N 
HETATM    3  O   UNL     1      41.115 -11.858   5.489  1.00  0.00    -0.264 OA
HETATM    4  H   UNL     1      43.678 -12.968   7.077  1.00  0.00     0.192 HD
ENDROOT
BRANCH   2   5
HETATM    5  N   UNL     1      42.490 -11.465   7.853  1.00  0.00    -0.165 NA
HETATM    6  C   UNL     1      43.175 -11.445   8.949  1.00  0.00     0.157 A 
HETATM    7  C   UNL     1      44.362 -12.324   9.352  1.00  0.00     0.277 A 
HETATM    8  C   UNL     1      42.948 -10.543  10.070  1.00  0.00     0.028 A 
HETATM    9  O   UNL     1      44.837 -13.198   8.659  1.00  0.00    -0.266 OA
HETATM   10  N   UNL     1      44.727 -11.900  10.611  1.00  0.00    -0.321 N 
HETATM   11  C   UNL     1      43.903 -10.859  11.036  1.00  0.00     0.048 A 
HETATM   12  H   UNL     1      45.491 -12.304  11.133  1.00  0.00     0.169 HD
HETATM   13  C   UNL     1      43.960 -10.180  12.234  1.00  0.00     0.032 A 
HETATM   14  C   UNL     1      43.020  -9.161  12.440  1.00  0.00     0.021 A 
HETATM   15  C   UNL     1      42.058  -8.852  11.453  1.00  0.00     0.012 A 
HETATM   16 BR   UNL     1      40.811  -7.468  11.780  1.00  0.00    -0.051 Br
HETATM   17  C   UNL     1      42.010  -9.546  10.245  1.00  0.00     0.035 A 
ENDBRANCH   2   5
BRANCH   1  18
HETATM   18  C   UNL     1      42.593 -13.527   4.831  1.00  0.00     0.121 A 
HETATM   19  N   UNL     1      43.134 -13.169   3.624  1.00  0.00    -0.272 N 
HETATM   20  N   UNL     1      43.539 -14.203   2.871  1.00  0.00    -0.172 NA
HETATM   21  H   UNL     1      43.245 -12.222   3.270  1.00  0.00     0.189 HD
HETATM   22  C   UNL     1      43.250 -15.274   3.621  1.00  0.00     0.113 A 
HETATM   23  C   UNL     1      42.659 -14.907   4.853  1.00  0.00     0.073 A 
BRANCH  22  24
HETATM   24  C   UNL     1      43.532 -16.669   3.179  1.00  0.00     0.105 A 
HETATM   25  O   UNL     1      43.543 -17.762   4.004  1.00  0.00    -0.320 OA
HETATM   26  C   UNL     1      43.838 -18.843   3.236  1.00  0.00     0.142 A 
HETATM   27  C   UNL     1      44.018 -18.470   1.926  1.00  0.00     0.027 A 
HETATM   28  C   UNL     1      43.822 -17.070   1.888  1.00  0.00     0.041 A 
ENDBRANCH  22  24
ENDBRANCH   1  18
TORSDOF 3
ENDMDL
MODEL 9
REMARK VINA RESULT:      -7.8      5.407      9.796
REMARK  3 active torsions:
REMARK  status: ('A' for Active; 'I' for Inactive)
REMARK    1  A    between atoms: C_4  and  C_5 
REMARK    2  A    between atoms: C_9  and  C_10 
REMARK       I    between atoms: C_10  and  N_11 
REMARK    3  A    between atoms: N_11  and  N_12 
ROOT
HETATM    1  C   UNL     1      42.826 -15.072   2.692  1.00  0.00     0.289 C 
HETATM    2  N   UNL     1      43.057 -14.651   3.991  1.00  0.00    -0.241 N 
HETATM    3  O   UNL     1      42.334 -14.364   1.816  1.00  0.00    -0.264 OA
HETATM    4  H   UNL     1      43.468 -15.280   4.680  1.00  0.00     0.192 HD
ENDROOT
BRANCH   2   5
HETATM    5  N   UNL     1      42.733 -13.374   4.365  1.00  0.00    -0.165 NA
HETATM    6  C   UNL     1      41.734 -13.237   5.174  1.00  0.00     0.157 A 
HETATM    7  C   UNL     1      40.842 -14.321   5.785  1.00  0.00     0.277 A 
HETATM    8  C   UNL     1      41.233 -11.970   5.689  1.00  0.00     0.028 A 
HETATM    9  O   UNL     1      40.965 -15.510   5.580  1.00  0.00    -0.266 OA
HETATM   10  N   UNL     1      39.931 -13.650   6.573  1.00  0.00    -0.321 N 
HETATM   11  C   UNL     1      40.155 -12.276   6.519  1.00  0.00     0.048 A 
HETATM   12  H   UNL     1      39.210 -14.115   7.106  1.00  0.00     0.169 HD
HETATM   13  C   UNL     1      39.451 -11.285   7.171  1.00  0.00     0.032 A 
HETATM   14  C   UNL     1      39.863  -9.962   6.963  1.00  0.00     0.021 A 
HETATM   15  C   UNL     1      40.956  -9.668   6.119  1.00  0.00     0.012 A 
HETATM   16 BR   UNL     1      41.473  -7.865   5.872  1.00  0.00    -0.051 Br
HETATM   17  C   UNL     1      41.661 -10.678   5.466  1.00  0.00     0.035 A 
ENDBRANCH   2   5
BRANCH   1  18
HETATM   18  C   UNL     1      43.207 -16.434   2.414  1.00  0.00     0.121 A 
HETATM   19  N   UNL     1      43.453 -16.844   1.130  1.00  0.00    -0.272 N 
HETATM   20  N   UNL     1      43.799 -18.136   1.018  1.00  0.00    -0.172 NA
HETATM   21  H   UNL     1      43.396 -16.271   0.292  1.00  0.00     0.189 HD
HETATM   22  C   UNL     1      43.776 -18.580   2.281  1.00  0.00     0.113 A 
HETATM   23  C   UNL     1      43.414 -17.558   3.190  1.00  0.00     0.073 A 
BRANCH  22  24
HETATM   24  C   UNL     1      44.100 -19.988   2.647  1.00  0.00     0.105 A 
HETATM   25  O   UNL     1      44.647 -20.378   3.840  1.00  0.00    -0.320 OA
HETATM   26  C   UNL     1      44.792 -21.727   3.795  1.00  0.00     0.142 A 
HETATM   27  C   UNL     1      44.348 -22.221   2.592  1.00  0.00     0.027 A 
HETATM   28  C   UNL     1      43.902 -21.101   1.851  1.00  0.00     0.041 A 
ENDBRANCH  22  24
ENDBRANCH   1  18
TORSDOF 3
ENDMDL
MODEL 10
REMARK VINA RESULT:      -7.7      7.616      8.842
REMARK  3 active torsions:
REMARK  status: ('A' for Active; 'I' for Inactive)
REMARK    1  A    between atoms: C_4  and  C_5 
REMARK    2  A    between atoms: C_9  and  C_10 
REMARK       I    between atoms: C_10  and  N_11 
REMARK    3  A    between atoms: N_11  and  N_12 
ROOT
HETATM    1  C   UNL     1      40.131 -15.152   0.725  1.00  0.00     0.289 C 
HETATM    2  N   UNL     1      39.940 -16.170   1.645  1.00  0.00    -0.241 N 
HETATM    3  O   UNL     1      41.052 -15.125  -0.088  1.00  0.00    -0.264 OA
HETATM    4  H   UNL     1      39.157 -16.143   2.299  1.00  0.00     0.192 HD
ENDROOT
BRANCH   2   5
HETATM    5  N   UNL     1      40.806 -17.229   1.686  1.00  0.00    -0.165 NA
HETATM    6  C   UNL     1      41.598 -17.299   2.705  1.00  0.00     0.157 A 
HETATM    7  C   UNL     1      41.709 -16.345   3.898  1.00  0.00     0.277 A 
HETATM    8  C   UNL     1      42.588 -18.342   2.936  1.00  0.00     0.028 A 
HETATM    9  O   UNL     1      41.032 -15.350   4.049  1.00  0.00    -0.266 OA
HETATM   10  N   UNL     1      42.701 -16.867   4.699  1.00  0.00    -0.321 N 
HETATM   11  C   UNL     1      43.219 -18.035   4.141  1.00  0.00     0.048 A 
HETATM   12  H   UNL     1      42.994 -16.443   5.568  1.00  0.00     0.169 HD
HETATM   13  C   UNL     1      44.219 -18.836   4.649  1.00  0.00     0.032 A 
HETATM   14  C   UNL     1      44.574 -19.968   3.905  1.00  0.00     0.021 A 
HETATM   15  C   UNL     1      43.928 -20.267   2.686  1.00  0.00     0.012 A 
HETATM   16 BR   UNL     1      44.445 -21.809   1.719  1.00  0.00    -0.051 Br
HETATM   17  C   UNL     1      42.917 -19.449   2.182  1.00  0.00     0.035 A 
ENDBRANCH   2   5
BRANCH   1  18
HETATM   18  C   UNL     1      39.157 -14.092   0.775  1.00  0.00     0.121 A 
HETATM   19  N   UNL     1      38.993 -13.344   1.911  1.00  0.00    -0.272 N 
HETATM   20  N   UNL     1      38.052 -12.392   1.816  1.00  0.00    -0.172 NA
HETATM   21  H   UNL     1      39.505 -13.451   2.783  1.00  0.00     0.189 HD
HETATM   22  C   UNL     1      37.589 -12.528   0.567  1.00  0.00     0.113 A 
HETATM   23  C   UNL     1      38.245 -13.573  -0.124  1.00  0.00     0.073 A 
BRANCH  22  24
HETATM   24  C   UNL     1      36.512 -11.663   0.007  1.00  0.00     0.105 A 
HETATM   25  O   UNL     1      36.327 -11.412  -1.325  1.00  0.00    -0.320 OA
HETATM   26  C   UNL     1      35.254 -10.587  -1.435  1.00  0.00     0.142 A 
HETATM   27  C   UNL     1      34.737 -10.299  -0.194  1.00  0.00     0.027 A 
HETATM   28  C   UNL     1      35.548 -10.992   0.736  1.00  0.00     0.041 A 
ENDBRANCH  22  24
ENDBRANCH   1  18
TORSDOF 3
ENDMDL
