MODEL 1
REMARK VINA RESULT:      -8.5      0.000      0.000
REMARK  6 active torsions:
REMARK  status: ('A' for Active; 'I' for Inactive)
REMARK    1  A    between atoms: C_9  and  C_10 
REMARK    2  A    between atoms: C_10  and  N_11 
REMARK       I    between atoms: N_11  and  C_12 
REMARK    3  A    between atoms: N_11  and  C_22 
REMARK    4  A    between atoms: C_12  and  C_13 
REMARK    5  A    between atoms: C_15  and  O_16 
REMARK    6  A    between atoms: C_22  and  C_23 
ROOT
HETATM    1  N   UNL     1      42.275 -15.919   2.228  1.00  0.00    -0.341 N 
HETATM    2  C   UNL     1      41.978 -17.288   2.248  1.00  0.00     0.254 C 
HETATM    3  O   UNL     1      40.934 -17.753   1.788  1.00  0.00    -0.267 OA
ENDROOT
BRANCH   1   4
HETATM    4  C   UNL     1      41.182 -15.026   1.812  1.00  0.00     0.170 C 
BRANCH   4   5
HETATM    5  C   UNL     1      41.558 -14.084   0.698  1.00  0.00     0.029 A 
HETATM    6  C   UNL     1      41.501 -14.724  -0.657  1.00  0.00     0.253 A 
HETATM    7  N   UNL     1      41.861 -13.961  -1.732  1.00  0.00    -0.322 N 
HETATM    8  O   UNL     1      41.131 -15.886  -0.809  1.00  0.00    -0.268 OA
HETATM    9  C   UNL     1      42.264 -12.627  -1.636  1.00  0.00     0.045 A 
HETATM   10  H   UNL     1      41.824 -14.421  -2.630  1.00  0.00     0.169 HD
HETATM   11  C   UNL     1      42.302 -12.015  -0.379  1.00  0.00    -0.008 A 
HETATM   12  C   UNL     1      42.620 -11.925  -2.785  1.00  0.00     0.031 A 
HETATM   13  C   UNL     1      42.708 -10.679  -0.281  1.00  0.00     0.020 A 
HETATM   14  C   UNL     1      41.927 -12.794   0.802  1.00  0.00     0.028 A 
HETATM   15  C   UNL     1      43.083  -9.964  -1.429  1.00  0.00    -0.061 A 
HETATM   16  C   UNL     1      43.494  -8.524  -1.332  1.00  0.00     0.048 C 
HETATM   17  C   UNL     1      43.024 -10.593  -2.680  1.00  0.00     0.009 A 
ENDBRANCH   4   5
ENDBRANCH   1   4
BRANCH   1  18
HETATM   18  C   UNL     1      43.361 -15.290   3.000  1.00  0.00     0.158 C 
BRANCH  18  19
HETATM   19  C   UNL     1      42.861 -14.300   4.074  1.00  0.00     0.139 C 
HETATM   20  O   UNL     1      43.975 -13.552   4.600  1.00  0.00    -0.384 OA
HETATM   21  C   UNL     1      44.263 -14.001   5.931  1.00  0.00     0.168 C 
HETATM   22  C   UNL     1      43.443 -15.252   6.161  1.00  0.00     0.029 C 
HETATM   23  C   UNL     1      42.249 -15.014   5.271  1.00  0.00     0.035 C 
ENDBRANCH  18  19
ENDBRANCH   1  18
BRANCH   2  24
HETATM   24  C   UNL     1      42.907 -18.260   2.867  1.00  0.00     0.034 A 
HETATM   25  C   UNL     1      42.851 -18.404   4.261  1.00  0.00     0.053 A 
HETATM   26  C   UNL     1      43.663 -19.340   4.899  1.00  0.00     0.069 A 
HETATM   27  C   UNL     1      44.554 -20.104   4.142  1.00  0.00     0.037 A 
HETATM   28  C   UNL     1      44.586 -19.988   2.750  1.00  0.00     0.004 A 
HETATM   29  C   UNL     1      43.743 -19.083   2.107  1.00  0.00     0.017 A 
BRANCH  26  30
HETATM   30  O   UNL     1      43.682 -19.580   6.245  1.00  0.00    -0.356 OA
HETATM   31  C   UNL     1      43.886 -20.938   6.626  1.00  0.00     0.210 C 
ENDBRANCH  26  30
ENDBRANCH   2  24
TORSDOF 6
ENDMDL
MODEL 2
REMARK VINA RESULT:      -8.4      2.179      8.216
REMARK  6 active torsions:
REMARK  status: ('A' for Active; 'I' for Inactive)
REMARK    1  A    between atoms: C_9  and  C_10 
REMARK    2  A    between atoms: C_10  and  N_11 
REMARK       I    between atoms: N_11  and  C_12 
REMARK    3  A    between atoms: N_11  and  C_22 
REMARK    4  A    between atoms: C_12  and  C_13 
REMARK    5  A    between atoms: C_15  and  O_16 
REMARK    6  A    between atoms: C_22  and  C_23 
ROOT
HETATM    1  N   UNL     1      41.197 -14.621   1.985  1.00  0.00    -0.341 N 
HETATM    2  C   UNL     1      42.132 -13.618   1.697  1.00  0.00     0.254 C 
HETATM    3  O   UNL     1      43.032 -13.300   2.473  1.00  0.00    -0.267 OA
ENDROOT
BRANCH   1   4
HETATM    4  C   UNL     1      41.215 -15.146   3.360  1.00  0.00     0.170 C 
BRANCH   4   5
HETATM    5  C   UNL     1      42.054 -16.386   3.526  1.00  0.00     0.029 A 
HETATM    6  C   UNL     1      42.881 -16.373   4.776  1.00  0.00     0.253 A 
HETATM    7  N   UNL     1      43.707 -17.440   4.999  1.00  0.00    -0.322 N 
HETATM    8  O   UNL     1      42.817 -15.451   5.585  1.00  0.00    -0.268 OA
HETATM    9  C   UNL     1      43.810 -18.534   4.137  1.00  0.00     0.045 A 
HETATM   10  H   UNL     1      44.260 -17.398   5.843  1.00  0.00     0.169 HD
HETATM   11  C   UNL     1      43.028 -18.566   2.978  1.00  0.00    -0.008 A 
HETATM   12  C   UNL     1      44.682 -19.577   4.441  1.00  0.00     0.031 A 
HETATM   13  C   UNL     1      43.132 -19.660   2.113  1.00  0.00     0.020 A 
HETATM   14  C   UNL     1      42.130 -17.444   2.696  1.00  0.00     0.028 A 
HETATM   15  C   UNL     1      44.017 -20.711   2.399  1.00  0.00    -0.061 A 
HETATM   16  C   UNL     1      44.113 -21.899   1.487  1.00  0.00     0.048 C 
HETATM   17  C   UNL     1      44.782 -20.665   3.573  1.00  0.00     0.009 A 
ENDBRANCH   4   5
ENDBRANCH   1   4
BRANCH   1  18
HETATM   18  C   UNL     1      39.953 -14.846   1.227  1.00  0.00     0.158 C 
BRANCH  18  19
HETATM   19  C   UNL     1      38.699 -14.264   1.915  1.00  0.00     0.139 C 
HETATM   20  O   UNL     1      37.552 -14.439   1.060  1.00  0.00    -0.384 OA
HETATM   21  C   UNL     1      37.170 -13.170   0.512  1.00  0.00     0.168 C 
HETATM   22  C   UNL     1      38.273 -12.192   0.852  1.00  0.00     0.029 C 
HETATM   23  C   UNL     1      38.813 -12.762   2.140  1.00  0.00     0.035 C 
ENDBRANCH  18  19
ENDBRANCH   1  18
BRANCH   2  24
HETATM   24  C   UNL     1      42.058 -12.850   0.433  1.00  0.00     0.034 A 
HETATM   25  C   UNL     1      42.027 -13.583  -0.763  1.00  0.00     0.053 A 
HETATM   26  C   UNL     1      41.906 -12.921  -1.983  1.00  0.00     0.069 A 
HETATM   27  C   UNL     1      41.850 -11.526  -2.005  1.00  0.00     0.037 A 
HETATM   28  C   UNL     1      41.846 -10.796  -0.813  1.00  0.00     0.004 A 
HETATM   29  C   UNL     1      41.923 -11.459   0.411  1.00  0.00     0.017 A 
BRANCH  26  30
HETATM   30  O   UNL     1      41.848 -13.529  -3.207  1.00  0.00    -0.356 OA
HETATM   31  C   UNL     1      40.633 -14.216  -3.496  1.00  0.00     0.210 C 
ENDBRANCH  26  30
ENDBRANCH   2  24
TORSDOF 6
ENDMDL
MODEL 3
REMARK VINA RESULT:      -8.4      1.649      2.010
REMARK  6 active torsions:
REMARK  status: ('A' for Active; 'I' for Inactive)
REMARK    1  A    between atoms: C_9  and  C_10 
REMARK    2  A    between atoms: C_10  and  N_11 
REMARK       I    between atoms: N_11  and  C_12 
REMARK    3  A    between atoms: N_11  and  C_22 
REMARK    4  A    between atoms: C_12  and  C_13 
REMARK    5  A    between atoms: C_15  and  O_16 
REMARK    6  A    between atoms: C_22  and  C_23 
ROOT
HETATM    1  N   UNL     1      42.173 -15.723   2.971  1.00  0.00    -0.341 N 
HETATM    2  C   UNL     1      41.847 -17.082   2.877  1.00  0.00     0.254 C 
HETATM    3  O   UNL     1      40.726 -17.480   2.563  1.00  0.00    -0.267 OA
ENDROOT
BRANCH   1   4
HETATM    4  C   UNL     1      41.048 -14.780   2.875  1.00  0.00     0.170 C 
BRANCH   4   5
HETATM    5  C   UNL     1      40.737 -14.347   1.465  1.00  0.00     0.029 A 
HETATM    6  C   UNL     1      39.335 -14.675   1.046  1.00  0.00     0.253 A 
HETATM    7  N   UNL     1      38.967 -14.356  -0.231  1.00  0.00    -0.322 N 
HETATM    8  O   UNL     1      38.534 -15.197   1.817  1.00  0.00    -0.268 OA
HETATM    9  C   UNL     1      39.816 -13.737  -1.152  1.00  0.00     0.045 A 
HETATM   10  H   UNL     1      38.021 -14.599  -0.489  1.00  0.00     0.169 HD
HETATM   11  C   UNL     1      41.119 -13.409  -0.765  1.00  0.00    -0.008 A 
HETATM   12  C   UNL     1      39.358 -13.452  -2.436  1.00  0.00     0.031 A 
HETATM   13  C   UNL     1      41.971 -12.791  -1.686  1.00  0.00     0.020 A 
HETATM   14  C   UNL     1      41.559 -13.734   0.593  1.00  0.00     0.028 A 
HETATM   15  C   UNL     1      41.528 -12.512  -2.988  1.00  0.00    -0.061 A 
HETATM   16  C   UNL     1      42.429 -11.825  -3.972  1.00  0.00     0.048 C 
HETATM   17  C   UNL     1      40.213 -12.836  -3.351  1.00  0.00     0.009 A 
ENDBRANCH   4   5
ENDBRANCH   1   4
BRANCH   1  18
HETATM   18  C   UNL     1      43.398 -15.200   3.603  1.00  0.00     0.158 C 
BRANCH  18  19
HETATM   19  C   UNL     1      43.124 -14.307   4.832  1.00  0.00     0.139 C 
HETATM   20  O   UNL     1      44.319 -13.578   5.177  1.00  0.00    -0.384 OA
HETATM   21  C   UNL     1      44.876 -14.123   6.381  1.00  0.00     0.168 C 
HETATM   22  C   UNL     1      44.128 -15.405   6.673  1.00  0.00     0.029 C 
HETATM   23  C   UNL     1      42.775 -15.124   6.068  1.00  0.00     0.035 C 
ENDBRANCH  18  19
ENDBRANCH   1  18
BRANCH   2  24
HETATM   24  C   UNL     1      42.847 -18.128   3.192  1.00  0.00     0.034 A 
HETATM   25  C   UNL     1      42.971 -18.513   4.535  1.00  0.00     0.053 A 
HETATM   26  C   UNL     1      43.856 -19.529   4.890  1.00  0.00     0.069 A 
HETATM   27  C   UNL     1      44.640 -20.132   3.904  1.00  0.00     0.037 A 
HETATM   28  C   UNL     1      44.492 -19.775   2.561  1.00  0.00     0.004 A 
HETATM   29  C   UNL     1      43.575 -18.789   2.199  1.00  0.00     0.017 A 
BRANCH  26  30
HETATM   30  O   UNL     1      44.049 -19.999   6.160  1.00  0.00    -0.356 OA
HETATM   31  C   UNL     1      43.874 -19.044   7.203  1.00  0.00     0.210 C 
ENDBRANCH  26  30
ENDBRANCH   2  24
TORSDOF 6
ENDMDL
MODEL 4
REMARK VINA RESULT:      -8.3      2.897      8.080
REMARK  6 active torsions:
REMARK  status: ('A' for Active; 'I' for Inactive)
REMARK    1  A    between atoms: C_9  and  C_10 
REMARK    2  A    between atoms: C_10  and  N_11 
REMARK       I    between atoms: N_11  and  C_12 
REMARK    3  A    between atoms: N_11  and  C_22 
REMARK    4  A    between atoms: C_12  and  C_13 
REMARK    5  A    between atoms: C_15  and  O_16 
REMARK    6  A    between atoms: C_22  and  C_23 
ROOT
HETATM    1  N   UNL     1      41.359 -14.558   2.949  1.00  0.00    -0.341 N 
HETATM    2  C   UNL     1      41.046 -14.064   1.676  1.00  0.00     0.254 C 
HETATM    3  O   UNL     1      41.884 -13.937   0.783  1.00  0.00    -0.267 OA
ENDROOT
BRANCH   1   4
HETATM    4  C   UNL     1      42.791 -14.729   3.242  1.00  0.00     0.170 C 
BRANCH   4   5
HETATM    5  C   UNL     1      43.192 -16.160   3.494  1.00  0.00     0.029 A 
HETATM    6  C   UNL     1      43.597 -16.414   4.915  1.00  0.00     0.253 A 
HETATM    7  N   UNL     1      44.015 -17.676   5.237  1.00  0.00    -0.322 N 
HETATM    8  O   UNL     1      43.546 -15.534   5.771  1.00  0.00    -0.268 OA
HETATM    9  C   UNL     1      44.073 -18.730   4.323  1.00  0.00     0.045 A 
HETATM   10  H   UNL     1      44.292 -17.815   6.198  1.00  0.00     0.169 HD
HETATM   11  C   UNL     1      43.678 -18.509   3.000  1.00  0.00    -0.008 A 
HETATM   12  C   UNL     1      44.517 -19.984   4.737  1.00  0.00     0.031 A 
HETATM   13  C   UNL     1      43.738 -19.564   2.083  1.00  0.00     0.020 A 
HETATM   14  C   UNL     1      43.226 -17.173   2.608  1.00  0.00     0.028 A 
HETATM   15  C   UNL     1      44.197 -20.828   2.482  1.00  0.00    -0.061 A 
HETATM   16  C   UNL     1      44.238 -21.969   1.509  1.00  0.00     0.048 C 
HETATM   17  C   UNL     1      44.574 -21.032   3.817  1.00  0.00     0.009 A 
ENDBRANCH   4   5
ENDBRANCH   1   4
BRANCH   1  18
HETATM   18  C   UNL     1      40.470 -14.468   4.121  1.00  0.00     0.158 C 
BRANCH  18  19
HETATM   19  C   UNL     1      40.906 -13.399   5.146  1.00  0.00     0.139 C 
HETATM   20  O   UNL     1      40.144 -13.553   6.360  1.00  0.00    -0.384 OA
HETATM   21  C   UNL     1      39.197 -12.482   6.465  1.00  0.00     0.168 C 
HETATM   22  C   UNL     1      39.203 -11.755   5.139  1.00  0.00     0.029 C 
HETATM   23  C   UNL     1      40.615 -11.986   4.660  1.00  0.00     0.035 C 
ENDBRANCH  18  19
ENDBRANCH   1  18
BRANCH   2  24
HETATM   24  C   UNL     1      39.670 -13.627   1.346  1.00  0.00     0.034 A 
HETATM   25  C   UNL     1      39.451 -12.250   1.198  1.00  0.00     0.053 A 
HETATM   26  C   UNL     1      38.191 -11.779   0.836  1.00  0.00     0.069 A 
HETATM   27  C   UNL     1      37.144 -12.686   0.658  1.00  0.00     0.037 A 
HETATM   28  C   UNL     1      37.368 -14.061   0.771  1.00  0.00     0.004 A 
HETATM   29  C   UNL     1      38.640 -14.536   1.090  1.00  0.00     0.017 A 
BRANCH  26  30
HETATM   30  O   UNL     1      37.865 -10.464   0.646  1.00  0.00    -0.356 OA
HETATM   31  C   UNL     1      38.782  -9.711  -0.143  1.00  0.00     0.210 C 
ENDBRANCH  26  30
ENDBRANCH   2  24
TORSDOF 6
ENDMDL
MODEL 5
REMARK VINA RESULT:      -8.2      1.829      2.474
REMARK  6 active torsions:
REMARK  status: ('A' for Active; 'I' for Inactive)
REMARK    1  A    between atoms: C_9  and  C_10 
REMARK    2  A    between atoms: C_10  and  N_11 
REMARK       I    between atoms: N_11  and  C_12 
REMARK    3  A    between atoms: N_11  and  C_22 
REMARK    4  A    between atoms: C_12  and  C_13 
REMARK    5  A    between atoms: C_15  and  O_16 
REMARK    6  A    between atoms: C_22  and  C_23 
ROOT
HETATM    1  N   UNL     1      42.096 -15.707   3.324  1.00  0.00    -0.341 N 
HETATM    2  C   UNL     1      41.682 -17.041   3.435  1.00  0.00     0.254 C 
HETATM    3  O   UNL     1      40.525 -17.402   3.221  1.00  0.00    -0.267 OA
ENDROOT
BRANCH   1   4
HETATM    4  C   UNL     1      41.028 -14.712   3.137  1.00  0.00     0.170 C 
BRANCH   4   5
HETATM    5  C   UNL     1      40.788 -14.342   1.696  1.00  0.00     0.029 A 
HETATM    6  C   UNL     1      39.447 -14.784   1.192  1.00  0.00     0.253 A 
HETATM    7  N   UNL     1      39.149 -14.527  -0.117  1.00  0.00    -0.322 N 
HETATM    8  O   UNL     1      38.632 -15.342   1.922  1.00  0.00    -0.268 OA
HETATM    9  C   UNL     1      40.014 -13.874  -0.997  1.00  0.00     0.045 A 
HETATM   10  H   UNL     1      38.243 -14.846  -0.432  1.00  0.00     0.169 HD
HETATM   11  C   UNL     1      41.260 -13.440  -0.531  1.00  0.00    -0.008 A 
HETATM   12  C   UNL     1      39.630 -13.658  -2.318  1.00  0.00     0.031 A 
HETATM   13  C   UNL     1      42.129 -12.786  -1.411  1.00  0.00     0.020 A 
HETATM   14  C   UNL     1      41.625 -13.694   0.864  1.00  0.00     0.028 A 
HETATM   15  C   UNL     1      41.761 -12.576  -2.749  1.00  0.00    -0.061 A 
HETATM   16  C   UNL     1      42.679 -11.852  -3.690  1.00  0.00     0.048 C 
HETATM   17  C   UNL     1      40.502 -13.006  -3.191  1.00  0.00     0.009 A 
ENDBRANCH   4   5
ENDBRANCH   1   4
BRANCH   1  18
HETATM   18  C   UNL     1      43.378 -15.186   3.831  1.00  0.00     0.158 C 
BRANCH  18  19
HETATM   19  C   UNL     1      43.221 -14.191   5.001  1.00  0.00     0.139 C 
HETATM   20  O   UNL     1      44.490 -13.570   5.284  1.00  0.00    -0.384 OA
HETATM   21  C   UNL     1      45.010 -14.091   6.515  1.00  0.00     0.168 C 
HETATM   22  C   UNL     1      44.138 -15.267   6.900  1.00  0.00     0.029 C 
HETATM   23  C   UNL     1      42.811 -14.886   6.293  1.00  0.00     0.035 C 
ENDBRANCH  18  19
ENDBRANCH   1  18
BRANCH   2  24
HETATM   24  C   UNL     1      42.629 -18.098   3.858  1.00  0.00     0.034 A 
HETATM   25  C   UNL     1      43.262 -18.836   2.847  1.00  0.00     0.053 A 
HETATM   26  C   UNL     1      44.202 -19.809   3.178  1.00  0.00     0.069 A 
HETATM   27  C   UNL     1      44.480 -20.065   4.523  1.00  0.00     0.037 A 
HETATM   28  C   UNL     1      43.877 -19.307   5.530  1.00  0.00     0.004 A 
HETATM   29  C   UNL     1      42.969 -18.303   5.198  1.00  0.00     0.017 A 
BRANCH  26  30
HETATM   30  O   UNL     1      44.894 -20.575   2.281  1.00  0.00    -0.356 OA
HETATM   31  C   UNL     1      44.271 -21.802   1.910  1.00  0.00     0.210 C 
ENDBRANCH  26  30
ENDBRANCH   2  24
TORSDOF 6
ENDMDL
MODEL 6
REMARK VINA RESULT:      -8.1      1.912      2.881
REMARK  6 active torsions:
REMARK  status: ('A' for Active; 'I' for Inactive)
REMARK    1  A    between atoms: C_9  and  C_10 
REMARK    2  A    between atoms: C_10  and  N_11 
REMARK       I    between atoms: N_11  and  C_12 
REMARK    3  A    between atoms: N_11  and  C_22 
REMARK    4  A    between atoms: C_12  and  C_13 
REMARK    5  A    between atoms: C_15  and  O_16 
REMARK    6  A    between atoms: C_22  and  C_23 
ROOT
HETATM    1  N   UNL     1      42.458 -15.793   3.212  1.00  0.00    -0.341 N 
HETATM    2  C   UNL     1      42.035 -17.123   3.331  1.00  0.00     0.254 C 
HETATM    3  O   UNL     1      40.911 -17.500   3.000  1.00  0.00    -0.267 OA
ENDROOT
BRANCH   1   4
HETATM    4  C   UNL     1      41.418 -14.813   2.859  1.00  0.00     0.170 C 
BRANCH   4   5
HETATM    5  C   UNL     1      41.336 -14.520   1.383  1.00  0.00     0.029 A 
HETATM    6  C   UNL     1      42.034 -13.250   0.997  1.00  0.00     0.253 A 
HETATM    7  N   UNL     1      41.984 -12.876  -0.317  1.00  0.00    -0.322 N 
HETATM    8  O   UNL     1      42.644 -12.570   1.819  1.00  0.00    -0.268 OA
HETATM    9  C   UNL     1      41.334 -13.613  -1.309  1.00  0.00     0.045 A 
HETATM   10  H   UNL     1      42.453 -12.011  -0.545  1.00  0.00     0.169 HD
HETATM   11  C   UNL     1      40.697 -14.809  -0.963  1.00  0.00    -0.008 A 
HETATM   12  C   UNL     1      41.329 -13.154  -2.624  1.00  0.00     0.031 A 
HETATM   13  C   UNL     1      40.043 -15.547  -1.956  1.00  0.00     0.020 A 
HETATM   14  C   UNL     1      40.721 -15.249   0.433  1.00  0.00     0.028 A 
HETATM   15  C   UNL     1      40.018 -15.089  -3.282  1.00  0.00    -0.061 A 
HETATM   16  C   UNL     1      39.340 -15.891  -4.355  1.00  0.00     0.048 C 
HETATM   17  C   UNL     1      40.675 -13.895  -3.609  1.00  0.00     0.009 A 
ENDBRANCH   4   5
ENDBRANCH   1   4
BRANCH   1  18
HETATM   18  C   UNL     1      43.671 -15.243   3.842  1.00  0.00     0.158 C 
BRANCH  18  19
HETATM   19  C   UNL     1      43.376 -14.234   4.973  1.00  0.00     0.139 C 
HETATM   20  O   UNL     1      44.594 -13.563   5.353  1.00  0.00    -0.384 OA
HETATM   21  C   UNL     1      45.020 -14.043   6.636  1.00  0.00     0.168 C 
HETATM   22  C   UNL     1      44.159 -15.242   6.967  1.00  0.00     0.029 C 
HETATM   23  C   UNL     1      42.878 -14.921   6.238  1.00  0.00     0.035 C 
ENDBRANCH  18  19
ENDBRANCH   1  18
BRANCH   2  24
HETATM   24  C   UNL     1      42.926 -18.156   3.907  1.00  0.00     0.034 A 
HETATM   25  C   UNL     1      42.846 -18.375   5.290  1.00  0.00     0.053 A 
HETATM   26  C   UNL     1      43.620 -19.369   5.885  1.00  0.00     0.069 A 
HETATM   27  C   UNL     1      44.498 -20.118   5.098  1.00  0.00     0.037 A 
HETATM   28  C   UNL     1      44.554 -19.926   3.715  1.00  0.00     0.004 A 
HETATM   29  C   UNL     1      43.747 -18.961   3.113  1.00  0.00     0.017 A 
BRANCH  26  30
HETATM   30  O   UNL     1      43.612 -19.684   7.216  1.00  0.00    -0.356 OA
HETATM   31  C   UNL     1      44.127 -18.681   8.089  1.00  0.00     0.210 C 
ENDBRANCH  26  30
ENDBRANCH   2  24
TORSDOF 6
ENDMDL
MODEL 7
REMARK VINA RESULT:      -8.1      1.375      2.110
REMARK  6 active torsions:
REMARK  status: ('A' for Active; 'I' for Inactive)
REMARK    1  A    between atoms: C_9  and  C_10 
REMARK    2  A    between atoms: C_10  and  N_11 
REMARK       I    between atoms: N_11  and  C_12 
REMARK    3  A    between atoms: N_11  and  C_22 
REMARK    4  A    between atoms: C_12  and  C_13 
REMARK    5  A    between atoms: C_15  and  O_16 
REMARK    6  A    between atoms: C_22  and  C_23 
ROOT
HETATM    1  N   UNL     1      42.318 -15.634   3.060  1.00  0.00    -0.341 N 
HETATM    2  C   UNL     1      41.956 -16.970   2.845  1.00  0.00     0.254 C 
HETATM    3  O   UNL     1      40.856 -17.302   2.405  1.00  0.00    -0.267 OA
ENDROOT
BRANCH   1   4
HETATM    4  C   UNL     1      41.239 -14.642   2.927  1.00  0.00     0.170 C 
BRANCH   4   5
HETATM    5  C   UNL     1      41.516 -13.577   1.898  1.00  0.00     0.029 A 
HETATM    6  C   UNL     1      41.584 -12.198   2.484  1.00  0.00     0.253 A 
HETATM    7  N   UNL     1      41.794 -11.156   1.624  1.00  0.00    -0.322 N 
HETATM    8  O   UNL     1      41.472 -12.001   3.692  1.00  0.00    -0.268 OA
HETATM    9  C   UNL     1      41.957 -11.309   0.246  1.00  0.00     0.045 A 
HETATM   10  H   UNL     1      41.824 -10.239   2.045  1.00  0.00     0.169 HD
HETATM   11  C   UNL     1      41.915 -12.592  -0.308  1.00  0.00    -0.008 A 
HETATM   12  C   UNL     1      42.162 -10.190  -0.557  1.00  0.00     0.031 A 
HETATM   13  C   UNL     1      42.076 -12.747  -1.689  1.00  0.00     0.020 A 
HETATM   14  C   UNL     1      41.690 -13.740   0.573  1.00  0.00     0.028 A 
HETATM   15  C   UNL     1      42.269 -11.627  -2.512  1.00  0.00    -0.061 A 
HETATM   16  C   UNL     1      42.468 -11.789  -3.991  1.00  0.00     0.048 C 
HETATM   17  C   UNL     1      42.322 -10.350  -1.935  1.00  0.00     0.009 A 
ENDBRANCH   4   5
ENDBRANCH   1   4
BRANCH   1  18
HETATM   18  C   UNL     1      43.496 -15.202   3.833  1.00  0.00     0.158 C 
BRANCH  18  19
HETATM   19  C   UNL     1      43.139 -14.448   5.133  1.00  0.00     0.139 C 
HETATM   20  O   UNL     1      44.214 -13.556   5.487  1.00  0.00    -0.384 OA
HETATM   21  C   UNL     1      44.908 -14.079   6.628  1.00  0.00     0.168 C 
HETATM   22  C   UNL     1      44.392 -15.483   6.854  1.00  0.00     0.029 C 
HETATM   23  C   UNL     1      42.984 -15.391   6.318  1.00  0.00     0.035 C 
ENDBRANCH  18  19
ENDBRANCH   1  18
BRANCH   2  24
HETATM   24  C   UNL     1      42.887 -18.073   3.177  1.00  0.00     0.034 A 
HETATM   25  C   UNL     1      42.959 -18.470   4.521  1.00  0.00     0.053 A 
HETATM   26  C   UNL     1      43.776 -19.536   4.890  1.00  0.00     0.069 A 
HETATM   27  C   UNL     1      44.545 -20.181   3.917  1.00  0.00     0.037 A 
HETATM   28  C   UNL     1      44.447 -19.810   2.574  1.00  0.00     0.004 A 
HETATM   29  C   UNL     1      43.597 -18.772   2.197  1.00  0.00     0.017 A 
BRANCH  26  30
HETATM   30  O   UNL     1      43.913 -20.021   6.161  1.00  0.00    -0.356 OA
HETATM   31  C   UNL     1      43.704 -19.075   7.207  1.00  0.00     0.210 C 
ENDBRANCH  26  30
ENDBRANCH   2  24
TORSDOF 6
ENDMDL
MODEL 8
REMARK VINA RESULT:      -7.9      2.235      8.545
REMARK  6 active torsions:
REMARK  status: ('A' for Active; 'I' for Inactive)
REMARK    1  A    between atoms: C_9  and  C_10 
REMARK    2  A    between atoms: C_10  and  N_11 
REMARK       I    between atoms: N_11  and  C_12 
REMARK    3  A    between atoms: N_11  and  C_22 
REMARK    4  A    between atoms: C_12  and  C_13 
REMARK    5  A    between atoms: C_15  and  O_16 
REMARK    6  A    between atoms: C_22  and  C_23 
ROOT
HETATM    1  N   UNL     1      40.754 -14.422   1.072  1.00  0.00    -0.341 N 
HETATM    2  C   UNL     1      40.288 -13.163   1.474  1.00  0.00     0.254 C 
HETATM    3  O   UNL     1      39.532 -13.004   2.432  1.00  0.00    -0.267 OA
ENDROOT
BRANCH   1   4
HETATM    4  C   UNL     1      40.130 -15.582   1.730  1.00  0.00     0.170 C 
BRANCH   4   5
HETATM    5  C   UNL     1      41.122 -16.567   2.291  1.00  0.00     0.029 A 
HETATM    6  C   UNL     1      41.658 -16.162   3.632  1.00  0.00     0.253 A 
HETATM    7  N   UNL     1      42.594 -16.973   4.209  1.00  0.00    -0.322 N 
HETATM    8  O   UNL     1      41.266 -15.149   4.207  1.00  0.00    -0.268 OA
HETATM    9  C   UNL     1      43.065 -18.152   3.627  1.00  0.00     0.045 A 
HETATM   10  H   UNL     1      42.945 -16.669   5.107  1.00  0.00     0.169 HD
HETATM   11  C   UNL     1      42.558 -18.549   2.386  1.00  0.00    -0.008 A 
HETATM   12  C   UNL     1      44.026 -18.916   4.285  1.00  0.00     0.031 A 
HETATM   13  C   UNL     1      43.029 -19.729   1.800  1.00  0.00     0.020 A 
HETATM   14  C   UNL     1      41.554 -17.711   1.727  1.00  0.00     0.028 A 
HETATM   15  C   UNL     1      44.008 -20.501   2.444  1.00  0.00    -0.061 A 
HETATM   16  C   UNL     1      44.498 -21.781   1.832  1.00  0.00     0.048 C 
HETATM   17  C   UNL     1      44.493 -20.092   3.695  1.00  0.00     0.009 A 
ENDBRANCH   4   5
ENDBRANCH   1   4
BRANCH   1  18
HETATM   18  C   UNL     1      41.422 -14.694  -0.213  1.00  0.00     0.158 C 
BRANCH  18  19
HETATM   19  C   UNL     1      40.471 -15.244  -1.298  1.00  0.00     0.139 C 
HETATM   20  O   UNL     1      41.235 -15.651  -2.451  1.00  0.00    -0.384 OA
HETATM   21  C   UNL     1      41.024 -14.713  -3.515  1.00  0.00     0.168 C 
HETATM   22  C   UNL     1      40.279 -13.536  -2.925  1.00  0.00     0.029 C 
HETATM   23  C   UNL     1      39.504 -14.183  -1.804  1.00  0.00     0.035 C 
ENDBRANCH  18  19
ENDBRANCH   1  18
BRANCH   2  24
HETATM   24  C   UNL     1      40.661 -11.940   0.727  1.00  0.00     0.034 A 
HETATM   25  C   UNL     1      42.028 -11.712   0.510  1.00  0.00     0.053 A 
HETATM   26  C   UNL     1      42.442 -10.607  -0.231  1.00  0.00     0.069 A 
HETATM   27  C   UNL     1      41.487  -9.714  -0.723  1.00  0.00     0.037 A 
HETATM   28  C   UNL     1      40.123  -9.959  -0.539  1.00  0.00     0.004 A 
HETATM   29  C   UNL     1      39.707 -11.088   0.165  1.00  0.00     0.017 A 
BRANCH  26  30
HETATM   30  O   UNL     1      43.741 -10.293  -0.520  1.00  0.00    -0.356 OA
HETATM   31  C   UNL     1      43.933  -9.094  -1.267  1.00  0.00     0.210 C 
ENDBRANCH  26  30
ENDBRANCH   2  24
TORSDOF 6
ENDMDL
MODEL 9
REMARK VINA RESULT:      -7.7      2.111      4.099
REMARK  6 active torsions:
REMARK  status: ('A' for Active; 'I' for Inactive)
REMARK    1  A    between atoms: C_9  and  C_10 
REMARK    2  A    between atoms: C_10  and  N_11 
REMARK       I    between atoms: N_11  and  C_12 
REMARK    3  A    between atoms: N_11  and  C_22 
REMARK    4  A    between atoms: C_12  and  C_13 
REMARK    5  A    between atoms: C_15  and  O_16 
REMARK    6  A    between atoms: C_22  and  C_23 
ROOT
HETATM    1  N   UNL     1      40.799 -14.994   3.336  1.00  0.00    -0.341 N 
HETATM    2  C   UNL     1      40.642 -14.914   4.726  1.00  0.00     0.254 C 
HETATM    3  O   UNL     1      39.712 -14.308   5.260  1.00  0.00    -0.267 OA
ENDROOT
BRANCH   1   4
HETATM    4  C   UNL     1      39.907 -14.141   2.534  1.00  0.00     0.170 C 
BRANCH   4   5
HETATM    5  C   UNL     1      40.634 -13.234   1.576  1.00  0.00     0.029 A 
HETATM    6  C   UNL     1      41.251 -12.043   2.247  1.00  0.00     0.253 A 
HETATM    7  N   UNL     1      41.902 -11.138   1.456  1.00  0.00    -0.322 N 
HETATM    8  O   UNL     1      41.192 -11.883   3.464  1.00  0.00    -0.268 OA
HETATM    9  C   UNL     1      42.031 -11.270   0.071  1.00  0.00     0.045 A 
HETATM   10  H   UNL     1      42.297 -10.341   1.934  1.00  0.00     0.169 HD
HETATM   11  C   UNL     1      41.477 -12.387  -0.562  1.00  0.00    -0.008 A 
HETATM   12  C   UNL     1      42.708 -10.296  -0.659  1.00  0.00     0.031 A 
HETATM   13  C   UNL     1      41.604 -12.520  -1.949  1.00  0.00     0.020 A 
HETATM   14  C   UNL     1      40.768 -13.382   0.244  1.00  0.00     0.028 A 
HETATM   15  C   UNL     1      42.270 -11.539  -2.699  1.00  0.00    -0.061 A 
HETATM   16  C   UNL     1      42.432 -11.689  -4.184  1.00  0.00     0.048 C 
HETATM   17  C   UNL     1      42.830 -10.434  -2.042  1.00  0.00     0.009 A 
ENDBRANCH   4   5
ENDBRANCH   1   4
BRANCH   1  18
HETATM   18  C   UNL     1      42.023 -15.458   2.660  1.00  0.00     0.158 C 
BRANCH  18  19
HETATM   19  C   UNL     1      41.910 -16.891   2.095  1.00  0.00     0.139 C 
HETATM   20  O   UNL     1      42.484 -17.827   3.029  1.00  0.00    -0.384 OA
HETATM   21  C   UNL     1      43.732 -18.308   2.513  1.00  0.00     0.168 C 
HETATM   22  C   UNL     1      44.071 -17.455   1.310  1.00  0.00     0.029 C 
HETATM   23  C   UNL     1      42.704 -17.063   0.807  1.00  0.00     0.035 C 
ENDBRANCH  18  19
ENDBRANCH   1  18
BRANCH   2  24
HETATM   24  C   UNL     1      41.626 -15.536   5.640  1.00  0.00     0.034 A 
HETATM   25  C   UNL     1      42.822 -14.839   5.868  1.00  0.00     0.053 A 
HETATM   26  C   UNL     1      43.766 -15.345   6.758  1.00  0.00     0.069 A 
HETATM   27  C   UNL     1      43.526 -16.567   7.391  1.00  0.00     0.037 A 
HETATM   28  C   UNL     1      42.321 -17.246   7.193  1.00  0.00     0.004 A 
HETATM   29  C   UNL     1      41.356 -16.717   6.336  1.00  0.00     0.017 A 
BRANCH  26  30
HETATM   30  O   UNL     1      44.955 -14.747   7.072  1.00  0.00    -0.356 OA
HETATM   31  C   UNL     1      44.855 -13.473   7.705  1.00  0.00     0.210 C 
ENDBRANCH  26  30
ENDBRANCH   2  24
TORSDOF 6
ENDMDL
MODEL 10
REMARK VINA RESULT:      -7.5      2.389      8.374
REMARK  6 active torsions:
REMARK  status: ('A' for Active; 'I' for Inactive)
REMARK    1  A    between atoms: C_9  and  C_10 
REMARK    2  A    between atoms: C_10  and  N_11 
REMARK       I    between atoms: N_11  and  C_12 
REMARK    3  A    between atoms: N_11  and  C_22 
REMARK    4  A    between atoms: C_12  and  C_13 
REMARK    5  A    between atoms: C_15  and  O_16 
REMARK    6  A    between atoms: C_22  and  C_23 
ROOT
HETATM    1  N   UNL     1      41.162 -14.144   0.820  1.00  0.00    -0.341 N 
HETATM    2  C   UNL     1      42.067 -13.076   0.755  1.00  0.00     0.254 C 
HETATM    3  O   UNL     1      42.702 -12.678   1.731  1.00  0.00    -0.267 OA
ENDROOT
BRANCH   1   4
HETATM    4  C   UNL     1      40.848 -14.644   2.167  1.00  0.00     0.170 C 
BRANCH   4   5
HETATM    5  C   UNL     1      41.685 -15.824   2.588  1.00  0.00     0.029 A 
HETATM    6  C   UNL     1      42.450 -15.580   3.855  1.00  0.00     0.253 A 
HETATM    7  N   UNL     1      43.270 -16.578   4.300  1.00  0.00    -0.322 N 
HETATM    8  O   UNL     1      42.340 -14.531   4.485  1.00  0.00    -0.268 OA
HETATM    9  C   UNL     1      43.423 -17.804   3.650  1.00  0.00     0.045 A 
HETATM   10  H   UNL     1      43.781 -16.381   5.149  1.00  0.00     0.169 HD
HETATM   11  C   UNL     1      42.700 -18.050   2.479  1.00  0.00    -0.008 A 
HETATM   12  C   UNL     1      44.286 -18.765   4.172  1.00  0.00     0.031 A 
HETATM   13  C   UNL     1      42.853 -19.278   1.825  1.00  0.00     0.020 A 
HETATM   14  C   UNL     1      41.810 -17.009   1.961  1.00  0.00     0.028 A 
HETATM   15  C   UNL     1      43.730 -20.248   2.332  1.00  0.00    -0.061 A 
HETATM   16  C   UNL     1      43.879 -21.577   1.649  1.00  0.00     0.048 C 
HETATM   17  C   UNL     1      44.435 -19.987   3.515  1.00  0.00     0.009 A 
ENDBRANCH   4   5
ENDBRANCH   1   4
BRANCH   1  18
HETATM   18  C   UNL     1      40.185 -14.475  -0.233  1.00  0.00     0.158 C 
BRANCH  18  19
HETATM   19  C   UNL     1      39.150 -13.358  -0.487  1.00  0.00     0.139 C 
HETATM   20  O   UNL     1      39.063 -12.504   0.671  1.00  0.00    -0.384 OA
HETATM   21  C   UNL     1      37.823 -12.748   1.348  1.00  0.00     0.168 C 
HETATM   22  C   UNL     1      37.210 -13.979   0.719  1.00  0.00     0.029 C 
HETATM   23  C   UNL     1      37.746 -13.913  -0.690  1.00  0.00     0.035 C 
ENDBRANCH  18  19
ENDBRANCH   1  18
BRANCH   2  24
HETATM   24  C   UNL     1      42.281 -12.336  -0.509  1.00  0.00     0.034 A 
HETATM   25  C   UNL     1      42.333 -10.936  -0.433  1.00  0.00     0.053 A 
HETATM   26  C   UNL     1      42.585 -10.185  -1.579  1.00  0.00     0.069 A 
HETATM   27  C   UNL     1      42.749 -10.835  -2.805  1.00  0.00     0.037 A 
HETATM   28  C   UNL     1      42.732 -12.231  -2.877  1.00  0.00     0.004 A 
HETATM   29  C   UNL     1      42.524 -12.985  -1.723  1.00  0.00     0.017 A 
BRANCH  26  30
HETATM   30  O   UNL     1      42.676  -8.821  -1.624  1.00  0.00    -0.356 OA
HETATM   31  C   UNL     1      42.772  -8.169  -0.360  1.00  0.00     0.210 C 
ENDBRANCH  26  30
ENDBRANCH   2  24
TORSDOF 6
ENDMDL
