MODEL 1
REMARK VINA RESULT:      -9.0      0.000      0.000
REMARK  2 active torsions:
REMARK  status: ('A' for Active; 'I' for Inactive)
REMARK    1  A    between atoms: C_9  and  C_10 
REMARK       I    between atoms: C_10  and  N_11 
REMARK    2  A    between atoms: N_11  and  N_12 
ROOT
HETATM    1  C   UNL     1      43.138 -16.547   3.219  1.00  0.00     0.291 C 
HETATM    2  N   UNL     1      41.828 -16.729   2.837  1.00  0.00    -0.251 N 
HETATM    3  O   UNL     1      43.840 -15.603   2.865  1.00  0.00    -0.264 OA
HETATM    4  H   UNL     1      41.346 -17.586   3.093  1.00  0.00     0.191 HD
ENDROOT
BRANCH   2   5
HETATM    5  N   UNL     1      41.185 -15.793   2.056  1.00  0.00    -0.167 N 
HETATM    6  C   UNL     1      41.107 -15.902   0.694  1.00  0.00     0.345 C 
HETATM    7  O   UNL     1      41.653 -16.719  -0.030  1.00  0.00    -0.245 OA
HETATM    8  N   UNL     1      40.218 -14.947   0.244  1.00  0.00    -0.323 N 
HETATM    9  C   UNL     1      39.574 -14.238   1.337  1.00  0.00     0.117 C 
HETATM   10  H   UNL     1      39.974 -14.885  -0.736  1.00  0.00     0.165 HD
HETATM   11  C   UNL     1      38.061 -14.486   1.364  1.00  0.00     0.041 C 
HETATM   12  C   UNL     1      39.919 -12.746   1.309  1.00  0.00     0.041 C 
HETATM   13  C   UNL     1      40.230 -14.936   2.547  1.00  0.00     0.275 C 
HETATM   14  C   UNL     1      37.329 -13.734   0.255  1.00  0.00     0.003 C 
HETATM   15  C   UNL     1      37.669 -12.247   0.265  1.00  0.00     0.000 C 
HETATM   16  C   UNL     1      39.175 -12.008   0.196  1.00  0.00     0.003 C 
HETATM   17  O   UNL     1      39.895 -14.776   3.715  1.00  0.00    -0.268 OA
ENDBRANCH   2   5
BRANCH   1  18
HETATM   18  C   UNL     1      43.606 -17.619   4.110  1.00  0.00     0.158 A 
HETATM   19  C   UNL     1      43.915 -18.965   3.757  1.00  0.00     0.029 A 
HETATM   20  C   UNL     1      43.909 -19.731   2.575  1.00  0.00     0.023 A 
HETATM   21  C   UNL     1      44.326 -19.564   4.942  1.00  0.00     0.063 A 
HETATM   22  C   UNL     1      44.325 -21.072   2.618  1.00  0.00    -0.061 A 
HETATM   23  C   UNL     1      44.346 -21.901   1.365  1.00  0.00     0.048 C 
HETATM   24  C   UNL     1      44.721 -21.640   3.835  1.00  0.00     0.009 A 
HETATM   25  C   UNL     1      44.728 -20.900   5.023  1.00  0.00     0.032 A 
HETATM   26  N   UNL     1      44.238 -18.585   5.891  1.00  0.00    -0.277 N 
HETATM   27  H   UNL     1      44.457 -18.667   6.878  1.00  0.00     0.189 HD
HETATM   28  N   UNL     1      43.831 -17.390   5.424  1.00  0.00    -0.168 NA
ENDBRANCH   1  18
TORSDOF 2
ENDMDL
MODEL 2
REMARK VINA RESULT:      -8.9      2.016      2.715
REMARK  2 active torsions:
REMARK  status: ('A' for Active; 'I' for Inactive)
REMARK    1  A    between atoms: C_9  and  C_10 
REMARK       I    between atoms: C_10  and  N_11 
REMARK    2  A    between atoms: N_11  and  N_12 
ROOT
HETATM    1  C   UNL     1      41.917 -16.317   2.900  1.00  0.00     0.291 C 
HETATM    2  N   UNL     1      42.585 -15.520   1.999  1.00  0.00    -0.251 N 
HETATM    3  O   UNL     1      40.694 -16.381   2.997  1.00  0.00    -0.264 OA
HETATM    4  H   UNL     1      43.597 -15.449   2.047  1.00  0.00     0.191 HD
ENDROOT
BRANCH   2   5
HETATM    5  N   UNL     1      41.892 -14.766   1.075  1.00  0.00    -0.167 N 
HETATM    6  C   UNL     1      41.984 -13.401   1.024  1.00  0.00     0.345 C 
HETATM    7  O   UNL     1      42.555 -12.654   1.801  1.00  0.00    -0.245 OA
HETATM    8  N   UNL     1      41.363 -12.980  -0.135  1.00  0.00    -0.323 N 
HETATM    9  C   UNL     1      40.936 -14.093  -0.966  1.00  0.00     0.117 C 
HETATM   10  H   UNL     1      41.359 -12.002  -0.395  1.00  0.00     0.165 HD
HETATM   11  C   UNL     1      41.669 -14.114  -2.312  1.00  0.00     0.041 C 
HETATM   12  C   UNL     1      39.414 -14.108  -1.131  1.00  0.00     0.041 C 
HETATM   13  C   UNL     1      41.411 -15.282  -0.104  1.00  0.00     0.275 C 
HETATM   14  C   UNL     1      41.171 -13.027  -3.261  1.00  0.00     0.003 C 
HETATM   15  C   UNL     1      39.656 -13.080  -3.430  1.00  0.00     0.000 C 
HETATM   16  C   UNL     1      38.932 -13.017  -2.088  1.00  0.00     0.003 C 
HETATM   17  O   UNL     1      41.402 -16.454  -0.461  1.00  0.00    -0.268 OA
ENDBRANCH   2   5
BRANCH   1  18
HETATM   18  C   UNL     1      42.841 -17.093   3.740  1.00  0.00     0.158 A 
HETATM   19  C   UNL     1      43.349 -18.401   3.489  1.00  0.00     0.029 A 
HETATM   20  C   UNL     1      43.209 -19.366   2.473  1.00  0.00     0.023 A 
HETATM   21  C   UNL     1      44.188 -18.675   4.562  1.00  0.00     0.063 A 
HETATM   22  C   UNL     1      43.921 -20.573   2.562  1.00  0.00    -0.061 A 
HETATM   23  C   UNL     1      43.802 -21.608   1.480  1.00  0.00     0.048 C 
HETATM   24  C   UNL     1      44.747 -20.815   3.667  1.00  0.00     0.009 A 
HETATM   25  C   UNL     1      44.896 -19.872   4.691  1.00  0.00     0.032 A 
HETATM   26  N   UNL     1      44.129 -17.566   5.358  1.00  0.00    -0.277 N 
HETATM   27  H   UNL     1      44.615 -17.416   6.236  1.00  0.00     0.189 HD
HETATM   28  N   UNL     1      43.346 -16.579   4.885  1.00  0.00    -0.168 NA
ENDBRANCH   1  18
TORSDOF 2
ENDMDL
MODEL 3
REMARK VINA RESULT:      -8.8      1.011      2.008
REMARK  2 active torsions:
REMARK  status: ('A' for Active; 'I' for Inactive)
REMARK    1  A    between atoms: C_9  and  C_10 
REMARK       I    between atoms: C_10  and  N_11 
REMARK    2  A    between atoms: N_11  and  N_12 
ROOT
HETATM    1  C   UNL     1      42.882 -16.673   3.849  1.00  0.00     0.291 C 
HETATM    2  N   UNL     1      41.517 -16.849   3.843  1.00  0.00    -0.251 N 
HETATM    3  O   UNL     1      43.461 -15.710   3.353  1.00  0.00    -0.264 OA
HETATM    4  H   UNL     1      41.122 -17.719   4.186  1.00  0.00     0.191 HD
ENDROOT
BRANCH   2   5
HETATM    5  N   UNL     1      40.684 -15.884   3.316  1.00  0.00    -0.167 N 
HETATM    6  C   UNL     1      40.326 -14.763   4.015  1.00  0.00     0.345 C 
HETATM    7  O   UNL     1      40.562 -14.494   5.181  1.00  0.00    -0.245 OA
HETATM    8  N   UNL     1      39.686 -13.908   3.139  1.00  0.00    -0.323 N 
HETATM    9  C   UNL     1      39.710 -14.401   1.773  1.00  0.00     0.117 C 
HETATM   10  H   UNL     1      39.380 -12.992   3.440  1.00  0.00     0.165 HD
HETATM   11  C   UNL     1      40.505 -13.473   0.846  1.00  0.00     0.041 C 
HETATM   12  C   UNL     1      38.294 -14.667   1.256  1.00  0.00     0.041 C 
HETATM   13  C   UNL     1      40.486 -15.721   1.966  1.00  0.00     0.275 C 
HETATM   14  C   UNL     1      39.747 -12.189   0.522  1.00  0.00     0.003 C 
HETATM   15  C   UNL     1      38.350 -12.481  -0.016  1.00  0.00     0.000 C 
HETATM   16  C   UNL     1      37.550 -13.370   0.932  1.00  0.00     0.003 C 
HETATM   17  O   UNL     1      40.888 -16.437   1.057  1.00  0.00    -0.268 OA
ENDBRANCH   2   5
BRANCH   1  18
HETATM   18  C   UNL     1      43.576 -17.780   4.524  1.00  0.00     0.158 A 
HETATM   19  C   UNL     1      43.855 -19.076   4.001  1.00  0.00     0.029 A 
HETATM   20  C   UNL     1      43.623 -19.750   2.786  1.00  0.00     0.023 A 
HETATM   21  C   UNL     1      44.539 -19.737   5.014  1.00  0.00     0.063 A 
HETATM   22  C   UNL     1      44.092 -21.064   2.624  1.00  0.00    -0.061 A 
HETATM   23  C   UNL     1      43.873 -21.796   1.330  1.00  0.00     0.048 C 
HETATM   24  C   UNL     1      44.767 -21.698   3.676  1.00  0.00     0.009 A 
HETATM   25  C   UNL     1      45.002 -21.049   4.893  1.00  0.00     0.032 A 
HETATM   26  N   UNL     1      44.620 -18.837   6.040  1.00  0.00    -0.277 N 
HETATM   27  H   UNL     1      45.052 -18.980   6.946  1.00  0.00     0.189 HD
HETATM   28  N   UNL     1      44.073 -17.636   5.774  1.00  0.00    -0.168 NA
ENDBRANCH   1  18
TORSDOF 2
ENDMDL
MODEL 4
REMARK VINA RESULT:      -8.5      2.010      2.332
REMARK  2 active torsions:
REMARK  status: ('A' for Active; 'I' for Inactive)
REMARK    1  A    between atoms: C_9  and  C_10 
REMARK       I    between atoms: C_10  and  N_11 
REMARK    2  A    between atoms: N_11  and  N_12 
ROOT
HETATM    1  C   UNL     1      43.282 -16.765   3.862  1.00  0.00     0.291 C 
HETATM    2  N   UNL     1      42.140 -16.277   4.455  1.00  0.00    -0.251 N 
HETATM    3  O   UNL     1      43.801 -16.287   2.856  1.00  0.00    -0.264 OA
HETATM    4  H   UNL     1      41.719 -16.787   5.226  1.00  0.00     0.191 HD
ENDROOT
BRANCH   2   5
HETATM    5  N   UNL     1      41.524 -15.141   3.972  1.00  0.00    -0.167 N 
HETATM    6  C   UNL     1      40.498 -15.191   3.068  1.00  0.00     0.345 C 
HETATM    7  O   UNL     1      40.056 -16.165   2.481  1.00  0.00    -0.245 OA
HETATM    8  N   UNL     1      39.962 -13.922   2.969  1.00  0.00    -0.323 N 
HETATM    9  C   UNL     1      40.558 -12.998   3.918  1.00  0.00     0.117 C 
HETATM   10  H   UNL     1      39.154 -13.744   2.386  1.00  0.00     0.165 HD
HETATM   11  C   UNL     1      39.532 -12.487   4.937  1.00  0.00     0.041 C 
HETATM   12  C   UNL     1      41.284 -11.857   3.200  1.00  0.00     0.041 C 
HETATM   13  C   UNL     1      41.561 -13.933   4.626  1.00  0.00     0.275 C 
HETATM   14  C   UNL     1      38.571 -11.468   4.331  1.00  0.00     0.003 C 
HETATM   15  C   UNL     1      39.317 -10.329   3.644  1.00  0.00     0.000 C 
HETATM   16  C   UNL     1      40.306 -10.845   2.603  1.00  0.00     0.003 C 
HETATM   17  O   UNL     1      42.211 -13.640   5.622  1.00  0.00    -0.268 OA
ENDBRANCH   2   5
BRANCH   1  18
HETATM   18  C   UNL     1      43.818 -17.933   4.576  1.00  0.00     0.158 A 
HETATM   19  C   UNL     1      44.026 -19.244   4.058  1.00  0.00     0.029 A 
HETATM   20  C   UNL     1      43.840 -19.887   2.819  1.00  0.00     0.023 A 
HETATM   21  C   UNL     1      44.562 -19.970   5.115  1.00  0.00     0.063 A 
HETATM   22  C   UNL     1      44.205 -21.236   2.677  1.00  0.00    -0.061 A 
HETATM   23  C   UNL     1      44.034 -21.935   1.359  1.00  0.00     0.048 C 
HETATM   24  C   UNL     1      44.731 -21.934   3.772  1.00  0.00     0.009 A 
HETATM   25  C   UNL     1      44.918 -21.317   5.014  1.00  0.00     0.032 A 
HETATM   26  N   UNL     1      44.634 -19.089   6.158  1.00  0.00    -0.277 N 
HETATM   27  H   UNL     1      44.973 -19.276   7.095  1.00  0.00     0.189 HD
HETATM   28  N   UNL     1      44.217 -17.843   5.865  1.00  0.00    -0.168 NA
ENDBRANCH   1  18
TORSDOF 2
ENDMDL
MODEL 5
REMARK VINA RESULT:      -8.4      1.403      1.785
REMARK  2 active torsions:
REMARK  status: ('A' for Active; 'I' for Inactive)
REMARK    1  A    between atoms: C_9  and  C_10 
REMARK       I    between atoms: C_10  and  N_11 
REMARK    2  A    between atoms: N_11  and  N_12 
ROOT
HETATM    1  C   UNL     1      42.371 -16.530   3.243  1.00  0.00     0.291 C 
HETATM    2  N   UNL     1      43.076 -15.979   2.197  1.00  0.00    -0.251 N 
HETATM    3  O   UNL     1      41.186 -16.305   3.476  1.00  0.00    -0.264 OA
HETATM    4  H   UNL     1      44.078 -16.137   2.130  1.00  0.00     0.191 HD
ENDROOT
BRANCH   2   5
HETATM    5  N   UNL     1      42.453 -15.163   1.278  1.00  0.00    -0.167 N 
HETATM    6  C   UNL     1      41.587 -15.647   0.335  1.00  0.00     0.345 C 
HETATM    7  O   UNL     1      41.322 -16.810   0.080  1.00  0.00    -0.245 OA
HETATM    8  N   UNL     1      40.972 -14.567  -0.266  1.00  0.00    -0.323 N 
HETATM    9  C   UNL     1      41.336 -13.308   0.360  1.00  0.00     0.117 C 
HETATM   10  H   UNL     1      40.252 -14.702  -0.965  1.00  0.00     0.165 HD
HETATM   11  C   UNL     1      40.126 -12.622   1.006  1.00  0.00     0.041 C 
HETATM   12  C   UNL     1      42.069 -12.391  -0.623  1.00  0.00     0.041 C 
HETATM   13  C   UNL     1      42.290 -13.811   1.464  1.00  0.00     0.275 C 
HETATM   14  C   UNL     1      39.190 -12.001  -0.028  1.00  0.00     0.003 C 
HETATM   15  C   UNL     1      39.939 -11.073  -0.979  1.00  0.00     0.000 C 
HETATM   16  C   UNL     1      41.117 -11.776  -1.649  1.00  0.00     0.003 C 
HETATM   17  O   UNL     1      42.751 -13.117   2.362  1.00  0.00    -0.268 OA
ENDBRANCH   2   5
BRANCH   1  18
HETATM   18  C   UNL     1      43.203 -17.427   4.057  1.00  0.00     0.158 A 
HETATM   19  C   UNL     1      43.643 -18.742   3.723  1.00  0.00     0.029 A 
HETATM   20  C   UNL     1      43.494 -19.613   2.627  1.00  0.00     0.023 A 
HETATM   21  C   UNL     1      44.409 -19.154   4.807  1.00  0.00     0.063 A 
HETATM   22  C   UNL     1      44.126 -20.867   2.649  1.00  0.00    -0.061 A 
HETATM   23  C   UNL     1      43.997 -21.804   1.482  1.00  0.00     0.048 C 
HETATM   24  C   UNL     1      44.880 -21.248   3.766  1.00  0.00     0.009 A 
HETATM   25  C   UNL     1      45.036 -20.400   4.869  1.00  0.00     0.032 A 
HETATM   26  N   UNL     1      44.379 -18.109   5.687  1.00  0.00    -0.277 N 
HETATM   27  H   UNL     1      44.829 -18.060   6.595  1.00  0.00     0.189 HD
HETATM   28  N   UNL     1      43.682 -17.039   5.261  1.00  0.00    -0.168 NA
ENDBRANCH   1  18
TORSDOF 2
ENDMDL
MODEL 6
REMARK VINA RESULT:      -8.3      2.361      3.121
REMARK  2 active torsions:
REMARK  status: ('A' for Active; 'I' for Inactive)
REMARK    1  A    between atoms: C_9  and  C_10 
REMARK       I    between atoms: C_10  and  N_11 
REMARK    2  A    between atoms: N_11  and  N_12 
ROOT
HETATM    1  C   UNL     1      41.650 -15.348   3.349  1.00  0.00     0.291 C 
HETATM    2  N   UNL     1      42.483 -15.279   2.256  1.00  0.00    -0.251 N 
HETATM    3  O   UNL     1      40.424 -15.293   3.292  1.00  0.00    -0.264 OA
HETATM    4  H   UNL     1      43.489 -15.233   2.395  1.00  0.00     0.191 HD
ENDROOT
BRANCH   2   5
HETATM    5  N   UNL     1      41.968 -15.205   0.979  1.00  0.00    -0.167 N 
HETATM    6  C   UNL     1      41.430 -16.290   0.341  1.00  0.00     0.345 C 
HETATM    7  O   UNL     1      41.417 -17.453   0.710  1.00  0.00    -0.245 OA
HETATM    8  N   UNL     1      40.808 -15.838  -0.806  1.00  0.00    -0.323 N 
HETATM    9  C   UNL     1      40.816 -14.389  -0.901  1.00  0.00     0.117 C 
HETATM   10  H   UNL     1      40.299 -16.475  -1.405  1.00  0.00     0.165 HD
HETATM   11  C   UNL     1      39.398 -13.807  -0.860  1.00  0.00     0.041 C 
HETATM   12  C   UNL     1      41.602 -13.918  -2.128  1.00  0.00     0.041 C 
HETATM   13  C   UNL     1      41.556 -14.027   0.403  1.00  0.00     0.275 C 
HETATM   14  C   UNL     1      38.640 -14.033  -2.166  1.00  0.00     0.003 C 
HETATM   15  C   UNL     1      39.432 -13.532  -3.369  1.00  0.00     0.000 C 
HETATM   16  C   UNL     1      40.828 -14.148  -3.426  1.00  0.00     0.003 C 
HETATM   17  O   UNL     1      41.684 -12.892   0.846  1.00  0.00    -0.268 OA
ENDBRANCH   2   5
BRANCH   1  18
HETATM   18  C   UNL     1      42.399 -15.499   4.605  1.00  0.00     0.158 A 
HETATM   19  C   UNL     1      43.215 -16.600   5.000  1.00  0.00     0.029 A 
HETATM   20  C   UNL     1      43.600 -17.831   4.435  1.00  0.00     0.023 A 
HETATM   21  C   UNL     1      43.710 -16.253   6.251  1.00  0.00     0.063 A 
HETATM   22  C   UNL     1      44.476 -18.672   5.140  1.00  0.00    -0.061 A 
HETATM   23  C   UNL     1      44.916 -19.980   4.547  1.00  0.00     0.048 C 
HETATM   24  C   UNL     1      44.943 -18.289   6.404  1.00  0.00     0.009 A 
HETATM   25  C   UNL     1      44.568 -17.073   6.987  1.00  0.00     0.032 A 
HETATM   26  N   UNL     1      43.180 -15.022   6.519  1.00  0.00    -0.277 N 
HETATM   27  H   UNL     1      43.323 -14.462   7.353  1.00  0.00     0.189 HD
HETATM   28  N   UNL     1      42.403 -14.522   5.540  1.00  0.00    -0.168 NA
ENDBRANCH   1  18
TORSDOF 2
ENDMDL
MODEL 7
REMARK VINA RESULT:      -8.1      2.508      3.463
REMARK  2 active torsions:
REMARK  status: ('A' for Active; 'I' for Inactive)
REMARK    1  A    between atoms: C_9  and  C_10 
REMARK       I    between atoms: C_10  and  N_11 
REMARK    2  A    between atoms: N_11  and  N_12 
ROOT
HETATM    1  C   UNL     1      43.420 -17.569   2.796  1.00  0.00     0.291 C 
HETATM    2  N   UNL     1      42.278 -17.350   3.532  1.00  0.00    -0.251 N 
HETATM    3  O   UNL     1      43.987 -16.714   2.121  1.00  0.00    -0.264 OA
HETATM    4  H   UNL     1      41.816 -18.133   3.985  1.00  0.00     0.191 HD
ENDROOT
BRANCH   2   5
HETATM    5  N   UNL     1      41.718 -16.092   3.607  1.00  0.00    -0.167 N 
HETATM    6  C   UNL     1      40.584 -15.752   2.921  1.00  0.00     0.345 C 
HETATM    7  O   UNL     1      39.978 -16.410   2.091  1.00  0.00    -0.245 OA
HETATM    8  N   UNL     1      40.165 -14.520   3.383  1.00  0.00    -0.323 N 
HETATM    9  C   UNL     1      40.965 -14.052   4.502  1.00  0.00     0.117 C 
HETATM   10  H   UNL     1      39.310 -14.101   3.042  1.00  0.00     0.165 HD
HETATM   11  C   UNL     1      40.134 -13.926   5.784  1.00  0.00     0.041 C 
HETATM   12  C   UNL     1      41.699 -12.754   4.154  1.00  0.00     0.041 C 
HETATM   13  C   UNL     1      41.956 -15.226   4.647  1.00  0.00     0.275 C 
HETATM   14  C   UNL     1      39.205 -12.715   5.756  1.00  0.00     0.003 C 
HETATM   15  C   UNL     1      39.963 -11.431   5.433  1.00  0.00     0.000 C 
HETATM   16  C   UNL     1      40.755 -11.551   4.134  1.00  0.00     0.003 C 
HETATM   17  O   UNL     1      42.754 -15.361   5.566  1.00  0.00    -0.268 OA
ENDBRANCH   2   5
BRANCH   1  18
HETATM   18  C   UNL     1      43.892 -18.957   2.913  1.00  0.00     0.158 A 
HETATM   19  C   UNL     1      44.032 -19.727   4.104  1.00  0.00     0.029 A 
HETATM   20  C   UNL     1      43.803 -19.520   5.478  1.00  0.00     0.023 A 
HETATM   21  C   UNL     1      44.492 -20.969   3.681  1.00  0.00     0.063 A 
HETATM   22  C   UNL     1      44.037 -20.568   6.384  1.00  0.00    -0.061 A 
HETATM   23  C   UNL     1      43.781 -20.376   7.852  1.00  0.00     0.048 C 
HETATM   24  C   UNL     1      44.512 -21.800   5.917  1.00  0.00     0.009 A 
HETATM   25  C   UNL     1      44.752 -22.026   4.556  1.00  0.00     0.032 A 
HETATM   26  N   UNL     1      44.601 -20.868   2.322  1.00  0.00    -0.277 N 
HETATM   27  H   UNL     1      44.914 -21.587   1.679  1.00  0.00     0.189 HD
HETATM   28  N   UNL     1      44.225 -19.678   1.818  1.00  0.00    -0.168 NA
ENDBRANCH   1  18
TORSDOF 2
ENDMDL
MODEL 8
REMARK VINA RESULT:      -8.1      3.507      4.727
REMARK  2 active torsions:
REMARK  status: ('A' for Active; 'I' for Inactive)
REMARK    1  A    between atoms: C_9  and  C_10 
REMARK       I    between atoms: C_10  and  N_11 
REMARK    2  A    between atoms: N_11  and  N_12 
ROOT
HETATM    1  C   UNL     1      41.589 -16.376   4.462  1.00  0.00     0.291 C 
HETATM    2  N   UNL     1      41.893 -15.063   4.184  1.00  0.00    -0.251 N 
HETATM    3  O   UNL     1      41.086 -16.765   5.513  1.00  0.00    -0.264 OA
HETATM    4  H   UNL     1      42.397 -14.835   3.332  1.00  0.00     0.191 HD
ENDROOT
BRANCH   2   5
HETATM    5  N   UNL     1      41.579 -14.062   5.079  1.00  0.00    -0.167 N 
HETATM    6  C   UNL     1      42.505 -13.522   5.930  1.00  0.00     0.345 C 
HETATM    7  O   UNL     1      43.655 -13.882   6.120  1.00  0.00    -0.245 OA
HETATM    8  N   UNL     1      41.939 -12.408   6.517  1.00  0.00    -0.323 N 
HETATM    9  C   UNL     1      40.629 -12.103   5.968  1.00  0.00     0.117 C 
HETATM   10  H   UNL     1      42.473 -11.826   7.149  1.00  0.00     0.165 HD
HETATM   11  C   UNL     1      40.613 -10.748   5.251  1.00  0.00     0.041 C 
HETATM   12  C   UNL     1      39.541 -12.208   7.040  1.00  0.00     0.041 C 
HETATM   13  C   UNL     1      40.492 -13.235   4.928  1.00  0.00     0.275 C 
HETATM   14  C   UNL     1      40.635  -9.575   6.227  1.00  0.00     0.003 C 
HETATM   15  C   UNL     1      39.526  -9.688   7.268  1.00  0.00     0.000 C 
HETATM   16  C   UNL     1      39.575 -11.023   8.006  1.00  0.00     0.003 C 
HETATM   17  O   UNL     1      39.597 -13.319   4.096  1.00  0.00    -0.268 OA
ENDBRANCH   2   5
BRANCH   1  18
HETATM   18  C   UNL     1      41.935 -17.270   3.347  1.00  0.00     0.158 A 
HETATM   19  C   UNL     1      42.808 -18.397   3.380  1.00  0.00     0.029 A 
HETATM   20  C   UNL     1      43.592 -19.045   4.354  1.00  0.00     0.023 A 
HETATM   21  C   UNL     1      42.786 -18.909   2.088  1.00  0.00     0.063 A 
HETATM   22  C   UNL     1      44.323 -20.192   4.003  1.00  0.00    -0.061 A 
HETATM   23  C   UNL     1      45.150 -20.910   5.030  1.00  0.00     0.048 C 
HETATM   24  C   UNL     1      44.282 -20.668   2.686  1.00  0.00     0.009 A 
HETATM   25  C   UNL     1      43.514 -20.036   1.701  1.00  0.00     0.032 A 
HETATM   26  N   UNL     1      41.942 -18.091   1.391  1.00  0.00    -0.277 N 
HETATM   27  H   UNL     1      41.690 -18.163   0.411  1.00  0.00     0.189 HD
HETATM   28  N   UNL     1      41.390 -17.105   2.121  1.00  0.00    -0.168 NA
ENDBRANCH   1  18
TORSDOF 2
ENDMDL
MODEL 9
REMARK VINA RESULT:      -8.1      3.361      4.393
REMARK  2 active torsions:
REMARK  status: ('A' for Active; 'I' for Inactive)
REMARK    1  A    between atoms: C_9  and  C_10 
REMARK       I    between atoms: C_10  and  N_11 
REMARK    2  A    between atoms: N_11  and  N_12 
ROOT
HETATM    1  C   UNL     1      42.924 -17.081   6.535  1.00  0.00     0.291 C 
HETATM    2  N   UNL     1      42.993 -16.043   5.633  1.00  0.00    -0.251 N 
HETATM    3  O   UNL     1      42.443 -16.991   7.661  1.00  0.00    -0.264 OA
HETATM    4  H   UNL     1      43.493 -16.172   4.759  1.00  0.00     0.191 HD
ENDROOT
BRANCH   2   5
HETATM    5  N   UNL     1      42.447 -14.813   5.931  1.00  0.00    -0.167 N 
HETATM    6  C   UNL     1      43.174 -13.809   6.511  1.00  0.00     0.345 C 
HETATM    7  O   UNL     1      44.313 -13.856   6.945  1.00  0.00    -0.245 OA
HETATM    8  N   UNL     1      42.414 -12.657   6.464  1.00  0.00    -0.323 N 
HETATM    9  C   UNL     1      41.177 -12.844   5.726  1.00  0.00     0.117 C 
HETATM   10  H   UNL     1      42.785 -11.776   6.798  1.00  0.00     0.165 HD
HETATM   11  C   UNL     1      41.129 -11.975   4.464  1.00  0.00     0.041 C 
HETATM   12  C   UNL     1      39.957 -12.632   6.626  1.00  0.00     0.041 C 
HETATM   13  C   UNL     1      41.315 -14.327   5.321  1.00  0.00     0.275 C 
HETATM   14  C   UNL     1      40.884 -10.502   4.783  1.00  0.00     0.003 C 
HETATM   15  C   UNL     1      39.649 -10.314   5.658  1.00  0.00     0.000 C 
HETATM   16  C   UNL     1      39.723 -11.152   6.932  1.00  0.00     0.003 C 
HETATM   17  O   UNL     1      40.568 -14.916   4.549  1.00  0.00    -0.268 OA
ENDBRANCH   2   5
BRANCH   1  18
HETATM   18  C   UNL     1      43.494 -18.322   5.991  1.00  0.00     0.158 A 
HETATM   19  C   UNL     1      43.709 -18.649   4.620  1.00  0.00     0.029 A 
HETATM   20  C   UNL     1      43.501 -18.013   3.381  1.00  0.00     0.023 A 
HETATM   21  C   UNL     1      44.281 -19.916   4.635  1.00  0.00     0.063 A 
HETATM   22  C   UNL     1      43.882 -18.664   2.196  1.00  0.00    -0.061 A 
HETATM   23  C   UNL     1      43.688 -17.995   0.865  1.00  0.00     0.048 C 
HETATM   24  C   UNL     1      44.445 -19.945   2.256  1.00  0.00     0.009 A 
HETATM   25  C   UNL     1      44.654 -20.599   3.475  1.00  0.00     0.032 A 
HETATM   26  N   UNL     1      44.366 -20.257   5.956  1.00  0.00    -0.277 N 
HETATM   27  H   UNL     1      44.732 -21.120   6.343  1.00  0.00     0.189 HD
HETATM   28  N   UNL     1      43.924 -19.312   6.807  1.00  0.00    -0.168 NA
ENDBRANCH   1  18
TORSDOF 2
ENDMDL
MODEL 10
REMARK VINA RESULT:      -8.0      1.533      2.299
REMARK  2 active torsions:
REMARK  status: ('A' for Active; 'I' for Inactive)
REMARK    1  A    between atoms: C_9  and  C_10 
REMARK       I    between atoms: C_10  and  N_11 
REMARK    2  A    between atoms: N_11  and  N_12 
ROOT
HETATM    1  C   UNL     1      43.115 -16.999   2.219  1.00  0.00     0.291 C 
HETATM    2  N   UNL     1      41.866 -17.085   1.646  1.00  0.00    -0.251 N 
HETATM    3  O   UNL     1      43.738 -15.951   2.370  1.00  0.00    -0.264 OA
HETATM    4  H   UNL     1      41.460 -17.999   1.468  1.00  0.00     0.191 HD
ENDROOT
BRANCH   2   5
HETATM    5  N   UNL     1      41.190 -15.950   1.253  1.00  0.00    -0.167 N 
HETATM    6  C   UNL     1      40.968 -15.647  -0.063  1.00  0.00     0.345 C 
HETATM    7  O   UNL     1      41.398 -16.219  -1.052  1.00  0.00    -0.245 OA
HETATM    8  N   UNL     1      40.083 -14.589  -0.108  1.00  0.00    -0.323 N 
HETATM    9  C   UNL     1      39.588 -14.229   1.209  1.00  0.00     0.117 C 
HETATM   10  H   UNL     1      39.743 -14.234  -0.993  1.00  0.00     0.165 HD
HETATM   11  C   UNL     1      38.076 -14.453   1.331  1.00  0.00     0.041 C 
HETATM   12  C   UNL     1      39.998 -12.802   1.584  1.00  0.00     0.041 C 
HETATM   13  C   UNL     1      40.332 -15.265   2.079  1.00  0.00     0.275 C 
HETATM   14  C   UNL     1      37.271 -13.394   0.582  1.00  0.00     0.003 C 
HETATM   15  C   UNL     1      37.679 -11.982   0.992  1.00  0.00     0.000 C 
HETATM   16  C   UNL     1      39.179 -11.755   0.828  1.00  0.00     0.003 C 
HETATM   17  O   UNL     1      40.127 -15.455   3.271  1.00  0.00    -0.268 OA
ENDBRANCH   2   5
BRANCH   1  18
HETATM   18  C   UNL     1      43.623 -18.314   2.634  1.00  0.00     0.158 A 
HETATM   19  C   UNL     1      43.810 -18.790   3.965  1.00  0.00     0.029 A 
HETATM   20  C   UNL     1      43.610 -18.278   5.262  1.00  0.00     0.023 A 
HETATM   21  C   UNL     1      44.290 -20.086   3.823  1.00  0.00     0.063 A 
HETATM   22  C   UNL     1      43.891 -19.087   6.376  1.00  0.00    -0.061 A 
HETATM   23  C   UNL     1      43.667 -18.569   7.768  1.00  0.00     0.048 C 
HETATM   24  C   UNL     1      44.385 -20.385   6.188  1.00  0.00     0.009 A 
HETATM   25  C   UNL     1      44.596 -20.910   4.908  1.00  0.00     0.032 A 
HETATM   26  N   UNL     1      44.363 -20.297   2.474  1.00  0.00    -0.277 N 
HETATM   27  H   UNL     1      44.677 -21.138   2.003  1.00  0.00     0.189 HD
HETATM   28  N   UNL     1      43.946 -19.261   1.724  1.00  0.00    -0.168 NA
ENDBRANCH   1  18
TORSDOF 2
ENDMDL
