MODEL 1
REMARK VINA RESULT:      -9.3      0.000      0.000
REMARK  8 active torsions:
REMARK  status: ('A' for Active; 'I' for Inactive)
REMARK    1  A    between atoms: C_4  and  C_5 
REMARK    2  A    between atoms: C_5  and  N_6 
REMARK    3  A    between atoms: C_5  and  C_31 
REMARK       I    between atoms: N_6  and  C_7 
REMARK    4  A    between atoms: N_6  and  C_21 
REMARK    5  A    between atoms: C_7  and  C_8 
REMARK    6  A    between atoms: C_11  and  C_12 
REMARK    7  A    between atoms: C_21  and  C_22 
REMARK       I    between atoms: C_31  and  N_32 
REMARK    8  A    between atoms: N_32  and  C_33 
ROOT
HETATM    1  N   UNL     1      41.485 -13.945   4.795  1.00  0.00    -0.323 N 
HETATM    2  C   UNL     1      41.482 -15.092   5.591  1.00  0.00     0.271 C 
HETATM    3  O   UNL     1      40.601 -15.274   6.432  1.00  0.00    -0.266 OA
ENDROOT
BRANCH   1   4
HETATM    4  C   UNL     1      40.425 -12.951   5.065  1.00  0.00     0.237 C 
BRANCH   4   5
HETATM    5  C   UNL     1      39.601 -12.726   3.826  1.00  0.00     0.085 A 
HETATM    6  O   UNL     1      39.216 -13.799   3.069  1.00  0.00    -0.317 OA
HETATM    7  C   UNL     1      38.505 -13.319   2.011  1.00  0.00     0.049 A 
HETATM    8  C   UNL     1      38.029 -14.317   1.032  1.00  0.00     0.076 C 
HETATM    9  C   UNL     1      38.389 -11.950   2.101  1.00  0.00     0.035 A 
HETATM   10  C   UNL     1      39.092 -11.568   3.268  1.00  0.00     0.038 A 
ENDBRANCH   4   5
BRANCH   4  11
HETATM   11  C   UNL     1      40.967 -11.705   5.818  1.00  0.00     0.247 C 
HETATM   12  N   UNL     1      40.754 -11.623   7.173  1.00  0.00    -0.354 N 
HETATM   13  H   UNL     1      40.252 -12.399   7.594  1.00  0.00     0.162 HD
HETATM   14  O   UNL     1      41.523 -10.803   5.189  1.00  0.00    -0.271 OA
BRANCH  12  15
HETATM   15  C   UNL     1      41.153 -10.553   8.083  1.00  0.00     0.084 C 
HETATM   16  C   UNL     1      40.154 -10.296   9.222  1.00  0.00     0.025 C 
HETATM   17  C   UNL     1      40.454 -11.023  10.530  1.00  0.00     0.002 C 
HETATM   18  C   UNL     1      41.911 -10.876  10.945  1.00  0.00     0.000 C 
HETATM   19  C   UNL     1      42.857 -11.352   9.851  1.00  0.00     0.002 C 
HETATM   20  C   UNL     1      42.618 -10.625   8.531  1.00  0.00     0.025 C 
ENDBRANCH  12  15
ENDBRANCH   4  11
ENDBRANCH   1   4
BRANCH   1  21
HETATM   21  C   UNL     1      42.537 -13.571   3.846  1.00  0.00     0.166 C 
BRANCH  21  22
HETATM   22  C   UNL     1      42.217 -13.626   2.366  1.00  0.00    -0.037 A 
HETATM   23  C   UNL     1      41.944 -14.893   1.809  1.00  0.00     0.048 A 
HETATM   24  C   UNL     1      41.683 -14.982   0.458  1.00  0.00     0.105 A 
HETATM   25  C   UNL     1      41.692 -13.877  -0.355  1.00  0.00     0.105 A 
HETATM   26  O   UNL     1      41.399 -16.126  -0.221  1.00  0.00    -0.323 OA
HETATM   27  O   UNL     1      41.412 -14.181  -1.650  1.00  0.00    -0.323 OA
HETATM   28  C   UNL     1      41.959 -12.622   0.141  1.00  0.00     0.040 A 
HETATM   29  C   UNL     1      41.233 -15.608  -1.559  1.00  0.00     0.352 A 
HETATM   30  C   UNL     1      42.220 -12.500   1.512  1.00  0.00     0.012 A 
ENDBRANCH  21  22
ENDBRANCH   1  21
BRANCH   2  31
HETATM   31  C   UNL     1      42.564 -16.052   5.505  1.00  0.00     0.101 A 
HETATM   32  N   UNL     1      42.524 -17.044   4.546  1.00  0.00    -0.351 N 
HETATM   33  H   UNL     1      41.775 -17.128   3.870  1.00  0.00     0.166 HD
HETATM   34  C   UNL     1      43.600 -17.893   4.649  1.00  0.00     0.043 A 
HETATM   35  C   UNL     1      44.416 -17.353   5.627  1.00  0.00     0.033 A 
HETATM   36  C   UNL     1      43.780 -16.195   6.148  1.00  0.00     0.037 A 
BRANCH  34  37
HETATM   37  C   UNL     1      43.762 -19.074   3.799  1.00  0.00    -0.009 A 
HETATM   38  C   UNL     1      44.559 -20.149   4.215  1.00  0.00     0.013 A 
HETATM   39  C   UNL     1      44.721 -21.276   3.403  1.00  0.00     0.001 A 
HETATM   40  C   UNL     1      44.083 -21.344   2.167  1.00  0.00     0.000 A 
HETATM   41  C   UNL     1      43.281 -20.288   1.742  1.00  0.00     0.001 A 
HETATM   42  C   UNL     1      43.120 -19.162   2.553  1.00  0.00     0.013 A 
ENDBRANCH  34  37
ENDBRANCH   2  31
TORSDOF 8
ENDMDL
MODEL 2
REMARK VINA RESULT:      -9.2      1.228      2.057
REMARK  8 active torsions:
REMARK  status: ('A' for Active; 'I' for Inactive)
REMARK    1  A    between atoms: C_4  and  C_5 
REMARK    2  A    between atoms: C_5  and  N_6 
REMARK    3  A    between atoms: C_5  and  C_31 
REMARK       I    between atoms: N_6  and  C_7 
REMARK    4  A    between atoms: N_6  and  C_21 
REMARK    5  A    between atoms: C_7  and  C_8 
REMARK    6  A    between atoms: C_11  and  C_12 
REMARK    7  A    between atoms: C_21  and  C_22 
REMARK       I    between atoms: C_31  and  N_32 
REMARK    8  A    between atoms: N_32  and  C_33 
ROOT
HETATM    1  N   UNL     1      41.793 -14.901   4.863  1.00  0.00    -0.323 N 
HETATM    2  C   UNL     1      41.921 -15.973   5.749  1.00  0.00     0.271 C 
HETATM    3  O   UNL     1      41.176 -16.077   6.725  1.00  0.00    -0.266 OA
ENDROOT
BRANCH   1   4
HETATM    4  C   UNL     1      40.773 -13.885   5.199  1.00  0.00     0.237 C 
BRANCH   4   5
HETATM    5  C   UNL     1      40.051 -13.448   3.952  1.00  0.00     0.085 A 
HETATM    6  O   UNL     1      39.337 -14.365   3.231  1.00  0.00    -0.317 OA
HETATM    7  C   UNL     1      38.805 -13.718   2.158  1.00  0.00     0.049 A 
HETATM    8  C   UNL     1      38.026 -14.542   1.212  1.00  0.00     0.076 C 
HETATM    9  C   UNL     1      39.133 -12.381   2.201  1.00  0.00     0.035 A 
HETATM   10  C   UNL     1      39.933 -12.206   3.356  1.00  0.00     0.038 A 
ENDBRANCH   4   5
BRANCH   4  11
HETATM   11  C   UNL     1      41.329 -12.785   6.145  1.00  0.00     0.247 C 
HETATM   12  N   UNL     1      40.430 -12.003   6.827  1.00  0.00    -0.354 N 
HETATM   13  H   UNL     1      39.448 -12.205   6.665  1.00  0.00     0.162 HD
HETATM   14  O   UNL     1      42.546 -12.603   6.224  1.00  0.00    -0.271 OA
BRANCH  12  15
HETATM   15  C   UNL     1      40.711 -10.907   7.752  1.00  0.00     0.084 C 
HETATM   16  C   UNL     1      40.700  -9.518   7.097  1.00  0.00     0.025 C 
HETATM   17  C   UNL     1      39.375  -8.766   7.184  1.00  0.00     0.002 C 
HETATM   18  C   UNL     1      38.795  -8.787   8.592  1.00  0.00     0.000 C 
HETATM   19  C   UNL     1      38.625 -10.209   9.107  1.00  0.00     0.002 C 
HETATM   20  C   UNL     1      39.936 -10.991   9.074  1.00  0.00     0.025 C 
ENDBRANCH  12  15
ENDBRANCH   4  11
ENDBRANCH   1   4
BRANCH   1  21
HETATM   21  C   UNL     1      42.688 -14.615   3.739  1.00  0.00     0.166 C 
BRANCH  21  22
HETATM   22  C   UNL     1      42.261 -15.056   2.354  1.00  0.00    -0.037 A 
HETATM   23  C   UNL     1      42.254 -14.078   1.337  1.00  0.00     0.048 A 
HETATM   24  C   UNL     1      41.838 -14.438   0.073  1.00  0.00     0.105 A 
HETATM   25  C   UNL     1      41.422 -15.713  -0.216  1.00  0.00     0.105 A 
HETATM   26  O   UNL     1      41.781 -13.614  -1.008  1.00  0.00    -0.323 OA
HETATM   27  O   UNL     1      41.053 -15.858  -1.516  1.00  0.00    -0.323 OA
HETATM   28  C   UNL     1      41.405 -16.698   0.744  1.00  0.00     0.040 A 
HETATM   29  C   UNL     1      41.276 -14.522  -2.010  1.00  0.00     0.352 A 
HETATM   30  C   UNL     1      41.831 -16.363   2.036  1.00  0.00     0.012 A 
ENDBRANCH  21  22
ENDBRANCH   1  21
BRANCH   2  31
HETATM   31  C   UNL     1      42.989 -16.938   5.589  1.00  0.00     0.101 A 
HETATM   32  N   UNL     1      42.896 -17.905   4.609  1.00  0.00    -0.351 N 
HETATM   33  H   UNL     1      42.116 -17.967   3.966  1.00  0.00     0.166 HD
HETATM   34  C   UNL     1      43.969 -18.765   4.641  1.00  0.00     0.043 A 
HETATM   35  C   UNL     1      44.833 -18.256   5.593  1.00  0.00     0.033 A 
HETATM   36  C   UNL     1      44.232 -17.106   6.171  1.00  0.00     0.037 A 
BRANCH  34  37
HETATM   37  C   UNL     1      44.080 -19.926   3.754  1.00  0.00    -0.009 A 
HETATM   38  C   UNL     1      43.667 -19.844   2.418  1.00  0.00     0.013 A 
HETATM   39  C   UNL     1      43.767 -20.952   1.570  1.00  0.00     0.001 A 
HETATM   40  C   UNL     1      44.285 -22.154   2.048  1.00  0.00     0.000 A 
HETATM   41  C   UNL     1      44.707 -22.249   3.371  1.00  0.00     0.001 A 
HETATM   42  C   UNL     1      44.607 -21.142   4.218  1.00  0.00     0.013 A 
ENDBRANCH  34  37
ENDBRANCH   2  31
TORSDOF 8
ENDMDL
MODEL 3
REMARK VINA RESULT:      -9.2      2.079      5.228
REMARK  8 active torsions:
REMARK  status: ('A' for Active; 'I' for Inactive)
REMARK    1  A    between atoms: C_4  and  C_5 
REMARK    2  A    between atoms: C_5  and  N_6 
REMARK    3  A    between atoms: C_5  and  C_31 
REMARK       I    between atoms: N_6  and  C_7 
REMARK    4  A    between atoms: N_6  and  C_21 
REMARK    5  A    between atoms: C_7  and  C_8 
REMARK    6  A    between atoms: C_11  and  C_12 
REMARK    7  A    between atoms: C_21  and  C_22 
REMARK       I    between atoms: C_31  and  N_32 
REMARK    8  A    between atoms: N_32  and  C_33 
ROOT
HETATM    1  N   UNL     1      41.657 -13.942   3.338  1.00  0.00    -0.323 N 
HETATM    2  C   UNL     1      42.974 -14.365   3.151  1.00  0.00     0.271 C 
HETATM    3  O   UNL     1      43.916 -13.591   3.325  1.00  0.00    -0.266 OA
ENDROOT
BRANCH   1   4
HETATM    4  C   UNL     1      41.463 -12.518   3.685  1.00  0.00     0.237 C 
BRANCH   4   5
HETATM    5  C   UNL     1      40.727 -12.402   4.993  1.00  0.00     0.085 A 
HETATM    6  O   UNL     1      41.110 -11.452   5.900  1.00  0.00    -0.317 OA
HETATM    7  C   UNL     1      40.300 -11.574   6.988  1.00  0.00     0.049 A 
HETATM    8  C   UNL     1      40.574 -10.665   8.118  1.00  0.00     0.076 C 
HETATM    9  C   UNL     1      39.368 -12.566   6.775  1.00  0.00     0.035 A 
HETATM   10  C   UNL     1      39.641 -13.098   5.492  1.00  0.00     0.038 A 
ENDBRANCH   4   5
BRANCH   4  11
HETATM   11  C   UNL     1      40.948 -11.684   2.480  1.00  0.00     0.247 C 
HETATM   12  N   UNL     1      41.801 -11.477   1.423  1.00  0.00    -0.354 N 
HETATM   13  H   UNL     1      42.723 -11.896   1.505  1.00  0.00     0.162 HD
HETATM   14  O   UNL     1      39.821 -11.187   2.517  1.00  0.00    -0.271 OA
BRANCH  12  15
HETATM   15  C   UNL     1      41.550 -10.722   0.199  1.00  0.00     0.084 C 
HETATM   16  C   UNL     1      42.045  -9.269   0.247  1.00  0.00     0.025 C 
HETATM   17  C   UNL     1      43.440  -9.036  -0.329  1.00  0.00     0.002 C 
HETATM   18  C   UNL     1      43.617  -9.701  -1.687  1.00  0.00     0.000 C 
HETATM   19  C   UNL     1      43.318 -11.192  -1.624  1.00  0.00     0.002 C 
HETATM   20  C   UNL     1      41.918 -11.474  -1.087  1.00  0.00     0.025 C 
ENDBRANCH  12  15
ENDBRANCH   4  11
ENDBRANCH   1   4
BRANCH   1  21
HETATM   21  C   UNL     1      40.459 -14.737   3.054  1.00  0.00     0.166 C 
BRANCH  21  22
HETATM   22  C   UNL     1      39.739 -14.501   1.742  1.00  0.00    -0.037 A 
HETATM   23  C   UNL     1      40.487 -14.656   0.556  1.00  0.00     0.048 A 
HETATM   24  C   UNL     1      39.871 -14.416  -0.655  1.00  0.00     0.105 A 
HETATM   25  C   UNL     1      38.559 -14.021  -0.732  1.00  0.00     0.105 A 
HETATM   26  O   UNL     1      40.455 -14.527  -1.878  1.00  0.00    -0.323 OA
HETATM   27  O   UNL     1      38.147 -13.836  -2.014  1.00  0.00    -0.323 OA
HETATM   28  C   UNL     1      37.792 -13.850   0.396  1.00  0.00     0.040 A 
HETATM   29  C   UNL     1      39.355 -14.153  -2.734  1.00  0.00     0.352 A 
HETATM   30  C   UNL     1      38.390 -14.095   1.640  1.00  0.00     0.012 A 
ENDBRANCH  21  22
ENDBRANCH   1  21
BRANCH   2  31
HETATM   31  C   UNL     1      43.257 -15.699   2.664  1.00  0.00     0.101 A 
HETATM   32  N   UNL     1      43.451 -16.729   3.562  1.00  0.00    -0.351 N 
HETATM   33  H   UNL     1      43.384 -16.607   4.564  1.00  0.00     0.166 HD
HETATM   34  C   UNL     1      43.764 -17.907   2.924  1.00  0.00     0.043 A 
HETATM   35  C   UNL     1      43.645 -17.647   1.570  1.00  0.00     0.033 A 
HETATM   36  C   UNL     1      43.310 -16.276   1.408  1.00  0.00     0.037 A 
BRANCH  34  37
HETATM   37  C   UNL     1      44.090 -19.137   3.648  1.00  0.00    -0.009 A 
HETATM   38  C   UNL     1      44.469 -20.294   2.954  1.00  0.00     0.013 A 
HETATM   39  C   UNL     1      44.776 -21.472   3.641  1.00  0.00     0.001 A 
HETATM   40  C   UNL     1      44.710 -21.507   5.032  1.00  0.00     0.000 A 
HETATM   41  C   UNL     1      44.342 -20.364   5.737  1.00  0.00     0.001 A 
HETATM   42  C   UNL     1      44.036 -19.187   5.050  1.00  0.00     0.013 A 
ENDBRANCH  34  37
ENDBRANCH   2  31
TORSDOF 8
ENDMDL
MODEL 4
REMARK VINA RESULT:      -9.2      2.329      4.460
REMARK  8 active torsions:
REMARK  status: ('A' for Active; 'I' for Inactive)
REMARK    1  A    between atoms: C_4  and  C_5 
REMARK    2  A    between atoms: C_5  and  N_6 
REMARK    3  A    between atoms: C_5  and  C_31 
REMARK       I    between atoms: N_6  and  C_7 
REMARK    4  A    between atoms: N_6  and  C_21 
REMARK    5  A    between atoms: C_7  and  C_8 
REMARK    6  A    between atoms: C_11  and  C_12 
REMARK    7  A    between atoms: C_21  and  C_22 
REMARK       I    between atoms: C_31  and  N_32 
REMARK    8  A    between atoms: N_32  and  C_33 
ROOT
HETATM    1  N   UNL     1      40.884 -15.016   2.649  1.00  0.00    -0.323 N 
HETATM    2  C   UNL     1      40.909 -16.317   2.143  1.00  0.00     0.271 C 
HETATM    3  O   UNL     1      39.863 -16.909   1.873  1.00  0.00    -0.266 OA
ENDROOT
BRANCH   1   4
HETATM    4  C   UNL     1      39.550 -14.430   2.899  1.00  0.00     0.237 C 
BRANCH   4   5
HETATM    5  C   UNL     1      39.092 -13.657   1.691  1.00  0.00     0.085 A 
HETATM    6  O   UNL     1      39.842 -12.605   1.240  1.00  0.00    -0.317 OA
HETATM    7  C   UNL     1      39.201 -12.078   0.160  1.00  0.00     0.049 A 
HETATM    8  C   UNL     1      39.822 -10.891  -0.460  1.00  0.00     0.076 C 
HETATM    9  C   UNL     1      38.065 -12.806  -0.117  1.00  0.00     0.035 A 
HETATM   10  C   UNL     1      37.996 -13.823   0.865  1.00  0.00     0.038 A 
ENDBRANCH   4   5
BRANCH   4  11
HETATM   11  C   UNL     1      39.464 -13.736   4.286  1.00  0.00     0.247 C 
HETATM   12  N   UNL     1      39.496 -12.364   4.328  1.00  0.00    -0.354 N 
HETATM   13  H   UNL     1      39.571 -11.891   3.432  1.00  0.00     0.162 HD
HETATM   14  O   UNL     1      39.421 -14.420   5.311  1.00  0.00    -0.271 OA
BRANCH  12  15
HETATM   15  C   UNL     1      39.444 -11.498   5.503  1.00  0.00     0.084 C 
HETATM   16  C   UNL     1      40.575 -11.745   6.513  1.00  0.00     0.025 C 
HETATM   17  C   UNL     1      41.798 -10.845   6.356  1.00  0.00     0.002 C 
HETATM   18  C   UNL     1      41.415  -9.379   6.209  1.00  0.00     0.000 C 
HETATM   19  C   UNL     1      40.454  -9.164   5.047  1.00  0.00     0.002 C 
HETATM   20  C   UNL     1      39.196 -10.019   5.180  1.00  0.00     0.025 C 
ENDBRANCH  12  15
ENDBRANCH   4  11
ENDBRANCH   1   4
BRANCH   1  21
HETATM   21  C   UNL     1      42.052 -14.259   3.108  1.00  0.00     0.166 C 
BRANCH  21  22
HETATM   22  C   UNL     1      42.669 -14.634   4.440  1.00  0.00    -0.037 A 
HETATM   23  C   UNL     1      42.255 -15.849   5.025  1.00  0.00     0.048 A 
HETATM   24  C   UNL     1      42.771 -16.204   6.254  1.00  0.00     0.105 A 
HETATM   25  C   UNL     1      43.665 -15.404   6.921  1.00  0.00     0.105 A 
HETATM   26  O   UNL     1      42.475 -17.340   6.941  1.00  0.00    -0.323 OA
HETATM   27  O   UNL     1      44.049 -15.935   8.112  1.00  0.00    -0.323 OA
HETATM   28  C   UNL     1      44.093 -14.209   6.393  1.00  0.00     0.040 A 
HETATM   29  C   UNL     1      43.286 -17.158   8.121  1.00  0.00     0.352 A 
HETATM   30  C   UNL     1      43.590 -13.826   5.142  1.00  0.00     0.012 A 
ENDBRANCH  21  22
ENDBRANCH   1  21
BRANCH   2  31
HETATM   31  C   UNL     1      42.162 -17.031   2.006  1.00  0.00     0.101 A 
HETATM   32  N   UNL     1      42.316 -18.263   2.607  1.00  0.00    -0.351 N 
HETATM   33  H   UNL     1      41.580 -18.718   3.133  1.00  0.00     0.166 HD
HETATM   34  C   UNL     1      43.583 -18.765   2.419  1.00  0.00     0.043 A 
HETATM   35  C   UNL     1      44.217 -17.879   1.567  1.00  0.00     0.033 A 
HETATM   36  C   UNL     1      43.326 -16.808   1.294  1.00  0.00     0.037 A 
BRANCH  34  37
HETATM   37  C   UNL     1      44.033 -20.025   3.016  1.00  0.00    -0.009 A 
HETATM   38  C   UNL     1      44.057 -21.203   2.259  1.00  0.00     0.013 A 
HETATM   39  C   UNL     1      44.481 -22.409   2.827  1.00  0.00     0.001 A 
HETATM   40  C   UNL     1      44.889 -22.449   4.158  1.00  0.00     0.000 A 
HETATM   41  C   UNL     1      44.878 -21.285   4.922  1.00  0.00     0.001 A 
HETATM   42  C   UNL     1      44.455 -20.081   4.354  1.00  0.00     0.013 A 
ENDBRANCH  34  37
ENDBRANCH   2  31
TORSDOF 8
ENDMDL
MODEL 5
REMARK VINA RESULT:      -9.1      2.996      5.161
REMARK  8 active torsions:
REMARK  status: ('A' for Active; 'I' for Inactive)
REMARK    1  A    between atoms: C_4  and  C_5 
REMARK    2  A    between atoms: C_5  and  N_6 
REMARK    3  A    between atoms: C_5  and  C_31 
REMARK       I    between atoms: N_6  and  C_7 
REMARK    4  A    between atoms: N_6  and  C_21 
REMARK    5  A    between atoms: C_7  and  C_8 
REMARK    6  A    between atoms: C_11  and  C_12 
REMARK    7  A    between atoms: C_21  and  C_22 
REMARK       I    between atoms: C_31  and  N_32 
REMARK    8  A    between atoms: N_32  and  C_33 
ROOT
HETATM    1  N   UNL     1      40.733 -13.508   3.222  1.00  0.00    -0.323 N 
HETATM    2  C   UNL     1      41.580 -14.023   4.205  1.00  0.00     0.271 C 
HETATM    3  O   UNL     1      42.402 -13.302   4.772  1.00  0.00    -0.266 OA
ENDROOT
BRANCH   1   4
HETATM    4  C   UNL     1      40.925 -12.087   2.864  1.00  0.00     0.237 C 
BRANCH   4   5
HETATM    5  C   UNL     1      39.591 -11.403   2.735  1.00  0.00     0.085 A 
HETATM    6  O   UNL     1      39.124 -11.064   1.495  1.00  0.00    -0.317 OA
HETATM    7  C   UNL     1      37.920 -10.451   1.664  1.00  0.00     0.049 A 
HETATM    8  C   UNL     1      37.255  -9.958   0.441  1.00  0.00     0.076 C 
HETATM    9  C   UNL     1      37.583 -10.429   2.999  1.00  0.00     0.035 A 
HETATM   10  C   UNL     1      38.656 -11.043   3.689  1.00  0.00     0.038 A 
ENDBRANCH   4   5
BRANCH   4  11
HETATM   11  C   UNL     1      41.954 -11.904   1.714  1.00  0.00     0.247 C 
HETATM   12  N   UNL     1      41.839 -10.795   0.912  1.00  0.00    -0.354 N 
HETATM   13  H   UNL     1      41.078 -10.160   1.134  1.00  0.00     0.162 HD
HETATM   14  O   UNL     1      42.808 -12.769   1.514  1.00  0.00    -0.271 OA
BRANCH  12  15
HETATM   15  C   UNL     1      42.671 -10.419  -0.228  1.00  0.00     0.084 C 
HETATM   16  C   UNL     1      42.563 -11.379  -1.424  1.00  0.00     0.025 C 
HETATM   17  C   UNL     1      41.552 -10.976  -2.494  1.00  0.00     0.002 C 
HETATM   18  C   UNL     1      41.690  -9.512  -2.891  1.00  0.00     0.000 C 
HETATM   19  C   UNL     1      41.571  -8.591  -1.684  1.00  0.00     0.002 C 
HETATM   20  C   UNL     1      42.589  -8.933  -0.600  1.00  0.00     0.025 C 
ENDBRANCH  12  15
ENDBRANCH   4  11
ENDBRANCH   1   4
BRANCH   1  21
HETATM   21  C   UNL     1      39.801 -14.291   2.406  1.00  0.00     0.166 C 
BRANCH  21  22
HETATM   22  C   UNL     1      40.248 -14.721   1.024  1.00  0.00    -0.037 A 
HETATM   23  C   UNL     1      39.686 -14.044  -0.078  1.00  0.00     0.048 A 
HETATM   24  C   UNL     1      40.045 -14.435  -1.351  1.00  0.00     0.105 A 
HETATM   25  C   UNL     1      40.922 -15.467  -1.570  1.00  0.00     0.105 A 
HETATM   26  O   UNL     1      39.596 -13.878  -2.508  1.00  0.00    -0.323 OA
HETATM   27  O   UNL     1      41.141 -15.692  -2.893  1.00  0.00    -0.323 OA
HETATM   28  C   UNL     1      41.490 -16.161  -0.527  1.00  0.00     0.040 A 
HETATM   29  C   UNL     1      40.292 -14.686  -3.481  1.00  0.00     0.352 A 
HETATM   30  C   UNL     1      41.149 -15.780   0.777  1.00  0.00     0.012 A 
ENDBRANCH  21  22
ENDBRANCH   1  21
BRANCH   2  31
HETATM   31  C   UNL     1      41.572 -15.438   4.517  1.00  0.00     0.101 A 
HETATM   32  N   UNL     1      42.490 -16.277   3.919  1.00  0.00    -0.351 N 
HETATM   33  H   UNL     1      43.200 -15.950   3.276  1.00  0.00     0.166 HD
HETATM   34  C   UNL     1      42.297 -17.587   4.290  1.00  0.00     0.043 A 
HETATM   35  C   UNL     1      41.302 -17.566   5.250  1.00  0.00     0.033 A 
HETATM   36  C   UNL     1      40.862 -16.225   5.406  1.00  0.00     0.037 A 
BRANCH  34  37
HETATM   37  C   UNL     1      43.089 -18.690   3.741  1.00  0.00    -0.009 A 
HETATM   38  C   UNL     1      42.880 -19.135   2.429  1.00  0.00     0.013 A 
HETATM   39  C   UNL     1      43.631 -20.191   1.904  1.00  0.00     0.001 A 
HETATM   40  C   UNL     1      44.602 -20.814   2.684  1.00  0.00     0.000 A 
HETATM   41  C   UNL     1      44.828 -20.379   3.987  1.00  0.00     0.001 A 
HETATM   42  C   UNL     1      44.078 -19.323   4.512  1.00  0.00     0.013 A 
ENDBRANCH  34  37
ENDBRANCH   2  31
TORSDOF 8
ENDMDL
MODEL 6
REMARK VINA RESULT:      -8.9      2.576      8.541
REMARK  8 active torsions:
REMARK  status: ('A' for Active; 'I' for Inactive)
REMARK    1  A    between atoms: C_4  and  C_5 
REMARK    2  A    between atoms: C_5  and  N_6 
REMARK    3  A    between atoms: C_5  and  C_31 
REMARK       I    between atoms: N_6  and  C_7 
REMARK    4  A    between atoms: N_6  and  C_21 
REMARK    5  A    between atoms: C_7  and  C_8 
REMARK    6  A    between atoms: C_11  and  C_12 
REMARK    7  A    between atoms: C_21  and  C_22 
REMARK       I    between atoms: C_31  and  N_32 
REMARK    8  A    between atoms: N_32  and  C_33 
ROOT
HETATM    1  N   UNL     1      41.716 -15.400   2.770  1.00  0.00    -0.323 N 
HETATM    2  C   UNL     1      40.625 -15.028   1.981  1.00  0.00     0.271 C 
HETATM    3  O   UNL     1      39.721 -15.827   1.737  1.00  0.00    -0.266 OA
ENDROOT
BRANCH   1   4
HETATM    4  C   UNL     1      41.750 -16.805   3.228  1.00  0.00     0.237 C 
BRANCH   4   5
HETATM    5  C   UNL     1      41.617 -16.862   4.726  1.00  0.00     0.085 A 
HETATM    6  O   UNL     1      42.698 -17.217   5.485  1.00  0.00    -0.317 OA
HETATM    7  C   UNL     1      42.304 -17.206   6.789  1.00  0.00     0.049 A 
HETATM    8  C   UNL     1      43.317 -17.609   7.785  1.00  0.00     0.076 C 
HETATM    9  C   UNL     1      40.990 -16.805   6.883  1.00  0.00     0.035 A 
HETATM   10  C   UNL     1      40.548 -16.582   5.557  1.00  0.00     0.038 A 
ENDBRANCH   4   5
BRANCH   4  11
HETATM   11  C   UNL     1      42.901 -17.611   2.565  1.00  0.00     0.247 C 
HETATM   12  N   UNL     1      43.384 -18.713   3.226  1.00  0.00    -0.354 N 
HETATM   13  H   UNL     1      42.944 -18.929   4.116  1.00  0.00     0.162 HD
HETATM   14  O   UNL     1      43.387 -17.222   1.500  1.00  0.00    -0.271 OA
BRANCH  12  15
HETATM   15  C   UNL     1      44.461 -19.610   2.812  1.00  0.00     0.084 C 
HETATM   16  C   UNL     1      45.217 -20.260   3.981  1.00  0.00     0.025 C 
HETATM   17  C   UNL     1      44.718 -21.642   4.394  1.00  0.00     0.002 C 
HETATM   18  C   UNL     1      44.528 -22.563   3.196  1.00  0.00     0.000 C 
HETATM   19  C   UNL     1      43.590 -21.954   2.163  1.00  0.00     0.002 C 
HETATM   20  C   UNL     1      44.069 -20.583   1.693  1.00  0.00     0.025 C 
ENDBRANCH  12  15
ENDBRANCH   4  11
ENDBRANCH   1   4
BRANCH   1  21
HETATM   21  C   UNL     1      42.897 -14.574   3.033  1.00  0.00     0.166 C 
BRANCH  21  22
HETATM   22  C   UNL     1      42.998 -13.876   4.374  1.00  0.00    -0.037 A 
HETATM   23  C   UNL     1      44.120 -14.173   5.175  1.00  0.00     0.048 A 
HETATM   24  C   UNL     1      44.226 -13.582   6.416  1.00  0.00     0.105 A 
HETATM   25  C   UNL     1      43.266 -12.725   6.893  1.00  0.00     0.105 A 
HETATM   26  O   UNL     1      45.246 -13.762   7.297  1.00  0.00    -0.323 OA
HETATM   27  O   UNL     1      43.558 -12.254   8.134  1.00  0.00    -0.323 OA
HETATM   28  C   UNL     1      42.151 -12.411   6.151  1.00  0.00     0.040 A 
HETATM   29  C   UNL     1      44.811 -12.920   8.386  1.00  0.00     0.352 A 
HETATM   30  C   UNL     1      42.022 -12.991   4.882  1.00  0.00     0.012 A 
ENDBRANCH  21  22
ENDBRANCH   1  21
BRANCH   2  31
HETATM   31  C   UNL     1      40.576 -13.719   1.361  1.00  0.00     0.101 A 
HETATM   32  N   UNL     1      41.081 -13.545   0.089  1.00  0.00    -0.351 N 
HETATM   33  H   UNL     1      41.474 -14.301  -0.458  1.00  0.00     0.166 HD
HETATM   34  C   UNL     1      41.002 -12.233  -0.314  1.00  0.00     0.043 A 
HETATM   35  C   UNL     1      40.312 -11.571   0.687  1.00  0.00     0.033 A 
HETATM   36  C   UNL     1      40.030 -12.501   1.722  1.00  0.00     0.037 A 
BRANCH  34  37
HETATM   37  C   UNL     1      41.535 -11.763  -1.595  1.00  0.00    -0.009 A 
HETATM   38  C   UNL     1      42.210 -10.539  -1.680  1.00  0.00     0.013 A 
HETATM   39  C   UNL     1      42.716 -10.084  -2.902  1.00  0.00     0.001 A 
HETATM   40  C   UNL     1      42.555 -10.852  -4.053  1.00  0.00     0.000 A 
HETATM   41  C   UNL     1      41.892 -12.074  -3.984  1.00  0.00     0.001 A 
HETATM   42  C   UNL     1      41.388 -12.528  -2.763  1.00  0.00     0.013 A 
ENDBRANCH  34  37
ENDBRANCH   2  31
TORSDOF 8
ENDMDL
MODEL 7
REMARK VINA RESULT:      -8.9      2.589      8.604
REMARK  8 active torsions:
REMARK  status: ('A' for Active; 'I' for Inactive)
REMARK    1  A    between atoms: C_4  and  C_5 
REMARK    2  A    between atoms: C_5  and  N_6 
REMARK    3  A    between atoms: C_5  and  C_31 
REMARK       I    between atoms: N_6  and  C_7 
REMARK    4  A    between atoms: N_6  and  C_21 
REMARK    5  A    between atoms: C_7  and  C_8 
REMARK    6  A    between atoms: C_11  and  C_12 
REMARK    7  A    between atoms: C_21  and  C_22 
REMARK       I    between atoms: C_31  and  N_32 
REMARK    8  A    between atoms: N_32  and  C_33 
ROOT
HETATM    1  N   UNL     1      41.628 -16.276   2.645  1.00  0.00    -0.323 N 
HETATM    2  C   UNL     1      40.680 -16.366   1.624  1.00  0.00     0.271 C 
HETATM    3  O   UNL     1      40.048 -17.406   1.439  1.00  0.00    -0.266 OA
ENDROOT
BRANCH   1   4
HETATM    4  C   UNL     1      41.870 -17.504   3.432  1.00  0.00     0.237 C 
BRANCH   4   5
HETATM    5  C   UNL     1      41.686 -17.221   4.899  1.00  0.00     0.085 A 
HETATM    6  O   UNL     1      42.765 -17.283   5.737  1.00  0.00    -0.317 OA
HETATM    7  C   UNL     1      42.323 -17.006   6.995  1.00  0.00     0.049 A 
HETATM    8  C   UNL     1      43.329 -17.065   8.074  1.00  0.00     0.076 C 
HETATM    9  C   UNL     1      40.976 -16.721   6.971  1.00  0.00     0.035 A 
HETATM   10  C   UNL     1      40.566 -16.858   5.623  1.00  0.00     0.038 A 
ENDBRANCH   4   5
BRANCH   4  11
HETATM   11  C   UNL     1      43.162 -18.242   2.986  1.00  0.00     0.247 C 
HETATM   12  N   UNL     1      43.641 -19.251   3.785  1.00  0.00    -0.354 N 
HETATM   13  H   UNL     1      43.104 -19.448   4.625  1.00  0.00     0.162 HD
HETATM   14  O   UNL     1      43.753 -17.880   1.966  1.00  0.00    -0.271 OA
BRANCH  12  15
HETATM   15  C   UNL     1      44.833 -20.070   3.583  1.00  0.00     0.084 C 
HETATM   16  C   UNL     1      45.316 -20.795   4.849  1.00  0.00     0.025 C 
HETATM   17  C   UNL     1      44.808 -22.224   5.016  1.00  0.00     0.002 C 
HETATM   18  C   UNL     1      44.967 -23.041   3.741  1.00  0.00     0.000 C 
HETATM   19  C   UNL     1      44.278 -22.375   2.558  1.00  0.00     0.002 C 
HETATM   20  C   UNL     1      44.781 -20.952   2.329  1.00  0.00     0.025 C 
ENDBRANCH  12  15
ENDBRANCH   4  11
ENDBRANCH   1   4
BRANCH   1  21
HETATM   21  C   UNL     1      42.513 -15.133   2.887  1.00  0.00     0.166 C 
BRANCH  21  22
HETATM   22  C   UNL     1      42.146 -14.165   3.993  1.00  0.00    -0.037 A 
HETATM   23  C   UNL     1      40.895 -13.520   3.900  1.00  0.00     0.048 A 
HETATM   24  C   UNL     1      40.545 -12.606   4.872  1.00  0.00     0.105 A 
HETATM   25  C   UNL     1      41.382 -12.304   5.915  1.00  0.00     0.105 A 
HETATM   26  O   UNL     1      39.377 -11.911   4.922  1.00  0.00    -0.323 OA
HETATM   27  O   UNL     1      40.850 -11.382   6.760  1.00  0.00    -0.323 OA
HETATM   28  C   UNL     1      42.614 -12.903   6.045  1.00  0.00     0.040 A 
HETATM   29  C   UNL     1      39.582 -11.132   6.121  1.00  0.00     0.352 A 
HETATM   30  C   UNL     1      42.993 -13.841   5.076  1.00  0.00     0.012 A 
ENDBRANCH  21  22
ENDBRANCH   1  21
BRANCH   2  31
HETATM   31  C   UNL     1      40.481 -15.264   0.705  1.00  0.00     0.101 A 
HETATM   32  N   UNL     1      39.312 -14.533   0.756  1.00  0.00    -0.351 N 
HETATM   33  H   UNL     1      38.577 -14.713   1.429  1.00  0.00     0.166 HD
HETATM   34  C   UNL     1      39.273 -13.568  -0.224  1.00  0.00     0.043 A 
HETATM   35  C   UNL     1      40.510 -13.606  -0.840  1.00  0.00     0.033 A 
HETATM   36  C   UNL     1      41.271 -14.649  -0.250  1.00  0.00     0.037 A 
BRANCH  34  37
HETATM   37  C   UNL     1      38.111 -12.702  -0.437  1.00  0.00    -0.009 A 
HETATM   38  C   UNL     1      37.877 -12.118  -1.689  1.00  0.00     0.013 A 
HETATM   39  C   UNL     1      36.773 -11.286  -1.895  1.00  0.00     0.001 A 
HETATM   40  C   UNL     1      35.886 -11.031  -0.851  1.00  0.00     0.000 A 
HETATM   41  C   UNL     1      36.100 -11.609   0.397  1.00  0.00     0.001 A 
HETATM   42  C   UNL     1      37.204 -12.440   0.603  1.00  0.00     0.013 A 
ENDBRANCH  34  37
ENDBRANCH   2  31
TORSDOF 8
ENDMDL
MODEL 8
REMARK VINA RESULT:      -8.9      2.749      4.482
REMARK  8 active torsions:
REMARK  status: ('A' for Active; 'I' for Inactive)
REMARK    1  A    between atoms: C_4  and  C_5 
REMARK    2  A    between atoms: C_5  and  N_6 
REMARK    3  A    between atoms: C_5  and  C_31 
REMARK       I    between atoms: N_6  and  C_7 
REMARK    4  A    between atoms: N_6  and  C_21 
REMARK    5  A    between atoms: C_7  and  C_8 
REMARK    6  A    between atoms: C_11  and  C_12 
REMARK    7  A    between atoms: C_21  and  C_22 
REMARK       I    between atoms: C_31  and  N_32 
REMARK    8  A    between atoms: N_32  and  C_33 
ROOT
HETATM    1  N   UNL     1      40.940 -13.578   3.286  1.00  0.00    -0.323 N 
HETATM    2  C   UNL     1      40.856 -14.394   4.415  1.00  0.00     0.271 C 
HETATM    3  O   UNL     1      39.930 -14.269   5.217  1.00  0.00    -0.266 OA
ENDROOT
BRANCH   1   4
HETATM    4  C   UNL     1      39.907 -12.530   3.150  1.00  0.00     0.237 C 
BRANCH   4   5
HETATM    5  C   UNL     1      38.852 -12.971   2.171  1.00  0.00     0.085 A 
HETATM    6  O   UNL     1      38.047 -12.036   1.581  1.00  0.00    -0.317 OA
HETATM    7  C   UNL     1      37.181 -12.697   0.764  1.00  0.00     0.049 A 
HETATM    8  C   UNL     1      36.183 -11.871   0.057  1.00  0.00     0.076 C 
HETATM    9  C   UNL     1      37.447 -14.048   0.786  1.00  0.00     0.035 A 
HETATM   10  C   UNL     1      38.522 -14.225   1.689  1.00  0.00     0.038 A 
ENDBRANCH   4   5
BRANCH   4  11
HETATM   11  C   UNL     1      40.523 -11.115   2.972  1.00  0.00     0.247 C 
HETATM   12  N   UNL     1      40.412 -10.510   1.744  1.00  0.00    -0.354 N 
HETATM   13  H   UNL     1      39.921 -11.038   1.028  1.00  0.00     0.162 HD
HETATM   14  O   UNL     1      41.136 -10.593   3.905  1.00  0.00    -0.271 OA
BRANCH  12  15
HETATM   15  C   UNL     1      40.919  -9.202   1.337  1.00  0.00     0.084 C 
HETATM   16  C   UNL     1      42.095  -9.267   0.351  1.00  0.00     0.025 C 
HETATM   17  C   UNL     1      41.715  -9.173  -1.125  1.00  0.00     0.002 C 
HETATM   18  C   UNL     1      40.748  -8.028  -1.396  1.00  0.00     0.000 C 
HETATM   19  C   UNL     1      39.495  -8.138  -0.538  1.00  0.00     0.002 C 
HETATM   20  C   UNL     1      39.824  -8.198   0.951  1.00  0.00     0.025 C 
ENDBRANCH  12  15
ENDBRANCH   4  11
ENDBRANCH   1   4
BRANCH   1  21
HETATM   21  C   UNL     1      42.050 -13.561   2.329  1.00  0.00     0.166 C 
BRANCH  21  22
HETATM   22  C   UNL     1      41.813 -14.138   0.948  1.00  0.00    -0.037 A 
HETATM   23  C   UNL     1      41.703 -13.228  -0.124  1.00  0.00     0.048 A 
HETATM   24  C   UNL     1      41.453 -13.718  -1.388  1.00  0.00     0.105 A 
HETATM   25  C   UNL     1      41.298 -15.060  -1.626  1.00  0.00     0.105 A 
HETATM   26  O   UNL     1      41.327 -12.971  -2.518  1.00  0.00    -0.323 OA
HETATM   27  O   UNL     1      41.058 -15.333  -2.936  1.00  0.00    -0.323 OA
HETATM   28  C   UNL     1      41.390 -15.985  -0.612  1.00  0.00     0.040 A 
HETATM   29  C   UNL     1      41.071 -14.004  -3.494  1.00  0.00     0.352 A 
HETATM   30  C   UNL     1      41.652 -15.516   0.682  1.00  0.00     0.012 A 
ENDBRANCH  21  22
ENDBRANCH   1  21
BRANCH   2  31
HETATM   31  C   UNL     1      41.905 -15.348   4.715  1.00  0.00     0.101 A 
HETATM   32  N   UNL     1      42.107 -16.428   3.880  1.00  0.00    -0.351 N 
HETATM   33  H   UNL     1      41.566 -16.584   3.038  1.00  0.00     0.166 HD
HETATM   34  C   UNL     1      43.101 -17.254   4.349  1.00  0.00     0.043 A 
HETATM   35  C   UNL     1      43.633 -16.615   5.454  1.00  0.00     0.033 A 
HETATM   36  C   UNL     1      42.901 -15.418   5.672  1.00  0.00     0.037 A 
BRANCH  34  37
HETATM   37  C   UNL     1      43.464 -18.510   3.689  1.00  0.00    -0.009 A 
HETATM   38  C   UNL     1      44.362 -19.399   4.295  1.00  0.00     0.013 A 
HETATM   39  C   UNL     1      44.716 -20.597   3.666  1.00  0.00     0.001 A 
HETATM   40  C   UNL     1      44.173 -20.921   2.425  1.00  0.00     0.000 A 
HETATM   41  C   UNL     1      43.274 -20.052   1.813  1.00  0.00     0.001 A 
HETATM   42  C   UNL     1      42.920 -18.855   2.442  1.00  0.00     0.013 A 
ENDBRANCH  34  37
ENDBRANCH   2  31
TORSDOF 8
ENDMDL
MODEL 9
REMARK VINA RESULT:      -8.8      2.229      3.085
REMARK  8 active torsions:
REMARK  status: ('A' for Active; 'I' for Inactive)
REMARK    1  A    between atoms: C_4  and  C_5 
REMARK    2  A    between atoms: C_5  and  N_6 
REMARK    3  A    between atoms: C_5  and  C_31 
REMARK       I    between atoms: N_6  and  C_7 
REMARK    4  A    between atoms: N_6  and  C_21 
REMARK    5  A    between atoms: C_7  and  C_8 
REMARK    6  A    between atoms: C_11  and  C_12 
REMARK    7  A    between atoms: C_21  and  C_22 
REMARK       I    between atoms: C_31  and  N_32 
REMARK    8  A    between atoms: N_32  and  C_33 
ROOT
HETATM    1  N   UNL     1      41.248 -14.581   2.469  1.00  0.00    -0.323 N 
HETATM    2  C   UNL     1      41.454 -15.826   3.066  1.00  0.00     0.271 C 
HETATM    3  O   UNL     1      40.770 -16.188   4.024  1.00  0.00    -0.266 OA
ENDROOT
BRANCH   1   4
HETATM    4  C   UNL     1      40.225 -13.713   3.089  1.00  0.00     0.237 C 
BRANCH   4   5
HETATM    5  C   UNL     1      39.071 -13.519   2.142  1.00  0.00     0.085 A 
HETATM    6  O   UNL     1      38.708 -12.253   1.772  1.00  0.00    -0.317 OA
HETATM    7  C   UNL     1      37.639 -12.361   0.935  1.00  0.00     0.049 A 
HETATM    8  C   UNL     1      37.053 -11.096   0.449  1.00  0.00     0.076 C 
HETATM    9  C   UNL     1      37.335 -13.688   0.725  1.00  0.00     0.035 A 
HETATM   10  C   UNL     1      38.256 -14.433   1.499  1.00  0.00     0.038 A 
ENDBRANCH   4   5
BRANCH   4  11
HETATM   11  C   UNL     1      40.846 -12.452   3.751  1.00  0.00     0.247 C 
HETATM   12  N   UNL     1      40.029 -11.373   3.983  1.00  0.00    -0.354 N 
HETATM   13  H   UNL     1      39.058 -11.479   3.704  1.00  0.00     0.162 HD
HETATM   14  O   UNL     1      42.052 -12.425   4.004  1.00  0.00    -0.271 OA
BRANCH  12  15
HETATM   15  C   UNL     1      40.385 -10.086   4.575  1.00  0.00     0.084 C 
HETATM   16  C   UNL     1      39.448  -8.935   4.180  1.00  0.00     0.025 C 
HETATM   17  C   UNL     1      38.309  -8.656   5.158  1.00  0.00     0.002 C 
HETATM   18  C   UNL     1      38.796  -8.586   6.599  1.00  0.00     0.000 C 
HETATM   19  C   UNL     1      39.536  -9.853   7.003  1.00  0.00     0.002 C 
HETATM   20  C   UNL     1      40.708 -10.153   6.073  1.00  0.00     0.025 C 
ENDBRANCH  12  15
ENDBRANCH   4  11
ENDBRANCH   1   4
BRANCH   1  21
HETATM   21  C   UNL     1      42.069 -14.002   1.402  1.00  0.00     0.166 C 
BRANCH  21  22
HETATM   22  C   UNL     1      41.465 -13.886   0.018  1.00  0.00    -0.037 A 
HETATM   23  C   UNL     1      41.177 -15.085  -0.666  1.00  0.00     0.048 A 
HETATM   24  C   UNL     1      40.658 -15.015  -1.942  1.00  0.00     0.105 A 
HETATM   25  C   UNL     1      40.426 -13.814  -2.563  1.00  0.00     0.105 A 
HETATM   26  O   UNL     1      40.325 -16.078  -2.723  1.00  0.00    -0.323 OA
HETATM   27  O   UNL     1      39.915 -13.964  -3.813  1.00  0.00    -0.323 OA
HETATM   28  C   UNL     1      40.697 -12.618  -1.939  1.00  0.00     0.040 A 
HETATM   29  C   UNL     1      39.860 -15.401  -3.910  1.00  0.00     0.352 A 
HETATM   30  C   UNL     1      41.218 -12.660  -0.638  1.00  0.00     0.012 A 
ENDBRANCH  21  22
ENDBRANCH   1  21
BRANCH   2  31
HETATM   31  C   UNL     1      42.535 -16.685   2.626  1.00  0.00     0.101 A 
HETATM   32  N   UNL     1      42.623 -17.975   3.107  1.00  0.00    -0.351 N 
HETATM   33  H   UNL     1      41.948 -18.373   3.749  1.00  0.00     0.166 HD
HETATM   34  C   UNL     1      43.738 -18.621   2.627  1.00  0.00     0.043 A 
HETATM   35  C   UNL     1      44.312 -17.755   1.713  1.00  0.00     0.033 A 
HETATM   36  C   UNL     1      43.552 -16.556   1.698  1.00  0.00     0.037 A 
BRANCH  34  37
HETATM   37  C   UNL     1      44.108 -19.976   3.040  1.00  0.00    -0.009 A 
HETATM   38  C   UNL     1      44.016 -21.046   2.139  1.00  0.00     0.013 A 
HETATM   39  C   UNL     1      44.363 -22.343   2.531  1.00  0.00     0.001 A 
HETATM   40  C   UNL     1      44.809 -22.585   3.828  1.00  0.00     0.000 A 
HETATM   41  C   UNL     1      44.913 -21.532   4.733  1.00  0.00     0.001 A 
HETATM   42  C   UNL     1      44.567 -20.236   4.341  1.00  0.00     0.013 A 
ENDBRANCH  34  37
ENDBRANCH   2  31
TORSDOF 8
ENDMDL
MODEL 10
REMARK VINA RESULT:      -8.7      2.275      4.829
REMARK  8 active torsions:
REMARK  status: ('A' for Active; 'I' for Inactive)
REMARK    1  A    between atoms: C_4  and  C_5 
REMARK    2  A    between atoms: C_5  and  N_6 
REMARK    3  A    between atoms: C_5  and  C_31 
REMARK       I    between atoms: N_6  and  C_7 
REMARK    4  A    between atoms: N_6  and  C_21 
REMARK    5  A    between atoms: C_7  and  C_8 
REMARK    6  A    between atoms: C_11  and  C_12 
REMARK    7  A    between atoms: C_21  and  C_22 
REMARK       I    between atoms: C_31  and  N_32 
REMARK    8  A    between atoms: N_32  and  C_33 
ROOT
HETATM    1  N   UNL     1      41.397 -15.011   1.242  1.00  0.00    -0.323 N 
HETATM    2  C   UNL     1      41.420 -16.398   1.081  1.00  0.00     0.271 C 
HETATM    3  O   UNL     1      40.447 -16.996   0.620  1.00  0.00    -0.266 OA
ENDROOT
BRANCH   1   4
HETATM    4  C   UNL     1      40.134 -14.327   0.894  1.00  0.00     0.237 C 
BRANCH   4   5
HETATM    5  C   UNL     1      39.967 -14.281  -0.601  1.00  0.00     0.085 A 
HETATM    6  O   UNL     1      38.710 -14.219  -1.137  1.00  0.00    -0.317 OA
HETATM    7  C   UNL     1      38.843 -14.207  -2.492  1.00  0.00     0.049 A 
HETATM    8  C   UNL     1      37.592 -14.189  -3.276  1.00  0.00     0.076 C 
HETATM    9  C   UNL     1      40.177 -14.215  -2.837  1.00  0.00     0.035 A 
HETATM   10  C   UNL     1      40.900 -14.261  -1.622  1.00  0.00     0.038 A 
ENDBRANCH   4   5
BRANCH   4  11
HETATM   11  C   UNL     1      39.942 -13.007   1.691  1.00  0.00     0.247 C 
HETATM   12  N   UNL     1      39.640 -13.096   3.028  1.00  0.00    -0.354 N 
HETATM   13  H   UNL     1      39.567 -14.035   3.408  1.00  0.00     0.162 HD
HETATM   14  O   UNL     1      40.011 -11.923   1.108  1.00  0.00    -0.271 OA
BRANCH  12  15
HETATM   15  C   UNL     1      39.402 -12.006   3.971  1.00  0.00     0.084 C 
HETATM   16  C   UNL     1      38.715 -12.445   5.273  1.00  0.00     0.025 C 
HETATM   17  C   UNL     1      39.655 -12.757   6.435  1.00  0.00     0.002 C 
HETATM   18  C   UNL     1      40.705 -11.671   6.629  1.00  0.00     0.000 C 
HETATM   19  C   UNL     1      41.505 -11.430   5.356  1.00  0.00     0.002 C 
HETATM   20  C   UNL     1      40.608 -11.079   4.173  1.00  0.00     0.025 C 
ENDBRANCH  12  15
ENDBRANCH   4  11
ENDBRANCH   1   4
BRANCH   1  21
HETATM   21  C   UNL     1      42.446 -14.211   1.880  1.00  0.00     0.166 C 
BRANCH  21  22
HETATM   22  C   UNL     1      42.690 -14.403   3.362  1.00  0.00    -0.037 A 
HETATM   23  C   UNL     1      43.872 -13.853   3.901  1.00  0.00     0.048 A 
HETATM   24  C   UNL     1      44.142 -14.039   5.240  1.00  0.00     0.105 A 
HETATM   25  C   UNL     1      43.299 -14.751   6.055  1.00  0.00     0.105 A 
HETATM   26  O   UNL     1      45.232 -13.568   5.903  1.00  0.00    -0.323 OA
HETATM   27  O   UNL     1      43.747 -14.818   7.337  1.00  0.00    -0.323 OA
HETATM   28  C   UNL     1      42.138 -15.312   5.574  1.00  0.00     0.040 A 
HETATM   29  C   UNL     1      44.976 -14.072   7.231  1.00  0.00     0.352 A 
HETATM   30  C   UNL     1      41.835 -15.131   4.218  1.00  0.00     0.012 A 
ENDBRANCH  21  22
ENDBRANCH   1  21
BRANCH   2  31
HETATM   31  C   UNL     1      42.556 -17.174   1.535  1.00  0.00     0.101 A 
HETATM   32  N   UNL     1      42.453 -17.932   2.683  1.00  0.00    -0.351 N 
HETATM   33  H   UNL     1      41.602 -17.996   3.228  1.00  0.00     0.166 HD
HETATM   34  C   UNL     1      43.640 -18.554   2.990  1.00  0.00     0.043 A 
HETATM   35  C   UNL     1      44.493 -18.280   1.936  1.00  0.00     0.033 A 
HETATM   36  C   UNL     1      43.812 -17.436   1.020  1.00  0.00     0.037 A 
BRANCH  34  37
HETATM   37  C   UNL     1      43.823 -19.360   4.199  1.00  0.00    -0.009 A 
HETATM   38  C   UNL     1      44.494 -20.589   4.141  1.00  0.00     0.013 A 
HETATM   39  C   UNL     1      44.666 -21.364   5.292  1.00  0.00     0.001 A 
HETATM   40  C   UNL     1      44.172 -20.918   6.516  1.00  0.00     0.000 A 
HETATM   41  C   UNL     1      43.510 -19.695   6.591  1.00  0.00     0.001 A 
HETATM   42  C   UNL     1      43.338 -18.921   5.441  1.00  0.00     0.013 A 
ENDBRANCH  34  37
ENDBRANCH   2  31
TORSDOF 8
ENDMDL
