MODEL 1
REMARK VINA RESULT:      -8.6      0.000      0.000
REMARK  8 active torsions:
REMARK  status: ('A' for Active; 'I' for Inactive)
REMARK    1  A    between atoms: O_2  and  C_3 
REMARK    2  A    between atoms: C_5  and  N_6 
REMARK       I    between atoms: N_6  and  C_7 
REMARK    3  A    between atoms: C_7  and  C_8 
REMARK    4  A    between atoms: C_8  and  N_9 
REMARK    5  A    between atoms: C_8  and  C_25 
REMARK    6  A    between atoms: N_9  and  C_12 
REMARK    7  A    between atoms: C_12  and  C_13 
REMARK    8  A    between atoms: C_16  and  N_17 
ROOT
HETATM    1  C   UNL     1      43.867 -15.342   6.451  1.00  0.00     0.310 C 
ENDROOT
BRANCH   1   2
HETATM    2  C   UNL     1      43.270 -16.723   6.789  1.00  0.00     0.257 C 
HETATM    3  N   UNL     1      42.874 -17.647   5.878  1.00  0.00    -0.325 N 
HETATM    4  H   UNL     1      42.597 -18.511   6.339  1.00  0.00     0.169 HD
HETATM    5  O   UNL     1      43.222 -17.038   7.991  1.00  0.00    -0.270 OA
BRANCH   3   6
HETATM    6  C   UNL     1      42.766 -17.670   4.476  1.00  0.00     0.037 A 
HETATM    7  C   UNL     1      41.626 -17.360   3.739  1.00  0.00     0.066 A 
HETATM    8  C   UNL     1      41.622 -17.425   2.337  1.00  0.00     0.070 A 
HETATM    9  C   UNL     1      42.776 -17.800   1.658  1.00  0.00     0.037 A 
HETATM   10  C   UNL     1      43.922 -18.126   2.380  1.00  0.00     0.005 A 
HETATM   11  C   UNL     1      43.914 -18.067   3.775  1.00  0.00     0.029 A 
BRANCH   8  12
HETATM   12  O   UNL     1      40.424 -17.092   1.764  1.00  0.00    -0.356 OA
HETATM   13  C   UNL     1      39.910 -15.798   2.059  1.00  0.00     0.210 C 
ENDBRANCH   8  12
ENDBRANCH   3   6
ENDBRANCH   1   2
BRANCH   1  14
HETATM   14  N   UNL     1      43.932 -14.522   7.728  1.00  0.00    -0.054 N 
HETATM   15  H   UNL     1      42.984 -14.345   8.081  1.00  0.00     0.278 HD
HETATM   16  H   UNL     1      44.379 -15.135   8.429  1.00  0.00     0.278 HD
BRANCH  14  17
HETATM   17  C   UNL     1      44.705 -13.257   7.686  1.00  0.00     0.272 C 
BRANCH  17  18
HETATM   18  C   UNL     1      44.371 -12.454   8.911  1.00  0.00    -0.033 A 
HETATM   19  C   UNL     1      44.894 -12.815  10.155  1.00  0.00     0.011 A 
HETATM   20  C   UNL     1      44.441 -12.188  11.323  1.00  0.00     0.030 A 
HETATM   21  C   UNL     1      43.453 -11.198  11.287  1.00  0.00     0.037 A 
HETATM   22  C   UNL     1      42.974 -10.808  10.028  1.00  0.00     0.030 A 
HETATM   23  C   UNL     1      43.421 -11.429   8.855  1.00  0.00     0.011 A 
BRANCH  21  24
HETATM   24  N   UNL     1      42.925 -10.623  12.476  1.00  0.00    -0.318 N 
HETATM   25  C   UNL     1      41.679 -10.924  13.056  1.00  0.00     0.224 C 
HETATM   26  O   UNL     1      40.850 -11.751  12.711  1.00  0.00    -0.273 OA
HETATM   27  C   UNL     1      41.449  -9.953  14.190  1.00  0.00     0.105 C 
HETATM   28  C   UNL     1      42.835  -9.411  14.475  1.00  0.00     0.029 C 
HETATM   29  C   UNL     1      43.524  -9.481  13.129  1.00  0.00     0.133 C 
ENDBRANCH  21  24
ENDBRANCH  17  18
ENDBRANCH  14  17
ENDBRANCH   1  14
BRANCH   1  30
HETATM   30  C   UNL     1      43.043 -14.533   5.463  1.00  0.00    -0.019 A 
HETATM   31  C   UNL     1      43.628 -14.128   4.248  1.00  0.00     0.010 A 
HETATM   32  C   UNL     1      42.930 -13.309   3.360  1.00  0.00     0.001 A 
HETATM   33  C   UNL     1      41.650 -12.868   3.679  1.00  0.00     0.000 A 
HETATM   34  C   UNL     1      41.063 -13.246   4.884  1.00  0.00     0.001 A 
HETATM   35  C   UNL     1      41.755 -14.068   5.776  1.00  0.00     0.010 A 
ENDBRANCH   1  30
TORSDOF 8
ENDMDL
MODEL 2
REMARK VINA RESULT:      -8.5      4.295      8.211
REMARK  8 active torsions:
REMARK  status: ('A' for Active; 'I' for Inactive)
REMARK    1  A    between atoms: O_2  and  C_3 
REMARK    2  A    between atoms: C_5  and  N_6 
REMARK       I    between atoms: N_6  and  C_7 
REMARK    3  A    between atoms: C_7  and  C_8 
REMARK    4  A    between atoms: C_8  and  N_9 
REMARK    5  A    between atoms: C_8  and  C_25 
REMARK    6  A    between atoms: N_9  and  C_12 
REMARK    7  A    between atoms: C_12  and  C_13 
REMARK    8  A    between atoms: C_16  and  N_17 
ROOT
HETATM    1  C   UNL     1      41.024 -14.479   0.156  1.00  0.00     0.310 C 
ENDROOT
BRANCH   1   2
HETATM    2  C   UNL     1      41.825 -13.189   0.421  1.00  0.00     0.257 C 
HETATM    3  N   UNL     1      42.294 -12.796   1.631  1.00  0.00    -0.325 N 
HETATM    4  H   UNL     1      42.866 -11.958   1.541  1.00  0.00     0.169 HD
HETATM    5  O   UNL     1      42.126 -12.498  -0.568  1.00  0.00    -0.270 OA
BRANCH   3   6
HETATM    6  C   UNL     1      42.167 -13.278   2.946  1.00  0.00     0.037 A 
HETATM    7  C   UNL     1      43.214 -13.645   3.787  1.00  0.00     0.066 A 
HETATM    8  C   UNL     1      42.975 -14.127   5.084  1.00  0.00     0.070 A 
HETATM    9  C   UNL     1      41.670 -14.238   5.552  1.00  0.00     0.037 A 
HETATM   10  C   UNL     1      40.610 -13.887   4.719  1.00  0.00     0.005 A 
HETATM   11  C   UNL     1      40.857 -13.418   3.427  1.00  0.00     0.029 A 
BRANCH   8  12
HETATM   12  O   UNL     1      44.109 -14.446   5.781  1.00  0.00    -0.356 OA
HETATM   13  C   UNL     1      44.342 -13.728   6.988  1.00  0.00     0.210 C 
ENDBRANCH   8  12
ENDBRANCH   3   6
ENDBRANCH   1   2
BRANCH   1  14
HETATM   14  N   UNL     1      41.997 -15.644   0.097  1.00  0.00    -0.054 N 
HETATM   15  H   UNL     1      42.355 -15.755  -0.859  1.00  0.00     0.278 HD
HETATM   16  H   UNL     1      42.809 -15.356   0.666  1.00  0.00     0.278 HD
BRANCH  14  17
HETATM   17  C   UNL     1      41.528 -16.950   0.619  1.00  0.00     0.272 C 
BRANCH  17  18
HETATM   18  C   UNL     1      41.961 -17.073   2.052  1.00  0.00    -0.033 A 
HETATM   19  C   UNL     1      43.319 -17.132   2.377  1.00  0.00     0.011 A 
HETATM   20  C   UNL     1      43.723 -17.432   3.683  1.00  0.00     0.030 A 
HETATM   21  C   UNL     1      42.793 -17.692   4.697  1.00  0.00     0.037 A 
HETATM   22  C   UNL     1      41.434 -17.577   4.371  1.00  0.00     0.030 A 
HETATM   23  C   UNL     1      41.020 -17.277   3.067  1.00  0.00     0.011 A 
BRANCH  21  24
HETATM   24  N   UNL     1      43.197 -18.086   6.002  1.00  0.00    -0.318 N 
HETATM   25  C   UNL     1      43.836 -19.293   6.340  1.00  0.00     0.224 C 
HETATM   26  O   UNL     1      44.218 -20.192   5.607  1.00  0.00    -0.273 OA
HETATM   27  C   UNL     1      43.909 -19.374   7.846  1.00  0.00     0.105 C 
HETATM   28  C   UNL     1      43.685 -17.941   8.286  1.00  0.00     0.029 C 
HETATM   29  C   UNL     1      42.802 -17.372   7.195  1.00  0.00     0.133 C 
ENDBRANCH  21  24
ENDBRANCH  17  18
ENDBRANCH  14  17
ENDBRANCH   1  14
BRANCH   1  30
HETATM   30  C   UNL     1      40.269 -14.484  -1.163  1.00  0.00    -0.019 A 
HETATM   31  C   UNL     1      38.964 -13.959  -1.210  1.00  0.00     0.010 A 
HETATM   32  C   UNL     1      38.210 -14.029  -2.382  1.00  0.00     0.001 A 
HETATM   33  C   UNL     1      38.740 -14.639  -3.515  1.00  0.00     0.000 A 
HETATM   34  C   UNL     1      40.023 -15.178  -3.480  1.00  0.00     0.001 A 
HETATM   35  C   UNL     1      40.784 -15.108  -2.312  1.00  0.00     0.010 A 
ENDBRANCH   1  30
TORSDOF 8
ENDMDL
MODEL 3
REMARK VINA RESULT:      -8.5      4.139      6.283
REMARK  8 active torsions:
REMARK  status: ('A' for Active; 'I' for Inactive)
REMARK    1  A    between atoms: O_2  and  C_3 
REMARK    2  A    between atoms: C_5  and  N_6 
REMARK       I    between atoms: N_6  and  C_7 
REMARK    3  A    between atoms: C_7  and  C_8 
REMARK    4  A    between atoms: C_8  and  N_9 
REMARK    5  A    between atoms: C_8  and  C_25 
REMARK    6  A    between atoms: N_9  and  C_12 
REMARK    7  A    between atoms: C_12  and  C_13 
REMARK    8  A    between atoms: C_16  and  N_17 
ROOT
HETATM    1  C   UNL     1      43.016 -17.959   2.816  1.00  0.00     0.310 C 
ENDROOT
BRANCH   1   2
HETATM    2  C   UNL     1      43.531 -17.072   1.665  1.00  0.00     0.257 C 
HETATM    3  N   UNL     1      42.947 -15.923   1.243  1.00  0.00    -0.325 N 
HETATM    4  H   UNL     1      43.516 -15.469   0.531  1.00  0.00     0.169 HD
HETATM    5  O   UNL     1      44.608 -17.401   1.137  1.00  0.00    -0.270 OA
BRANCH   3   6
HETATM    6  C   UNL     1      41.760 -15.240   1.566  1.00  0.00     0.037 A 
HETATM    7  C   UNL     1      41.642 -13.873   1.803  1.00  0.00     0.066 A 
HETATM    8  C   UNL     1      40.407 -13.292   2.130  1.00  0.00     0.070 A 
HETATM    9  C   UNL     1      39.269 -14.087   2.215  1.00  0.00     0.037 A 
HETATM   10  C   UNL     1      39.371 -15.458   1.993  1.00  0.00     0.005 A 
HETATM   11  C   UNL     1      40.606 -16.029   1.678  1.00  0.00     0.029 A 
BRANCH   8  12
HETATM   12  O   UNL     1      40.460 -11.940   2.334  1.00  0.00    -0.356 OA
HETATM   13  C   UNL     1      39.512 -11.147   1.628  1.00  0.00     0.210 C 
ENDBRANCH   8  12
ENDBRANCH   3   6
ENDBRANCH   1   2
BRANCH   1  14
HETATM   14  N   UNL     1      43.413 -17.315   4.133  1.00  0.00    -0.054 N 
HETATM   15  H   UNL     1      44.257 -17.765   4.505  1.00  0.00     0.278 HD
HETATM   16  H   UNL     1      43.695 -16.350   3.896  1.00  0.00     0.278 HD
BRANCH  14  17
HETATM   17  C   UNL     1      42.375 -17.228   5.188  1.00  0.00     0.272 C 
BRANCH  17  18
HETATM   18  C   UNL     1      41.885 -15.809   5.258  1.00  0.00    -0.033 A 
HETATM   19  C   UNL     1      42.784 -14.746   5.141  1.00  0.00     0.011 A 
HETATM   20  C   UNL     1      42.365 -13.433   5.391  1.00  0.00     0.030 A 
HETATM   21  C   UNL     1      41.050 -13.143   5.773  1.00  0.00     0.037 A 
HETATM   22  C   UNL     1      40.145 -14.213   5.834  1.00  0.00     0.030 A 
HETATM   23  C   UNL     1      40.554 -15.529   5.587  1.00  0.00     0.011 A 
BRANCH  21  24
HETATM   24  N   UNL     1      40.642 -11.825   6.115  1.00  0.00    -0.318 N 
HETATM   25  C   UNL     1      39.459 -11.191   5.695  1.00  0.00     0.224 C 
HETATM   26  O   UNL     1      38.542 -11.640   5.026  1.00  0.00    -0.273 OA
HETATM   27  C   UNL     1      39.523  -9.748   6.137  1.00  0.00     0.105 C 
HETATM   28  C   UNL     1      40.595  -9.757   7.209  1.00  0.00     0.029 C 
HETATM   29  C   UNL     1      41.513 -10.881   6.778  1.00  0.00     0.133 C 
ENDBRANCH  21  24
ENDBRANCH  17  18
ENDBRANCH  14  17
ENDBRANCH   1  14
BRANCH   1  30
HETATM   30  C   UNL     1      43.602 -19.361   2.831  1.00  0.00    -0.019 A 
HETATM   31  C   UNL     1      43.221 -20.277   1.832  1.00  0.00     0.010 A 
HETATM   32  C   UNL     1      43.669 -21.597   1.868  1.00  0.00     0.001 A 
HETATM   33  C   UNL     1      44.488 -22.027   2.908  1.00  0.00     0.000 A 
HETATM   34  C   UNL     1      44.860 -21.138   3.913  1.00  0.00     0.001 A 
HETATM   35  C   UNL     1      44.418 -19.815   3.882  1.00  0.00     0.010 A 
ENDBRANCH   1  30
TORSDOF 8
ENDMDL
MODEL 4
REMARK VINA RESULT:      -8.5      5.291      9.260
REMARK  8 active torsions:
REMARK  status: ('A' for Active; 'I' for Inactive)
REMARK    1  A    between atoms: O_2  and  C_3 
REMARK    2  A    between atoms: C_5  and  N_6 
REMARK       I    between atoms: N_6  and  C_7 
REMARK    3  A    between atoms: C_7  and  C_8 
REMARK    4  A    between atoms: C_8  and  N_9 
REMARK    5  A    between atoms: C_8  and  C_25 
REMARK    6  A    between atoms: N_9  and  C_12 
REMARK    7  A    between atoms: C_12  and  C_13 
REMARK    8  A    between atoms: C_16  and  N_17 
ROOT
HETATM    1  C   UNL     1      42.292 -17.174   3.629  1.00  0.00     0.310 C 
ENDROOT
BRANCH   1   2
HETATM    2  C   UNL     1      43.490 -17.121   2.660  1.00  0.00     0.257 C 
HETATM    3  N   UNL     1      44.237 -18.189   2.282  1.00  0.00    -0.325 N 
HETATM    4  H   UNL     1      44.914 -17.921   1.571  1.00  0.00     0.169 HD
HETATM    5  O   UNL     1      43.738 -16.025   2.128  1.00  0.00    -0.270 OA
BRANCH   3   6
HETATM    6  C   UNL     1      44.279 -19.546   2.650  1.00  0.00     0.037 A 
HETATM    7  C   UNL     1      44.638 -20.044   3.899  1.00  0.00     0.066 A 
HETATM    8  C   UNL     1      44.658 -21.423   4.159  1.00  0.00     0.070 A 
HETATM    9  C   UNL     1      44.305 -22.321   3.156  1.00  0.00     0.037 A 
HETATM   10  C   UNL     1      43.955 -21.841   1.897  1.00  0.00     0.005 A 
HETATM   11  C   UNL     1      43.948 -20.467   1.645  1.00  0.00     0.029 A 
BRANCH   8  12
HETATM   12  O   UNL     1      45.035 -21.748   5.433  1.00  0.00    -0.356 OA
HETATM   13  C   UNL     1      44.098 -21.472   6.469  1.00  0.00     0.210 C 
ENDBRANCH   8  12
ENDBRANCH   3   6
ENDBRANCH   1   2
BRANCH   1  14
HETATM   14  N   UNL     1      41.333 -16.052   3.268  1.00  0.00    -0.054 N 
HETATM   15  H   UNL     1      40.863 -15.706   4.113  1.00  0.00     0.278 HD
HETATM   16  H   UNL     1      41.928 -15.273   2.943  1.00  0.00     0.278 HD
BRANCH  14  17
HETATM   17  C   UNL     1      40.337 -16.324   2.205  1.00  0.00     0.272 C 
BRANCH  17  18
HETATM   18  C   UNL     1      40.559 -15.349   1.084  1.00  0.00    -0.033 A 
HETATM   19  C   UNL     1      41.135 -15.773  -0.117  1.00  0.00     0.011 A 
HETATM   20  C   UNL     1      41.514 -14.840  -1.089  1.00  0.00     0.030 A 
HETATM   21  C   UNL     1      41.342 -13.465  -0.893  1.00  0.00     0.037 A 
HETATM   22  C   UNL     1      40.715 -13.056   0.293  1.00  0.00     0.030 A 
HETATM   23  C   UNL     1      40.332 -13.982   1.272  1.00  0.00     0.011 A 
BRANCH  21  24
HETATM   24  N   UNL     1      41.807 -12.508  -1.836  1.00  0.00    -0.318 N 
HETATM   25  C   UNL     1      42.710 -11.461  -1.575  1.00  0.00     0.224 C 
HETATM   26  O   UNL     1      43.306 -11.200  -0.542  1.00  0.00    -0.273 OA
HETATM   27  C   UNL     1      42.775 -10.587  -2.805  1.00  0.00     0.105 C 
HETATM   28  C   UNL     1      42.209 -11.474  -3.896  1.00  0.00     0.029 C 
HETATM   29  C   UNL     1      41.234 -12.364  -3.156  1.00  0.00     0.133 C 
ENDBRANCH  21  24
ENDBRANCH  17  18
ENDBRANCH  14  17
ENDBRANCH   1  14
BRANCH   1  30
HETATM   30  C   UNL     1      42.663 -16.968   5.088  1.00  0.00    -0.019 A 
HETATM   31  C   UNL     1      43.332 -15.789   5.468  1.00  0.00     0.010 A 
HETATM   32  C   UNL     1      43.767 -15.608   6.781  1.00  0.00     0.001 A 
HETATM   33  C   UNL     1      43.557 -16.607   7.728  1.00  0.00     0.000 A 
HETATM   34  C   UNL     1      42.912 -17.785   7.364  1.00  0.00     0.001 A 
HETATM   35  C   UNL     1      42.471 -17.971   6.053  1.00  0.00     0.010 A 
ENDBRANCH   1  30
TORSDOF 8
ENDMDL
MODEL 5
REMARK VINA RESULT:      -8.4      3.861      9.228
REMARK  8 active torsions:
REMARK  status: ('A' for Active; 'I' for Inactive)
REMARK    1  A    between atoms: O_2  and  C_3 
REMARK    2  A    between atoms: C_5  and  N_6 
REMARK       I    between atoms: N_6  and  C_7 
REMARK    3  A    between atoms: C_7  and  C_8 
REMARK    4  A    between atoms: C_8  and  N_9 
REMARK    5  A    between atoms: C_8  and  C_25 
REMARK    6  A    between atoms: N_9  and  C_12 
REMARK    7  A    between atoms: C_12  and  C_13 
REMARK    8  A    between atoms: C_16  and  N_17 
ROOT
HETATM    1  C   UNL     1      40.916 -14.164   2.542  1.00  0.00     0.310 C 
ENDROOT
BRANCH   1   2
HETATM    2  C   UNL     1      42.304 -13.495   2.491  1.00  0.00     0.257 C 
HETATM    3  N   UNL     1      43.318 -13.732   3.361  1.00  0.00    -0.325 N 
HETATM    4  H   UNL     1      44.162 -13.241   3.073  1.00  0.00     0.169 HD
HETATM    5  O   UNL     1      42.531 -12.738   1.532  1.00  0.00    -0.270 OA
BRANCH   3   6
HETATM    6  C   UNL     1      43.453 -14.487   4.540  1.00  0.00     0.037 A 
HETATM    7  C   UNL     1      44.002 -14.039   5.739  1.00  0.00     0.066 A 
HETATM    8  C   UNL     1      44.100 -14.880   6.858  1.00  0.00     0.070 A 
HETATM    9  C   UNL     1      43.636 -16.190   6.782  1.00  0.00     0.037 A 
HETATM   10  C   UNL     1      43.096 -16.658   5.587  1.00  0.00     0.005 A 
HETATM   11  C   UNL     1      43.011 -15.816   4.476  1.00  0.00     0.029 A 
BRANCH   8  12
HETATM   12  O   UNL     1      44.664 -14.290   7.956  1.00  0.00    -0.356 OA
HETATM   13  C   UNL     1      44.597 -12.869   8.025  1.00  0.00     0.210 C 
ENDBRANCH   8  12
ENDBRANCH   3   6
ENDBRANCH   1   2
BRANCH   1  14
HETATM   14  N   UNL     1      40.897 -15.306   1.541  1.00  0.00    -0.054 N 
HETATM   15  H   UNL     1      40.567 -16.166   1.995  1.00  0.00     0.278 HD
HETATM   16  H   UNL     1      40.168 -15.059   0.852  1.00  0.00     0.278 HD
BRANCH  14  17
HETATM   17  C   UNL     1      42.146 -15.573   0.789  1.00  0.00     0.272 C 
BRANCH  17  18
HETATM   18  C   UNL     1      42.685 -16.907   1.220  1.00  0.00    -0.033 A 
HETATM   19  C   UNL     1      41.813 -17.940   1.574  1.00  0.00     0.011 A 
HETATM   20  C   UNL     1      42.305 -19.117   2.151  1.00  0.00     0.030 A 
HETATM   21  C   UNL     1      43.671 -19.295   2.401  1.00  0.00     0.037 A 
HETATM   22  C   UNL     1      44.541 -18.274   1.991  1.00  0.00     0.030 A 
HETATM   23  C   UNL     1      44.058 -17.093   1.414  1.00  0.00     0.011 A 
BRANCH  21  24
HETATM   24  N   UNL     1      44.167 -20.449   3.068  1.00  0.00    -0.318 N 
HETATM   25  C   UNL     1      44.250 -21.744   2.527  1.00  0.00     0.224 C 
HETATM   26  O   UNL     1      43.983 -22.125   1.398  1.00  0.00    -0.273 OA
HETATM   27  C   UNL     1      44.656 -22.686   3.637  1.00  0.00     0.105 C 
HETATM   28  C   UNL     1      45.225 -21.759   4.692  1.00  0.00     0.029 C 
HETATM   29  C   UNL     1      44.454 -20.473   4.485  1.00  0.00     0.133 C 
ENDBRANCH  21  24
ENDBRANCH  17  18
ENDBRANCH  14  17
ENDBRANCH   1  14
BRANCH   1  30
HETATM   30  C   UNL     1      39.768 -13.243   2.164  1.00  0.00    -0.019 A 
HETATM   31  C   UNL     1      39.427 -12.180   3.022  1.00  0.00     0.010 A 
HETATM   32  C   UNL     1      38.322 -11.373   2.751  1.00  0.00     0.001 A 
HETATM   33  C   UNL     1      37.533 -11.624   1.632  1.00  0.00     0.000 A 
HETATM   34  C   UNL     1      37.847 -12.681   0.783  1.00  0.00     0.001 A 
HETATM   35  C   UNL     1      38.952 -13.492   1.047  1.00  0.00     0.010 A 
ENDBRANCH   1  30
TORSDOF 8
ENDMDL
MODEL 6
REMARK VINA RESULT:      -8.4      4.726      6.771
REMARK  8 active torsions:
REMARK  status: ('A' for Active; 'I' for Inactive)
REMARK    1  A    between atoms: O_2  and  C_3 
REMARK    2  A    between atoms: C_5  and  N_6 
REMARK       I    between atoms: N_6  and  C_7 
REMARK    3  A    between atoms: C_7  and  C_8 
REMARK    4  A    between atoms: C_8  and  N_9 
REMARK    5  A    between atoms: C_8  and  C_25 
REMARK    6  A    between atoms: N_9  and  C_12 
REMARK    7  A    between atoms: C_12  and  C_13 
REMARK    8  A    between atoms: C_16  and  N_17 
ROOT
HETATM    1  C   UNL     1      40.477 -14.404   0.756  1.00  0.00     0.310 C 
ENDROOT
BRANCH   1   2
HETATM    2  C   UNL     1      39.646 -15.413   1.574  1.00  0.00     0.257 C 
HETATM    3  N   UNL     1      40.143 -16.513   2.193  1.00  0.00    -0.325 N 
HETATM    4  H   UNL     1      39.420 -16.976   2.741  1.00  0.00     0.169 HD
HETATM    5  O   UNL     1      38.442 -15.151   1.739  1.00  0.00    -0.270 OA
BRANCH   3   6
HETATM    6  C   UNL     1      41.402 -17.138   2.240  1.00  0.00     0.037 A 
HETATM    7  C   UNL     1      41.933 -17.827   3.327  1.00  0.00     0.066 A 
HETATM    8  C   UNL     1      43.210 -18.406   3.273  1.00  0.00     0.070 A 
HETATM    9  C   UNL     1      43.968 -18.303   2.112  1.00  0.00     0.037 A 
HETATM   10  C   UNL     1      43.458 -17.607   1.018  1.00  0.00     0.005 A 
HETATM   11  C   UNL     1      42.190 -17.025   1.085  1.00  0.00     0.029 A 
BRANCH   8  12
HETATM   12  O   UNL     1      43.585 -19.045   4.424  1.00  0.00    -0.356 OA
HETATM   13  C   UNL     1      44.721 -19.899   4.342  1.00  0.00     0.210 C 
ENDBRANCH   8  12
ENDBRANCH   3   6
ENDBRANCH   1   2
BRANCH   1  14
HETATM   14  N   UNL     1      40.165 -13.005   1.262  1.00  0.00    -0.054 N 
HETATM   15  H   UNL     1      39.730 -12.450   0.516  1.00  0.00     0.278 HD
HETATM   16  H   UNL     1      39.433 -13.127   1.980  1.00  0.00     0.278 HD
BRANCH  14  17
HETATM   17  C   UNL     1      41.275 -12.244   1.883  1.00  0.00     0.272 C 
BRANCH  17  18
HETATM   18  C   UNL     1      41.806 -13.036   3.043  1.00  0.00    -0.033 A 
HETATM   19  C   UNL     1      43.039 -13.687   2.948  1.00  0.00     0.011 A 
HETATM   20  C   UNL     1      43.451 -14.575   3.950  1.00  0.00     0.030 A 
HETATM   21  C   UNL     1      42.648 -14.848   5.063  1.00  0.00     0.037 A 
HETATM   22  C   UNL     1      41.437 -14.148   5.173  1.00  0.00     0.030 A 
HETATM   23  C   UNL     1      41.016 -13.258   4.177  1.00  0.00     0.011 A 
BRANCH  21  24
HETATM   24  N   UNL     1      43.019 -15.815   6.036  1.00  0.00    -0.318 N 
HETATM   25  C   UNL     1      42.144 -16.684   6.714  1.00  0.00     0.224 C 
HETATM   26  O   UNL     1      40.940 -16.826   6.572  1.00  0.00    -0.273 OA
HETATM   27  C   UNL     1      42.936 -17.401   7.782  1.00  0.00     0.105 C 
HETATM   28  C   UNL     1      44.374 -17.207   7.342  1.00  0.00     0.029 C 
HETATM   29  C   UNL     1      44.343 -15.880   6.614  1.00  0.00     0.133 C 
ENDBRANCH  21  24
ENDBRANCH  17  18
ENDBRANCH  14  17
ENDBRANCH   1  14
BRANCH   1  30
HETATM   30  C   UNL     1      40.164 -14.401  -0.730  1.00  0.00    -0.019 A 
HETATM   31  C   UNL     1      40.971 -15.155  -1.604  1.00  0.00     0.010 A 
HETATM   32  C   UNL     1      40.768 -15.103  -2.983  1.00  0.00     0.001 A 
HETATM   33  C   UNL     1      39.772 -14.287  -3.511  1.00  0.00     0.000 A 
HETATM   34  C   UNL     1      38.976 -13.523  -2.662  1.00  0.00     0.001 A 
HETATM   35  C   UNL     1      39.172 -13.572  -1.281  1.00  0.00     0.010 A 
ENDBRANCH   1  30
TORSDOF 8
ENDMDL
MODEL 7
REMARK VINA RESULT:      -8.3      4.795      8.068
REMARK  8 active torsions:
REMARK  status: ('A' for Active; 'I' for Inactive)
REMARK    1  A    between atoms: O_2  and  C_3 
REMARK    2  A    between atoms: C_5  and  N_6 
REMARK       I    between atoms: N_6  and  C_7 
REMARK    3  A    between atoms: C_7  and  C_8 
REMARK    4  A    between atoms: C_8  and  N_9 
REMARK    5  A    between atoms: C_8  and  C_25 
REMARK    6  A    between atoms: N_9  and  C_12 
REMARK    7  A    between atoms: C_12  and  C_13 
REMARK    8  A    between atoms: C_16  and  N_17 
ROOT
HETATM    1  C   UNL     1      41.097 -14.444   0.322  1.00  0.00     0.310 C 
ENDROOT
BRANCH   1   2
HETATM    2  C   UNL     1      41.872 -13.123   0.505  1.00  0.00     0.257 C 
HETATM    3  N   UNL     1      42.382 -12.674   1.679  1.00  0.00    -0.325 N 
HETATM    4  H   UNL     1      42.926 -11.825   1.534  1.00  0.00     0.169 HD
HETATM    5  O   UNL     1      42.110 -12.461  -0.520  1.00  0.00    -0.270 OA
BRANCH   3   6
HETATM    6  C   UNL     1      42.326 -13.112   3.015  1.00  0.00     0.037 A 
HETATM    7  C   UNL     1      41.293 -12.860   3.914  1.00  0.00     0.066 A 
HETATM    8  C   UNL     1      41.341 -13.336   5.233  1.00  0.00     0.070 A 
HETATM    9  C   UNL     1      42.434 -14.082   5.661  1.00  0.00     0.037 A 
HETATM   10  C   UNL     1      43.482 -14.333   4.778  1.00  0.00     0.005 A 
HETATM   11  C   UNL     1      43.430 -13.847   3.470  1.00  0.00     0.029 A 
BRANCH   8  12
HETATM   12  O   UNL     1      40.250 -13.002   5.990  1.00  0.00    -0.356 OA
HETATM   13  C   UNL     1      39.227 -12.253   5.343  1.00  0.00     0.210 C 
ENDBRANCH   8  12
ENDBRANCH   3   6
ENDBRANCH   1   2
BRANCH   1  14
HETATM   14  N   UNL     1      42.095 -15.589   0.320  1.00  0.00    -0.054 N 
HETATM   15  H   UNL     1      42.556 -15.653  -0.595  1.00  0.00     0.278 HD
HETATM   16  H   UNL     1      42.836 -15.313   0.985  1.00  0.00     0.278 HD
BRANCH  14  17
HETATM   17  C   UNL     1      41.600 -16.923   0.736  1.00  0.00     0.272 C 
BRANCH  17  18
HETATM   18  C   UNL     1      42.095 -17.202   2.127  1.00  0.00    -0.033 A 
HETATM   19  C   UNL     1      43.394 -17.676   2.332  1.00  0.00     0.011 A 
HETATM   20  C   UNL     1      43.797 -18.113   3.600  1.00  0.00     0.030 A 
HETATM   21  C   UNL     1      42.922 -18.102   4.692  1.00  0.00     0.037 A 
HETATM   22  C   UNL     1      41.639 -17.575   4.485  1.00  0.00     0.030 A 
HETATM   23  C   UNL     1      41.226 -17.136   3.221  1.00  0.00     0.011 A 
BRANCH  21  24
HETATM   24  N   UNL     1      43.296 -18.629   5.958  1.00  0.00    -0.318 N 
HETATM   25  C   UNL     1      43.347 -17.913   7.168  1.00  0.00     0.224 C 
HETATM   26  O   UNL     1      43.034 -16.753   7.389  1.00  0.00    -0.273 OA
HETATM   27  C   UNL     1      43.971 -18.809   8.212  1.00  0.00     0.105 C 
HETATM   28  C   UNL     1      43.835 -20.194   7.611  1.00  0.00     0.029 C 
HETATM   29  C   UNL     1      43.888 -19.938   6.120  1.00  0.00     0.133 C 
ENDBRANCH  21  24
ENDBRANCH  17  18
ENDBRANCH  14  17
ENDBRANCH   1  14
BRANCH   1  30
HETATM   30  C   UNL     1      40.333 -14.540  -0.988  1.00  0.00    -0.019 A 
HETATM   31  C   UNL     1      40.960 -15.115  -2.110  1.00  0.00     0.010 A 
HETATM   32  C   UNL     1      40.321 -15.136  -3.349  1.00  0.00     0.001 A 
HETATM   33  C   UNL     1      39.058 -14.569  -3.492  1.00  0.00     0.000 A 
HETATM   34  C   UNL     1      38.431 -13.982  -2.396  1.00  0.00     0.001 A 
HETATM   35  C   UNL     1      39.064 -13.960  -1.152  1.00  0.00     0.010 A 
ENDBRANCH   1  30
TORSDOF 8
ENDMDL
MODEL 8
REMARK VINA RESULT:      -8.2      7.504     10.643
REMARK  8 active torsions:
REMARK  status: ('A' for Active; 'I' for Inactive)
REMARK    1  A    between atoms: O_2  and  C_3 
REMARK    2  A    between atoms: C_5  and  N_6 
REMARK       I    between atoms: N_6  and  C_7 
REMARK    3  A    between atoms: C_7  and  C_8 
REMARK    4  A    between atoms: C_8  and  N_9 
REMARK    5  A    between atoms: C_8  and  C_25 
REMARK    6  A    between atoms: N_9  and  C_12 
REMARK    7  A    between atoms: C_12  and  C_13 
REMARK    8  A    between atoms: C_16  and  N_17 
ROOT
HETATM    1  C   UNL     1      40.020 -13.935  -2.172  1.00  0.00     0.310 C 
ENDROOT
BRANCH   1   2
HETATM    2  C   UNL     1      41.291 -14.336  -2.947  1.00  0.00     0.257 C 
HETATM    3  N   UNL     1      42.338 -13.514  -3.210  1.00  0.00    -0.325 N 
HETATM    4  H   UNL     1      43.095 -14.027  -3.658  1.00  0.00     0.169 HD
HETATM    5  O   UNL     1      41.392 -15.528  -3.288  1.00  0.00    -0.270 OA
BRANCH   3   6
HETATM    6  C   UNL     1      42.597 -12.147  -3.007  1.00  0.00     0.037 A 
HETATM    7  C   UNL     1      43.094 -11.573  -1.840  1.00  0.00     0.066 A 
HETATM    8  C   UNL     1      43.307 -10.190  -1.738  1.00  0.00     0.070 A 
HETATM    9  C   UNL     1      43.026  -9.364  -2.822  1.00  0.00     0.037 A 
HETATM   10  C   UNL     1      42.516  -9.920  -3.993  1.00  0.00     0.005 A 
HETATM   11  C   UNL     1      42.299 -11.296  -4.082  1.00  0.00     0.029 A 
BRANCH   8  12
HETATM   12  O   UNL     1      43.796  -9.786  -0.525  1.00  0.00    -0.356 OA
HETATM   13  C   UNL     1      43.266  -8.578   0.009  1.00  0.00     0.210 C 
ENDBRANCH   8  12
ENDBRANCH   3   6
ENDBRANCH   1   2
BRANCH   1  14
HETATM   14  N   UNL     1      39.739 -15.000  -1.126  1.00  0.00    -0.054 N 
HETATM   15  H   UNL     1      38.833 -15.445  -1.312  1.00  0.00     0.278 HD
HETATM   16  H   UNL     1      40.447 -15.736  -1.283  1.00  0.00     0.278 HD
BRANCH  14  17
HETATM   17  C   UNL     1      39.826 -14.596   0.297  1.00  0.00     0.272 C 
BRANCH  17  18
HETATM   18  C   UNL     1      40.764 -15.535   1.002  1.00  0.00    -0.033 A 
HETATM   19  C   UNL     1      42.045 -15.767   0.493  1.00  0.00     0.011 A 
HETATM   20  C   UNL     1      42.851 -16.775   1.036  1.00  0.00     0.030 A 
HETATM   21  C   UNL     1      42.405 -17.584   2.087  1.00  0.00     0.037 A 
HETATM   22  C   UNL     1      41.139 -17.306   2.624  1.00  0.00     0.030 A 
HETATM   23  C   UNL     1      40.326 -16.300   2.088  1.00  0.00     0.011 A 
BRANCH  21  24
HETATM   24  N   UNL     1      43.182 -18.667   2.581  1.00  0.00    -0.318 N 
HETATM   25  C   UNL     1      43.974 -18.653   3.744  1.00  0.00     0.224 C 
HETATM   26  O   UNL     1      44.108 -17.765   4.572  1.00  0.00    -0.273 OA
HETATM   27  C   UNL     1      44.764 -19.940   3.784  1.00  0.00     0.105 C 
HETATM   28  C   UNL     1      44.016 -20.840   2.821  1.00  0.00     0.029 C 
HETATM   29  C   UNL     1      43.425 -19.871   1.819  1.00  0.00     0.133 C 
ENDBRANCH  21  24
ENDBRANCH  17  18
ENDBRANCH  14  17
ENDBRANCH   1  14
BRANCH   1  30
HETATM   30  C   UNL     1      38.772 -13.839  -3.032  1.00  0.00    -0.019 A 
HETATM   31  C   UNL     1      38.275 -12.570  -3.386  1.00  0.00     0.010 A 
HETATM   32  C   UNL     1      37.082 -12.444  -4.097  1.00  0.00     0.001 A 
HETATM   33  C   UNL     1      36.359 -13.580  -4.450  1.00  0.00     0.000 A 
HETATM   34  C   UNL     1      36.828 -14.842  -4.094  1.00  0.00     0.001 A 
HETATM   35  C   UNL     1      38.022 -14.974  -3.385  1.00  0.00     0.010 A 
ENDBRANCH   1  30
TORSDOF 8
ENDMDL
MODEL 9
REMARK VINA RESULT:      -8.2      6.184      9.213
REMARK  8 active torsions:
REMARK  status: ('A' for Active; 'I' for Inactive)
REMARK    1  A    between atoms: O_2  and  C_3 
REMARK    2  A    between atoms: C_5  and  N_6 
REMARK       I    between atoms: N_6  and  C_7 
REMARK    3  A    between atoms: C_7  and  C_8 
REMARK    4  A    between atoms: C_8  and  N_9 
REMARK    5  A    between atoms: C_8  and  C_25 
REMARK    6  A    between atoms: N_9  and  C_12 
REMARK    7  A    between atoms: C_12  and  C_13 
REMARK    8  A    between atoms: C_16  and  N_17 
ROOT
HETATM    1  C   UNL     1      41.499 -15.656   1.124  1.00  0.00     0.310 C 
ENDROOT
BRANCH   1   2
HETATM    2  C   UNL     1      40.197 -16.223   1.726  1.00  0.00     0.257 C 
HETATM    3  N   UNL     1      39.030 -15.543   1.843  1.00  0.00    -0.325 N 
HETATM    4  H   UNL     1      38.290 -16.151   2.188  1.00  0.00     0.169 HD
HETATM    5  O   UNL     1      40.203 -17.422   2.057  1.00  0.00    -0.270 OA
BRANCH   3   6
HETATM    6  C   UNL     1      38.629 -14.216   1.599  1.00  0.00     0.037 A 
HETATM    7  C   UNL     1      38.999 -13.100   2.345  1.00  0.00     0.066 A 
HETATM    8  C   UNL     1      38.532 -11.817   2.021  1.00  0.00     0.070 A 
HETATM    9  C   UNL     1      37.687 -11.642   0.930  1.00  0.00     0.037 A 
HETATM   10  C   UNL     1      37.298 -12.750   0.180  1.00  0.00     0.005 A 
HETATM   11  C   UNL     1      37.759 -14.024   0.515  1.00  0.00     0.029 A 
BRANCH   8  12
HETATM   12  O   UNL     1      38.986 -10.829   2.853  1.00  0.00    -0.356 OA
HETATM   13  C   UNL     1      40.363 -10.875   3.212  1.00  0.00     0.210 C 
ENDBRANCH   8  12
ENDBRANCH   3   6
ENDBRANCH   1   2
BRANCH   1  14
HETATM   14  N   UNL     1      42.004 -14.549   2.033  1.00  0.00    -0.054 N 
HETATM   15  H   UNL     1      42.108 -13.677   1.501  1.00  0.00     0.278 HD
HETATM   16  H   UNL     1      41.241 -14.373   2.706  1.00  0.00     0.278 HD
BRANCH  14  17
HETATM   17  C   UNL     1      43.234 -14.818   2.815  1.00  0.00     0.272 C 
BRANCH  17  18
HETATM   18  C   UNL     1      43.365 -16.303   3.001  1.00  0.00    -0.033 A 
HETATM   19  C   UNL     1      43.012 -16.896   4.216  1.00  0.00     0.011 A 
HETATM   20  C   UNL     1      43.305 -18.243   4.458  1.00  0.00     0.030 A 
HETATM   21  C   UNL     1      43.964 -19.033   3.509  1.00  0.00     0.037 A 
HETATM   22  C   UNL     1      44.264 -18.441   2.273  1.00  0.00     0.030 A 
HETATM   23  C   UNL     1      43.975 -17.094   2.021  1.00  0.00     0.011 A 
BRANCH  21  24
HETATM   24  N   UNL     1      44.345 -20.375   3.783  1.00  0.00    -0.318 N 
HETATM   25  C   UNL     1      44.314 -21.445   2.872  1.00  0.00     0.224 C 
HETATM   26  O   UNL     1      44.025 -21.437   1.685  1.00  0.00    -0.273 OA
HETATM   27  C   UNL     1      44.621 -22.713   3.633  1.00  0.00     0.105 C 
HETATM   28  C   UNL     1      45.262 -22.209   4.911  1.00  0.00     0.029 C 
HETATM   29  C   UNL     1      44.614 -20.857   5.120  1.00  0.00     0.133 C 
ENDBRANCH  21  24
ENDBRANCH  17  18
ENDBRANCH  14  17
ENDBRANCH   1  14
BRANCH   1  30
HETATM   30  C   UNL     1      41.330 -15.037  -0.253  1.00  0.00    -0.019 A 
HETATM   31  C   UNL     1      41.006 -15.865  -1.344  1.00  0.00     0.010 A 
HETATM   32  C   UNL     1      40.933 -15.344  -2.636  1.00  0.00     0.001 A 
HETATM   33  C   UNL     1      41.198 -13.997  -2.860  1.00  0.00     0.000 A 
HETATM   34  C   UNL     1      41.535 -13.168  -1.794  1.00  0.00     0.001 A 
HETATM   35  C   UNL     1      41.608 -13.682  -0.498  1.00  0.00     0.010 A 
ENDBRANCH   1  30
TORSDOF 8
ENDMDL
MODEL 10
REMARK VINA RESULT:      -8.2      5.227      9.468
REMARK  8 active torsions:
REMARK  status: ('A' for Active; 'I' for Inactive)
REMARK    1  A    between atoms: O_2  and  C_3 
REMARK    2  A    between atoms: C_5  and  N_6 
REMARK       I    between atoms: N_6  and  C_7 
REMARK    3  A    between atoms: C_7  and  C_8 
REMARK    4  A    between atoms: C_8  and  N_9 
REMARK    5  A    between atoms: C_8  and  C_25 
REMARK    6  A    between atoms: N_9  and  C_12 
REMARK    7  A    between atoms: C_12  and  C_13 
REMARK    8  A    between atoms: C_16  and  N_17 
ROOT
HETATM    1  C   UNL     1      41.278 -13.505   0.202  1.00  0.00     0.310 C 
ENDROOT
BRANCH   1   2
HETATM    2  C   UNL     1      42.160 -12.493   0.960  1.00  0.00     0.257 C 
HETATM    3  N   UNL     1      42.596 -12.640   2.236  1.00  0.00    -0.325 N 
HETATM    4  H   UNL     1      43.234 -11.887   2.488  1.00  0.00     0.169 HD
HETATM    5  O   UNL     1      42.562 -11.505   0.322  1.00  0.00    -0.270 OA
BRANCH   3   6
HETATM    6  C   UNL     1      42.366 -13.579   3.259  1.00  0.00     0.037 A 
HETATM    7  C   UNL     1      41.296 -13.572   4.149  1.00  0.00     0.066 A 
HETATM    8  C   UNL     1      41.166 -14.553   5.143  1.00  0.00     0.070 A 
HETATM    9  C   UNL     1      42.116 -15.564   5.248  1.00  0.00     0.037 A 
HETATM   10  C   UNL     1      43.200 -15.579   4.373  1.00  0.00     0.005 A 
HETATM   11  C   UNL     1      43.326 -14.592   3.393  1.00  0.00     0.029 A 
BRANCH   8  12
HETATM   12  O   UNL     1      40.061 -14.404   5.938  1.00  0.00    -0.356 OA
HETATM   13  C   UNL     1      39.392 -13.149   5.874  1.00  0.00     0.210 C 
ENDBRANCH   8  12
ENDBRANCH   3   6
ENDBRANCH   1   2
BRANCH   1  14
HETATM   14  N   UNL     1      42.110 -14.742  -0.091  1.00  0.00    -0.054 N 
HETATM   15  H   UNL     1      42.620 -14.621  -0.974  1.00  0.00     0.278 HD
HETATM   16  H   UNL     1      42.833 -14.771   0.646  1.00  0.00     0.278 HD
BRANCH  14  17
HETATM   17  C   UNL     1      41.412 -16.050  -0.081  1.00  0.00     0.272 C 
BRANCH  17  18
HETATM   18  C   UNL     1      42.126 -16.963   0.874  1.00  0.00    -0.033 A 
HETATM   19  C   UNL     1      43.490 -17.223   0.716  1.00  0.00     0.011 A 
HETATM   20  C   UNL     1      44.117 -18.212   1.484  1.00  0.00     0.030 A 
HETATM   21  C   UNL     1      43.407 -18.974   2.419  1.00  0.00     0.037 A 
HETATM   22  C   UNL     1      42.051 -18.667   2.606  1.00  0.00     0.030 A 
HETATM   23  C   UNL     1      41.415 -17.680   1.843  1.00  0.00     0.011 A 
BRANCH  21  24
HETATM   24  N   UNL     1      44.017 -20.040   3.136  1.00  0.00    -0.318 N 
HETATM   25  C   UNL     1      44.250 -21.337   2.647  1.00  0.00     0.224 C 
HETATM   26  O   UNL     1      44.043 -21.787   1.530  1.00  0.00    -0.273 OA
HETATM   27  C   UNL     1      44.741 -22.186   3.796  1.00  0.00     0.105 C 
HETATM   28  C   UNL     1      45.189 -21.163   4.820  1.00  0.00     0.029 C 
HETATM   29  C   UNL     1      44.284 -19.979   4.556  1.00  0.00     0.133 C 
ENDBRANCH  21  24
ENDBRANCH  17  18
ENDBRANCH  14  17
ENDBRANCH   1  14
BRANCH   1  30
HETATM   30  C   UNL     1      40.768 -13.004  -1.139  1.00  0.00    -0.019 A 
HETATM   31  C   UNL     1      39.462 -12.485  -1.228  1.00  0.00     0.010 A 
HETATM   32  C   UNL     1      38.932 -12.100  -2.460  1.00  0.00     0.001 A 
HETATM   33  C   UNL     1      39.687 -12.245  -3.619  1.00  0.00     0.000 A 
HETATM   34  C   UNL     1      40.974 -12.771  -3.550  1.00  0.00     0.001 A 
HETATM   35  C   UNL     1      41.512 -13.155  -2.321  1.00  0.00     0.010 A 
ENDBRANCH   1  30
TORSDOF 8
ENDMDL
