MODEL 1
REMARK VINA RESULT:      -8.8      0.000      0.000
REMARK  5 active torsions:
REMARK  status: ('A' for Active; 'I' for Inactive)
REMARK    1  A    between atoms: C_2  and  O_3 
REMARK    2  A    between atoms: O_3  and  C_4 
REMARK    3  A    between atoms: C_5  and  C_6 
REMARK       I    between atoms: C_6  and  N_7 
REMARK    4  A    between atoms: N_10  and  C_11 
REMARK    5  A    between atoms: C_15  and  C_16 
ROOT
HETATM    1  C   UNL     1      40.665 -11.796  -0.447  1.00  0.00     0.256 C 
HETATM    2  N   UNL     1      41.120 -12.973   0.159  1.00  0.00    -0.346 N 
HETATM    3  C   UNL     1      41.783 -14.081  -0.550  1.00  0.00     0.146 C 
HETATM    4  C   UNL     1      40.978 -15.395  -0.554  1.00  0.00     0.144 C 
HETATM    5  N   UNL     1      40.947 -16.022   0.779  1.00  0.00    -0.365 N 
HETATM    6  C   UNL     1      39.877 -15.620   1.701  1.00  0.00     0.126 C 
HETATM    7  C   UNL     1      39.503 -14.140   1.622  1.00  0.00     0.040 C 
HETATM    8  C   UNL     1      40.721 -13.222   1.545  1.00  0.00     0.127 C 
HETATM    9  O   UNL     1      39.936 -10.981   0.115  1.00  0.00    -0.267 OA
ENDROOT
BRANCH   5  10
HETATM   10  C   UNL     1      41.935 -16.894   1.151  1.00  0.00     0.122 A 
HETATM   11  N   UNL     1      43.191 -16.893   0.602  1.00  0.00    -0.262 N 
HETATM   12  H   UNL     1      43.559 -16.257  -0.093  1.00  0.00     0.191 HD
HETATM   13  N   UNL     1      44.004 -17.857   1.059  1.00  0.00    -0.173 NA
HETATM   14  C   UNL     1      43.272 -18.499   1.983  1.00  0.00     0.090 A 
HETATM   15  C   UNL     1      41.980 -17.910   2.083  1.00  0.00     0.084 A 
BRANCH  14  16
HETATM   16  C   UNL     1      43.811 -19.648   2.721  1.00  0.00    -0.005 A 
HETATM   17  C   UNL     1      44.255 -19.519   4.048  1.00  0.00     0.017 A 
HETATM   18  C   UNL     1      44.754 -20.626   4.741  1.00  0.00     0.043 A 
HETATM   19  C   UNL     1      44.812 -21.864   4.113  1.00  0.00     0.116 A 
HETATM   20  F   UNL     1      45.288 -22.922   4.782  1.00  0.00    -0.206 F 
HETATM   21  C   UNL     1      44.383 -22.018   2.802  1.00  0.00     0.043 A 
HETATM   22  C   UNL     1      43.885 -20.912   2.108  1.00  0.00     0.017 A 
ENDBRANCH  14  16
ENDBRANCH   5  10
BRANCH   1  23
HETATM   23  C   UNL     1      41.133 -11.467  -1.810  1.00  0.00     0.065 A 
HETATM   24  C   UNL     1      40.403 -11.870  -2.933  1.00  0.00     0.084 A 
HETATM   25  C   UNL     1      40.861 -11.533  -4.210  1.00  0.00     0.038 A 
HETATM   26  C   UNL     1      42.011 -10.756  -4.361  1.00  0.00     0.003 A 
HETATM   27  C   UNL     1      42.714 -10.317  -3.238  1.00  0.00     0.001 A 
HETATM   28  C   UNL     1      42.275 -10.666  -1.961  1.00  0.00     0.020 A 
BRANCH  24  29
HETATM   29  O   UNL     1      39.291 -12.654  -2.770  1.00  0.00    -0.350 OA
BRANCH  29  30
HETATM   30  C   UNL     1      39.398 -13.889  -3.491  1.00  0.00     0.171 C 
HETATM   31  C   UNL     1      38.086 -14.639  -3.354  1.00  0.00     0.034 C 
ENDBRANCH  29  30
ENDBRANCH  24  29
ENDBRANCH   1  23
TORSDOF 5
ENDMDL
MODEL 2
REMARK VINA RESULT:      -8.7      1.081      2.502
REMARK  5 active torsions:
REMARK  status: ('A' for Active; 'I' for Inactive)
REMARK    1  A    between atoms: C_2  and  O_3 
REMARK    2  A    between atoms: O_3  and  C_4 
REMARK    3  A    between atoms: C_5  and  C_6 
REMARK       I    between atoms: C_6  and  N_7 
REMARK    4  A    between atoms: N_10  and  C_11 
REMARK    5  A    between atoms: C_15  and  C_16 
ROOT
HETATM    1  C   UNL     1      40.743 -11.682  -0.407  1.00  0.00     0.256 C 
HETATM    2  N   UNL     1      41.177 -12.879   0.172  1.00  0.00    -0.346 N 
HETATM    3  C   UNL     1      41.729 -14.022  -0.576  1.00  0.00     0.146 C 
HETATM    4  C   UNL     1      40.858 -15.292  -0.514  1.00  0.00     0.144 C 
HETATM    5  N   UNL     1      40.891 -15.914   0.822  1.00  0.00    -0.365 N 
HETATM    6  C   UNL     1      39.912 -15.454   1.815  1.00  0.00     0.126 C 
HETATM    7  C   UNL     1      39.611 -13.956   1.755  1.00  0.00     0.040 C 
HETATM    8  C   UNL     1      40.867 -13.104   1.585  1.00  0.00     0.127 C 
HETATM    9  O   UNL     1      40.099 -10.828   0.201  1.00  0.00    -0.267 OA
ENDROOT
BRANCH   5  10
HETATM   10  C   UNL     1      41.855 -16.836   1.127  1.00  0.00     0.122 A 
HETATM   11  N   UNL     1      43.060 -16.913   0.477  1.00  0.00    -0.262 N 
HETATM   12  H   UNL     1      43.405 -16.307  -0.256  1.00  0.00     0.191 HD
HETATM   13  N   UNL     1      43.853 -17.916   0.884  1.00  0.00    -0.173 NA
HETATM   14  C   UNL     1      43.165 -18.503   1.875  1.00  0.00     0.090 A 
HETATM   15  C   UNL     1      41.920 -17.841   2.070  1.00  0.00     0.084 A 
BRANCH  14  16
HETATM   16  C   UNL     1      43.698 -19.672   2.586  1.00  0.00    -0.005 A 
HETATM   17  C   UNL     1      43.737 -20.938   1.979  1.00  0.00     0.017 A 
HETATM   18  C   UNL     1      44.259 -22.040   2.665  1.00  0.00     0.043 A 
HETATM   19  C   UNL     1      44.743 -21.881   3.957  1.00  0.00     0.116 A 
HETATM   20  F   UNL     1      45.244 -22.938   4.610  1.00  0.00    -0.206 F 
HETATM   21  C   UNL     1      44.713 -20.641   4.581  1.00  0.00     0.043 A 
HETATM   22  C   UNL     1      44.190 -19.540   3.898  1.00  0.00     0.017 A 
ENDBRANCH  14  16
ENDBRANCH   5  10
BRANCH   1  23
HETATM   23  C   UNL     1      41.128 -11.381  -1.801  1.00  0.00     0.065 A 
HETATM   24  C   UNL     1      42.443 -11.023  -2.118  1.00  0.00     0.084 A 
HETATM   25  C   UNL     1      42.785 -10.757  -3.447  1.00  0.00     0.038 A 
HETATM   26  C   UNL     1      41.831 -10.897  -4.458  1.00  0.00     0.003 A 
HETATM   27  C   UNL     1      40.531 -11.298  -4.146  1.00  0.00     0.001 A 
HETATM   28  C   UNL     1      40.178 -11.545  -2.819  1.00  0.00     0.020 A 
BRANCH  24  29
HETATM   29  O   UNL     1      43.361 -10.864  -1.113  1.00  0.00    -0.350 OA
BRANCH  29  30
HETATM   30  C   UNL     1      44.023  -9.595  -1.189  1.00  0.00     0.171 C 
HETATM   31  C   UNL     1      43.326  -8.633  -0.245  1.00  0.00     0.034 C 
ENDBRANCH  29  30
ENDBRANCH  24  29
ENDBRANCH   1  23
TORSDOF 5
ENDMDL
MODEL 3
REMARK VINA RESULT:      -8.4      2.290      3.291
REMARK  5 active torsions:
REMARK  status: ('A' for Active; 'I' for Inactive)
REMARK    1  A    between atoms: C_2  and  O_3 
REMARK    2  A    between atoms: O_3  and  C_4 
REMARK    3  A    between atoms: C_5  and  C_6 
REMARK       I    between atoms: C_6  and  N_7 
REMARK    4  A    between atoms: N_10  and  C_11 
REMARK    5  A    between atoms: C_15  and  C_16 
ROOT
HETATM    1  C   UNL     1      40.808 -13.648  -1.254  1.00  0.00     0.256 C 
HETATM    2  N   UNL     1      41.201 -14.278  -0.068  1.00  0.00    -0.346 N 
HETATM    3  C   UNL     1      40.532 -15.451   0.523  1.00  0.00     0.146 C 
HETATM    4  C   UNL     1      39.866 -15.173   1.885  1.00  0.00     0.144 C 
HETATM    5  N   UNL     1      40.863 -14.974   2.951  1.00  0.00    -0.365 N 
HETATM    6  C   UNL     1      41.374 -13.615   3.166  1.00  0.00     0.126 C 
HETATM    7  C   UNL     1      41.559 -12.803   1.884  1.00  0.00     0.040 C 
HETATM    8  C   UNL     1      42.206 -13.607   0.758  1.00  0.00     0.127 C 
HETATM    9  O   UNL     1      41.243 -12.558  -1.620  1.00  0.00    -0.267 OA
ENDROOT
BRANCH   5  10
HETATM   10  C   UNL     1      41.336 -16.047   3.657  1.00  0.00     0.122 A 
HETATM   11  N   UNL     1      40.923 -16.358   4.927  1.00  0.00    -0.262 N 
HETATM   12  H   UNL     1      40.219 -15.886   5.480  1.00  0.00     0.191 HD
HETATM   13  N   UNL     1      41.538 -17.417   5.474  1.00  0.00    -0.173 NA
HETATM   14  C   UNL     1      42.364 -17.856   4.511  1.00  0.00     0.090 A 
HETATM   15  C   UNL     1      42.248 -17.036   3.352  1.00  0.00     0.084 A 
BRANCH  14  16
HETATM   16  C   UNL     1      43.239 -19.015   4.724  1.00  0.00    -0.005 A 
HETATM   17  C   UNL     1      43.384 -19.594   5.996  1.00  0.00     0.017 A 
HETATM   18  C   UNL     1      44.212 -20.706   6.182  1.00  0.00     0.043 A 
HETATM   19  C   UNL     1      44.898 -21.242   5.099  1.00  0.00     0.116 A 
HETATM   20  F   UNL     1      45.687 -22.308   5.281  1.00  0.00    -0.206 F 
HETATM   21  C   UNL     1      44.775 -20.688   3.833  1.00  0.00     0.043 A 
HETATM   22  C   UNL     1      43.949 -19.576   3.647  1.00  0.00     0.017 A 
ENDBRANCH  14  16
ENDBRANCH   5  10
BRANCH   1  23
HETATM   23  C   UNL     1      39.873 -14.348  -2.159  1.00  0.00     0.065 A 
HETATM   24  C   UNL     1      38.528 -13.969  -2.229  1.00  0.00     0.084 A 
HETATM   25  C   UNL     1      37.667 -14.637  -3.105  1.00  0.00     0.038 A 
HETATM   26  C   UNL     1      38.159 -15.644  -3.939  1.00  0.00     0.003 A 
HETATM   27  C   UNL     1      39.510 -15.990  -3.900  1.00  0.00     0.001 A 
HETATM   28  C   UNL     1      40.371 -15.341  -3.015  1.00  0.00     0.020 A 
BRANCH  24  29
HETATM   29  O   UNL     1      38.054 -12.997  -1.386  1.00  0.00    -0.350 OA
BRANCH  29  30
HETATM   30  C   UNL     1      37.470 -13.557  -0.202  1.00  0.00     0.171 C 
HETATM   31  C   UNL     1      36.990 -12.419   0.679  1.00  0.00     0.034 C 
ENDBRANCH  29  30
ENDBRANCH  24  29
ENDBRANCH   1  23
TORSDOF 5
ENDMDL
MODEL 4
REMARK VINA RESULT:      -8.2      4.706      9.814
REMARK  5 active torsions:
REMARK  status: ('A' for Active; 'I' for Inactive)
REMARK    1  A    between atoms: C_2  and  O_3 
REMARK    2  A    between atoms: O_3  and  C_4 
REMARK    3  A    between atoms: C_5  and  C_6 
REMARK       I    between atoms: C_6  and  N_7 
REMARK    4  A    between atoms: N_10  and  C_11 
REMARK    5  A    between atoms: C_15  and  C_16 
ROOT
HETATM    1  C   UNL     1      41.598 -16.214   5.344  1.00  0.00     0.256 C 
HETATM    2  N   UNL     1      41.474 -15.448   4.179  1.00  0.00    -0.346 N 
HETATM    3  C   UNL     1      42.564 -15.189   3.223  1.00  0.00     0.146 C 
HETATM    4  C   UNL     1      42.988 -13.710   3.139  1.00  0.00     0.144 C 
HETATM    5  N   UNL     1      41.963 -12.884   2.477  1.00  0.00    -0.365 N 
HETATM    6  C   UNL     1      40.901 -12.310   3.312  1.00  0.00     0.126 C 
HETATM    7  C   UNL     1      40.430 -13.222   4.446  1.00  0.00     0.040 C 
HETATM    8  C   UNL     1      40.245 -14.672   4.004  1.00  0.00     0.127 C 
HETATM    9  O   UNL     1      40.745 -16.248   6.229  1.00  0.00    -0.267 OA
ENDROOT
BRANCH   5  10
HETATM   10  C   UNL     1      41.979 -12.729   1.117  1.00  0.00     0.122 A 
HETATM   11  N   UNL     1      41.816 -13.767   0.236  1.00  0.00    -0.262 N 
HETATM   12  H   UNL     1      41.633 -14.738   0.453  1.00  0.00     0.191 HD
HETATM   13  N   UNL     1      41.914 -13.425  -1.058  1.00  0.00    -0.173 NA
HETATM   14  C   UNL     1      42.107 -12.097  -1.037  1.00  0.00     0.090 A 
HETATM   15  C   UNL     1      42.131 -11.624   0.305  1.00  0.00     0.084 A 
BRANCH  14  16
HETATM   16  C   UNL     1      42.277 -11.330  -2.278  1.00  0.00    -0.005 A 
HETATM   17  C   UNL     1      42.259 -11.962  -3.533  1.00  0.00     0.017 A 
HETATM   18  C   UNL     1      42.410 -11.217  -4.707  1.00  0.00     0.043 A 
HETATM   19  C   UNL     1      42.581  -9.840  -4.631  1.00  0.00     0.116 A 
HETATM   20  F   UNL     1      42.723  -9.129  -5.757  1.00  0.00    -0.206 F 
HETATM   21  C   UNL     1      42.606  -9.191  -3.404  1.00  0.00     0.043 A 
HETATM   22  C   UNL     1      42.456  -9.936  -2.231  1.00  0.00     0.017 A 
ENDBRANCH  14  16
ENDBRANCH   5  10
BRANCH   1  23
HETATM   23  C   UNL     1      42.780 -17.087   5.502  1.00  0.00     0.065 A 
HETATM   24  C   UNL     1      43.786 -16.767   6.420  1.00  0.00     0.084 A 
HETATM   25  C   UNL     1      44.887 -17.617   6.561  1.00  0.00     0.038 A 
HETATM   26  C   UNL     1      44.956 -18.803   5.826  1.00  0.00     0.003 A 
HETATM   27  C   UNL     1      43.930 -19.143   4.944  1.00  0.00     0.001 A 
HETATM   28  C   UNL     1      42.838 -18.289   4.783  1.00  0.00     0.020 A 
BRANCH  24  29
HETATM   29  O   UNL     1      43.718 -15.587   7.115  1.00  0.00    -0.350 OA
BRANCH  29  30
HETATM   30  C   UNL     1      44.674 -14.631   6.638  1.00  0.00     0.171 C 
HETATM   31  C   UNL     1      44.824 -13.541   7.683  1.00  0.00     0.034 C 
ENDBRANCH  29  30
ENDBRANCH  24  29
ENDBRANCH   1  23
TORSDOF 5
ENDMDL
MODEL 5
REMARK VINA RESULT:      -8.1      3.003      5.430
REMARK  5 active torsions:
REMARK  status: ('A' for Active; 'I' for Inactive)
REMARK    1  A    between atoms: C_2  and  O_3 
REMARK    2  A    between atoms: O_3  and  C_4 
REMARK    3  A    between atoms: C_5  and  C_6 
REMARK       I    between atoms: C_6  and  N_7 
REMARK    4  A    between atoms: N_10  and  C_11 
REMARK    5  A    between atoms: C_15  and  C_16 
ROOT
HETATM    1  C   UNL     1      39.348 -12.447   3.560  1.00  0.00     0.256 C 
HETATM    2  N   UNL     1      40.035 -13.568   3.083  1.00  0.00    -0.346 N 
HETATM    3  C   UNL     1      41.300 -14.078   3.640  1.00  0.00     0.146 C 
HETATM    4  C   UNL     1      42.496 -13.984   2.672  1.00  0.00     0.144 C 
HETATM    5  N   UNL     1      42.380 -14.949   1.564  1.00  0.00    -0.365 N 
HETATM    6  C   UNL     1      41.650 -14.528   0.363  1.00  0.00     0.126 C 
HETATM    7  C   UNL     1      40.432 -13.646   0.643  1.00  0.00     0.040 C 
HETATM    8  C   UNL     1      39.592 -14.149   1.815  1.00  0.00     0.127 C 
HETATM    9  O   UNL     1      38.414 -11.917   2.961  1.00  0.00    -0.267 OA
ENDROOT
BRANCH   5  10
HETATM   10  C   UNL     1      42.884 -16.214   1.701  1.00  0.00     0.122 A 
HETATM   11  N   UNL     1      43.212 -17.017   0.640  1.00  0.00    -0.262 N 
HETATM   12  H   UNL     1      43.167 -16.786  -0.344  1.00  0.00     0.191 HD
HETATM   13  N   UNL     1      43.642 -18.242   0.975  1.00  0.00    -0.173 NA
HETATM   14  C   UNL     1      43.642 -18.240   2.317  1.00  0.00     0.090 A 
HETATM   15  C   UNL     1      43.194 -16.980   2.806  1.00  0.00     0.084 A 
BRANCH  14  16
HETATM   16  C   UNL     1      44.045 -19.426   3.083  1.00  0.00    -0.005 A 
HETATM   17  C   UNL     1      44.184 -20.680   2.465  1.00  0.00     0.017 A 
HETATM   18  C   UNL     1      44.580 -21.798   3.206  1.00  0.00     0.043 A 
HETATM   19  C   UNL     1      44.838 -21.667   4.565  1.00  0.00     0.116 A 
HETATM   20  F   UNL     1      45.220 -22.739   5.270  1.00  0.00    -0.206 F 
HETATM   21  C   UNL     1      44.705 -20.441   5.201  1.00  0.00     0.043 A 
HETATM   22  C   UNL     1      44.307 -19.323   4.462  1.00  0.00     0.017 A 
ENDBRANCH  14  16
ENDBRANCH   5  10
BRANCH   1  23
HETATM   23  C   UNL     1      39.705 -11.900   4.886  1.00  0.00     0.065 A 
HETATM   24  C   UNL     1      40.525 -10.771   4.996  1.00  0.00     0.084 A 
HETATM   25  C   UNL     1      40.836 -10.265   6.261  1.00  0.00     0.038 A 
HETATM   26  C   UNL     1      40.291 -10.853   7.405  1.00  0.00     0.003 A 
HETATM   27  C   UNL     1      39.437 -11.951   7.291  1.00  0.00     0.001 A 
HETATM   28  C   UNL     1      39.138 -12.474   6.033  1.00  0.00     0.020 A 
BRANCH  24  29
HETATM   29  O   UNL     1      41.073 -10.221   3.866  1.00  0.00    -0.350 OA
BRANCH  29  30
HETATM   30  C   UNL     1      40.679  -8.854   3.693  1.00  0.00     0.171 C 
HETATM   31  C   UNL     1      39.899  -8.740   2.397  1.00  0.00     0.034 C 
ENDBRANCH  29  30
ENDBRANCH  24  29
ENDBRANCH   1  23
TORSDOF 5
ENDMDL
MODEL 6
REMARK VINA RESULT:      -8.0      4.335      9.421
REMARK  5 active torsions:
REMARK  status: ('A' for Active; 'I' for Inactive)
REMARK    1  A    between atoms: C_2  and  O_3 
REMARK    2  A    between atoms: O_3  and  C_4 
REMARK    3  A    between atoms: C_5  and  C_6 
REMARK       I    between atoms: C_6  and  N_7 
REMARK    4  A    between atoms: N_10  and  C_11 
REMARK    5  A    between atoms: C_15  and  C_16 
ROOT
HETATM    1  C   UNL     1      41.657 -17.557   4.264  1.00  0.00     0.256 C 
HETATM    2  N   UNL     1      41.522 -16.341   3.586  1.00  0.00    -0.346 N 
HETATM    3  C   UNL     1      42.558 -15.736   2.731  1.00  0.00     0.146 C 
HETATM    4  C   UNL     1      43.117 -14.404   3.270  1.00  0.00     0.144 C 
HETATM    5  N   UNL     1      42.132 -13.314   3.164  1.00  0.00    -0.365 N 
HETATM    6  C   UNL     1      41.197 -13.125   4.280  1.00  0.00     0.126 C 
HETATM    7  C   UNL     1      40.725 -14.425   4.932  1.00  0.00     0.040 C 
HETATM    8  C   UNL     1      40.366 -15.505   3.913  1.00  0.00     0.127 C 
HETATM    9  O   UNL     1      40.873 -17.943   5.130  1.00  0.00    -0.267 OA
ENDROOT
BRANCH   5  10
HETATM   10  C   UNL     1      42.062 -12.560   2.023  1.00  0.00     0.122 A 
HETATM   11  N   UNL     1      41.674 -11.246   2.008  1.00  0.00    -0.262 N 
HETATM   12  H   UNL     1      41.432 -10.665   2.800  1.00  0.00     0.191 HD
HETATM   13  N   UNL     1      41.619 -10.691   0.788  1.00  0.00    -0.173 NA
HETATM   14  C   UNL     1      42.031 -11.665  -0.039  1.00  0.00     0.090 A 
HETATM   15  C   UNL     1      42.337 -12.842   0.701  1.00  0.00     0.084 A 
BRANCH  14  16
HETATM   16  C   UNL     1      42.102 -11.455  -1.491  1.00  0.00    -0.005 A 
HETATM   17  C   UNL     1      42.540 -10.234  -2.029  1.00  0.00     0.017 A 
HETATM   18  C   UNL     1      42.614 -10.053  -3.414  1.00  0.00     0.043 A 
HETATM   19  C   UNL     1      42.251 -11.091  -4.264  1.00  0.00     0.116 A 
HETATM   20  F   UNL     1      42.327 -10.915  -5.590  1.00  0.00    -0.206 F 
HETATM   21  C   UNL     1      41.813 -12.306  -3.758  1.00  0.00     0.043 A 
HETATM   22  C   UNL     1      41.736 -12.487  -2.374  1.00  0.00     0.017 A 
ENDBRANCH  14  16
ENDBRANCH   5  10
BRANCH   1  23
HETATM   23  C   UNL     1      42.756 -18.470   3.884  1.00  0.00     0.065 A 
HETATM   24  C   UNL     1      43.681 -18.910   4.837  1.00  0.00     0.084 A 
HETATM   25  C   UNL     1      44.702 -19.784   4.455  1.00  0.00     0.038 A 
HETATM   26  C   UNL     1      44.768 -20.254   3.141  1.00  0.00     0.003 A 
HETATM   27  C   UNL     1      43.819 -19.848   2.202  1.00  0.00     0.001 A 
HETATM   28  C   UNL     1      42.808 -18.961   2.572  1.00  0.00     0.020 A 
BRANCH  24  29
HETATM   29  O   UNL     1      43.619 -18.421   6.116  1.00  0.00    -0.350 OA
BRANCH  29  30
HETATM   30  C   UNL     1      44.733 -17.571   6.417  1.00  0.00     0.171 C 
HETATM   31  C   UNL     1      44.215 -16.164   6.648  1.00  0.00     0.034 C 
ENDBRANCH  29  30
ENDBRANCH  24  29
ENDBRANCH   1  23
TORSDOF 5
ENDMDL
MODEL 7
REMARK VINA RESULT:      -8.0      3.042      4.926
REMARK  5 active torsions:
REMARK  status: ('A' for Active; 'I' for Inactive)
REMARK    1  A    between atoms: C_2  and  O_3 
REMARK    2  A    between atoms: O_3  and  C_4 
REMARK    3  A    between atoms: C_5  and  C_6 
REMARK       I    between atoms: C_6  and  N_7 
REMARK    4  A    between atoms: N_10  and  C_11 
REMARK    5  A    between atoms: C_15  and  C_16 
ROOT
HETATM    1  C   UNL     1      38.972 -11.733   2.594  1.00  0.00     0.256 C 
HETATM    2  N   UNL     1      39.654 -12.955   2.563  1.00  0.00    -0.346 N 
HETATM    3  C   UNL     1      41.062 -13.141   2.952  1.00  0.00     0.146 C 
HETATM    4  C   UNL     1      41.984 -13.562   1.790  1.00  0.00     0.144 C 
HETATM    5  N   UNL     1      41.726 -14.949   1.362  1.00  0.00    -0.365 N 
HETATM    6  C   UNL     1      40.695 -15.170   0.340  1.00  0.00     0.126 C 
HETATM    7  C   UNL     1      39.484 -14.245   0.459  1.00  0.00     0.040 C 
HETATM    8  C   UNL     1      38.998 -14.082   1.898  1.00  0.00     0.127 C 
HETATM    9  O   UNL     1      37.871 -11.557   2.075  1.00  0.00    -0.267 OA
ENDROOT
BRANCH   5  10
HETATM   10  C   UNL     1      42.388 -15.986   1.961  1.00  0.00     0.122 A 
HETATM   11  N   UNL     1      43.260 -15.824   3.006  1.00  0.00    -0.262 N 
HETATM   12  H   UNL     1      43.498 -14.964   3.483  1.00  0.00     0.191 HD
HETATM   13  N   UNL     1      43.849 -16.954   3.426  1.00  0.00    -0.173 NA
HETATM   14  C   UNL     1      43.313 -17.914   2.656  1.00  0.00     0.090 A 
HETATM   15  C   UNL     1      42.378 -17.349   1.744  1.00  0.00     0.084 A 
BRANCH  14  16
HETATM   16  C   UNL     1      43.714 -19.320   2.799  1.00  0.00    -0.005 A 
HETATM   17  C   UNL     1      43.414 -20.267   1.805  1.00  0.00     0.017 A 
HETATM   18  C   UNL     1      43.813 -21.599   1.949  1.00  0.00     0.043 A 
HETATM   19  C   UNL     1      44.511 -21.990   3.085  1.00  0.00     0.116 A 
HETATM   20  F   UNL     1      44.894 -23.267   3.218  1.00  0.00    -0.206 F 
HETATM   21  C   UNL     1      44.817 -21.075   4.083  1.00  0.00     0.043 A 
HETATM   22  C   UNL     1      44.417 -19.744   3.941  1.00  0.00     0.017 A 
ENDBRANCH  14  16
ENDBRANCH   5  10
BRANCH   1  23
HETATM   23  C   UNL     1      39.561 -10.605   3.345  1.00  0.00     0.065 A 
HETATM   24  C   UNL     1      39.428 -10.524   4.735  1.00  0.00     0.084 A 
HETATM   25  C   UNL     1      40.007  -9.454   5.423  1.00  0.00     0.038 A 
HETATM   26  C   UNL     1      40.756  -8.499   4.731  1.00  0.00     0.003 A 
HETATM   27  C   UNL     1      40.926  -8.606   3.351  1.00  0.00     0.001 A 
HETATM   28  C   UNL     1      40.334  -9.660   2.655  1.00  0.00     0.020 A 
BRANCH  24  29
HETATM   29  O   UNL     1      38.668 -11.454   5.396  1.00  0.00    -0.350 OA
BRANCH  29  30
HETATM   30  C   UNL     1      39.364 -12.011   6.519  1.00  0.00     0.171 C 
HETATM   31  C   UNL     1      39.714 -13.452   6.199  1.00  0.00     0.034 C 
ENDBRANCH  29  30
ENDBRANCH  24  29
ENDBRANCH   1  23
TORSDOF 5
ENDMDL
MODEL 8
REMARK VINA RESULT:      -7.9      4.519      9.414
REMARK  5 active torsions:
REMARK  status: ('A' for Active; 'I' for Inactive)
REMARK    1  A    between atoms: C_2  and  O_3 
REMARK    2  A    between atoms: O_3  and  C_4 
REMARK    3  A    between atoms: C_5  and  C_6 
REMARK       I    between atoms: C_6  and  N_7 
REMARK    4  A    between atoms: N_10  and  C_11 
REMARK    5  A    between atoms: C_15  and  C_16 
ROOT
HETATM    1  C   UNL     1      41.589 -16.315   5.243  1.00  0.00     0.256 C 
HETATM    2  N   UNL     1      41.461 -15.564   4.069  1.00  0.00    -0.346 N 
HETATM    3  C   UNL     1      42.583 -15.159   3.204  1.00  0.00     0.146 C 
HETATM    4  C   UNL     1      42.814 -13.636   3.149  1.00  0.00     0.144 C 
HETATM    5  N   UNL     1      41.747 -12.947   2.401  1.00  0.00    -0.365 N 
HETATM    6  C   UNL     1      40.554 -12.522   3.145  1.00  0.00     0.126 C 
HETATM    7  C   UNL     1      40.116 -13.496   4.239  1.00  0.00     0.040 C 
HETATM    8  C   UNL     1      40.160 -14.955   3.790  1.00  0.00     0.127 C 
HETATM    9  O   UNL     1      40.679 -16.466   6.055  1.00  0.00    -0.267 OA
ENDROOT
BRANCH   5  10
HETATM   10  C   UNL     1      41.854 -12.783   1.046  1.00  0.00     0.122 A 
HETATM   11  N   UNL     1      41.848 -13.824   0.155  1.00  0.00    -0.262 N 
HETATM   12  H   UNL     1      41.732 -14.809   0.358  1.00  0.00     0.191 HD
HETATM   13  N   UNL     1      42.015 -13.467  -1.127  1.00  0.00    -0.173 NA
HETATM   14  C   UNL     1      42.091 -12.127  -1.092  1.00  0.00     0.090 A 
HETATM   15  C   UNL     1      41.972 -11.663   0.249  1.00  0.00     0.084 A 
BRANCH  14  16
HETATM   16  C   UNL     1      42.290 -11.341  -2.316  1.00  0.00    -0.005 A 
HETATM   17  C   UNL     1      42.277 -11.949  -3.582  1.00  0.00     0.017 A 
HETATM   18  C   UNL     1      42.455 -11.185  -4.740  1.00  0.00     0.043 A 
HETATM   19  C   UNL     1      42.647  -9.813  -4.636  1.00  0.00     0.116 A 
HETATM   20  F   UNL     1      42.815  -9.084  -5.747  1.00  0.00    -0.206 F 
HETATM   21  C   UNL     1      42.667  -9.188  -3.397  1.00  0.00     0.043 A 
HETATM   22  C   UNL     1      42.491  -9.951  -2.240  1.00  0.00     0.017 A 
ENDBRANCH  14  16
ENDBRANCH   5  10
BRANCH   1  23
HETATM   23  C   UNL     1      42.859 -17.026   5.501  1.00  0.00     0.065 A 
HETATM   24  C   UNL     1      43.254 -18.099   4.694  1.00  0.00     0.084 A 
HETATM   25  C   UNL     1      44.466 -18.746   4.951  1.00  0.00     0.038 A 
HETATM   26  C   UNL     1      45.300 -18.291   5.975  1.00  0.00     0.003 A 
HETATM   27  C   UNL     1      44.925 -17.193   6.750  1.00  0.00     0.001 A 
HETATM   28  C   UNL     1      43.708 -16.555   6.513  1.00  0.00     0.020 A 
BRANCH  24  29
HETATM   29  O   UNL     1      42.413 -18.550   3.710  1.00  0.00    -0.350 OA
BRANCH  29  30
HETATM   30  C   UNL     1      43.127 -19.219   2.663  1.00  0.00     0.171 C 
HETATM   31  C   UNL     1      43.348 -18.236   1.529  1.00  0.00     0.034 C 
ENDBRANCH  29  30
ENDBRANCH  24  29
ENDBRANCH   1  23
TORSDOF 5
ENDMDL
MODEL 9
REMARK VINA RESULT:      -7.8      1.893      3.276
REMARK  5 active torsions:
REMARK  status: ('A' for Active; 'I' for Inactive)
REMARK    1  A    between atoms: C_2  and  O_3 
REMARK    2  A    between atoms: O_3  and  C_4 
REMARK    3  A    between atoms: C_5  and  C_6 
REMARK       I    between atoms: C_6  and  N_7 
REMARK    4  A    between atoms: N_10  and  C_11 
REMARK    5  A    between atoms: C_15  and  C_16 
ROOT
HETATM    1  C   UNL     1      40.510 -10.326  -0.940  1.00  0.00     0.256 C 
HETATM    2  N   UNL     1      40.495 -11.650  -0.485  1.00  0.00    -0.346 N 
HETATM    3  C   UNL     1      41.685 -12.404  -0.054  1.00  0.00     0.146 C 
HETATM    4  C   UNL     1      42.025 -13.608  -0.954  1.00  0.00     0.144 C 
HETATM    5  N   UNL     1      41.049 -14.700  -0.799  1.00  0.00    -0.365 N 
HETATM    6  C   UNL     1      39.854 -14.676  -1.651  1.00  0.00     0.126 C 
HETATM    7  C   UNL     1      39.293 -13.277  -1.908  1.00  0.00     0.040 C 
HETATM    8  C   UNL     1      39.256 -12.411  -0.650  1.00  0.00     0.127 C 
HETATM    9  O   UNL     1      39.551  -9.786  -1.487  1.00  0.00    -0.267 OA
ENDROOT
BRANCH   5  10
HETATM   10  C   UNL     1      41.236 -15.657   0.162  1.00  0.00     0.122 A 
HETATM   11  N   UNL     1      40.236 -16.111   0.981  1.00  0.00    -0.262 N 
HETATM   12  H   UNL     1      39.259 -15.846   0.968  1.00  0.00     0.191 HD
HETATM   13  N   UNL     1      40.625 -17.013   1.895  1.00  0.00    -0.173 NA
HETATM   14  C   UNL     1      41.930 -17.199   1.644  1.00  0.00     0.090 A 
HETATM   15  C   UNL     1      42.342 -16.383   0.552  1.00  0.00     0.084 A 
BRANCH  14  16
HETATM   16  C   UNL     1      42.740 -18.121   2.450  1.00  0.00    -0.005 A 
HETATM   17  C   UNL     1      43.508 -19.133   1.849  1.00  0.00     0.017 A 
HETATM   18  C   UNL     1      44.283 -19.996   2.630  1.00  0.00     0.043 A 
HETATM   19  C   UNL     1      44.294 -19.852   4.012  1.00  0.00     0.116 A 
HETATM   20  F   UNL     1      45.040 -20.679   4.755  1.00  0.00    -0.206 F 
HETATM   21  C   UNL     1      43.542 -18.863   4.631  1.00  0.00     0.043 A 
HETATM   22  C   UNL     1      42.766 -18.001   3.852  1.00  0.00     0.017 A 
ENDBRANCH  14  16
ENDBRANCH   5  10
BRANCH   1  23
HETATM   23  C   UNL     1      41.711  -9.500  -0.696  1.00  0.00     0.065 A 
HETATM   24  C   UNL     1      42.789  -9.525  -1.588  1.00  0.00     0.084 A 
HETATM   25  C   UNL     1      43.907  -8.724  -1.341  1.00  0.00     0.038 A 
HETATM   26  C   UNL     1      43.926  -7.866  -0.239  1.00  0.00     0.003 A 
HETATM   27  C   UNL     1      42.831  -7.809   0.625  1.00  0.00     0.001 A 
HETATM   28  C   UNL     1      41.720  -8.621   0.396  1.00  0.00     0.020 A 
BRANCH  24  29
HETATM   29  O   UNL     1      42.767 -10.391  -2.651  1.00  0.00    -0.350 OA
BRANCH  29  30
HETATM   30  C   UNL     1      42.498  -9.714  -3.885  1.00  0.00     0.171 C 
HETATM   31  C   UNL     1      42.290 -10.756  -4.968  1.00  0.00     0.034 C 
ENDBRANCH  29  30
ENDBRANCH  24  29
ENDBRANCH   1  23
TORSDOF 5
ENDMDL
MODEL 10
REMARK VINA RESULT:      -7.8      8.483     11.154
REMARK  5 active torsions:
REMARK  status: ('A' for Active; 'I' for Inactive)
REMARK    1  A    between atoms: C_2  and  O_3 
REMARK    2  A    between atoms: O_3  and  C_4 
REMARK    3  A    between atoms: C_5  and  C_6 
REMARK       I    between atoms: C_6  and  N_7 
REMARK    4  A    between atoms: N_10  and  C_11 
REMARK    5  A    between atoms: C_15  and  C_16 
ROOT
HETATM    1  C   UNL     1      41.053  -8.483  10.493  1.00  0.00     0.256 C 
HETATM    2  N   UNL     1      40.816  -9.322   9.398  1.00  0.00    -0.346 N 
HETATM    3  C   UNL     1      41.325 -10.699   9.268  1.00  0.00     0.146 C 
HETATM    4  C   UNL     1      42.333 -10.888   8.118  1.00  0.00     0.144 C 
HETATM    5  N   UNL     1      41.681 -10.809   6.799  1.00  0.00    -0.365 N 
HETATM    6  C   UNL     1      41.550  -9.484   6.179  1.00  0.00     0.126 C 
HETATM    7  C   UNL     1      41.259  -8.354   7.166  1.00  0.00     0.040 C 
HETATM    8  C   UNL     1      40.206  -8.729   8.207  1.00  0.00     0.127 C 
HETATM    9  O   UNL     1      40.800  -7.280  10.493  1.00  0.00    -0.267 OA
ENDROOT
BRANCH   5  10
HETATM   10  C   UNL     1      41.158 -11.935   6.223  1.00  0.00     0.122 A 
HETATM   11  N   UNL     1      40.116 -12.645   6.760  1.00  0.00    -0.262 N 
HETATM   12  H   UNL     1      39.588 -12.429   7.595  1.00  0.00     0.191 HD
HETATM   13  N   UNL     1      39.778 -13.748   6.076  1.00  0.00    -0.173 NA
HETATM   14  C   UNL     1      40.601 -13.748   5.015  1.00  0.00     0.090 A 
HETATM   15  C   UNL     1      41.463 -12.616   5.063  1.00  0.00     0.084 A 
BRANCH  14  16
HETATM   16  C   UNL     1      40.555 -14.819   4.012  1.00  0.00    -0.005 A 
HETATM   17  C   UNL     1      39.797 -14.684   2.837  1.00  0.00     0.017 A 
HETATM   18  C   UNL     1      39.772 -15.708   1.885  1.00  0.00     0.043 A 
HETATM   19  C   UNL     1      40.504 -16.869   2.103  1.00  0.00     0.116 A 
HETATM   20  F   UNL     1      40.481 -17.846   1.187  1.00  0.00    -0.206 F 
HETATM   21  C   UNL     1      41.259 -17.029   3.256  1.00  0.00     0.043 A 
HETATM   22  C   UNL     1      41.283 -16.007   4.209  1.00  0.00     0.017 A 
ENDBRANCH  14  16
ENDBRANCH   5  10
BRANCH   1  23
HETATM   23  C   UNL     1      41.573  -9.072  11.745  1.00  0.00     0.065 A 
HETATM   24  C   UNL     1      40.755  -9.870  12.552  1.00  0.00     0.084 A 
HETATM   25  C   UNL     1      41.276 -10.426  13.725  1.00  0.00     0.038 A 
HETATM   26  C   UNL     1      42.617 -10.227  14.060  1.00  0.00     0.003 A 
HETATM   27  C   UNL     1      43.443  -9.468  13.230  1.00  0.00     0.001 A 
HETATM   28  C   UNL     1      42.926  -8.893  12.069  1.00  0.00     0.020 A 
BRANCH  24  29
HETATM   29  O   UNL     1      39.435 -10.034  12.224  1.00  0.00    -0.350 OA
BRANCH  29  30
HETATM   30  C   UNL     1      38.627  -8.950  12.701  1.00  0.00     0.171 C 
HETATM   31  C   UNL     1      37.626  -8.587  11.620  1.00  0.00     0.034 C 
ENDBRANCH  29  30
ENDBRANCH  24  29
ENDBRANCH   1  23
TORSDOF 5
ENDMDL
