MODEL 1
REMARK VINA RESULT:      -9.6      0.000      0.000
REMARK  5 active torsions:
REMARK  status: ('A' for Active; 'I' for Inactive)
REMARK    1  A    between atoms: C_4  and  N_5 
REMARK       I    between atoms: N_5  and  C_6 
REMARK       I    between atoms: C_6  and  N_7 
REMARK    2  A    between atoms: N_7  and  C_8 
REMARK    3  A    between atoms: C_10  and  C_11 
REMARK       I    between atoms: C_11  and  N_12 
REMARK    4  A    between atoms: N_12  and  C_13 
REMARK    5  A    between atoms: C_13  and  C_14 
ROOT
HETATM    1  C   UNL     1      44.651 -13.825   7.389  1.00  0.00     0.175 A 
HETATM    2  S   UNL     1      44.076 -13.915   5.791  1.00  0.00    -0.044 SA
HETATM    3  C   UNL     1      43.410 -15.468   6.110  1.00  0.00     0.100 A 
HETATM    4  C   UNL     1      43.683 -15.816   7.425  1.00  0.00     0.056 A 
HETATM    5  C   UNL     1      43.304 -17.077   8.120  1.00  0.00     0.072 C 
HETATM    6  N   UNL     1      44.376 -14.857   8.148  1.00  0.00    -0.228 NA
ENDROOT
BRANCH   1   7
HETATM    7  N   UNL     1      45.313 -12.744   7.898  1.00  0.00    -0.287 N 
HETATM    8  C   UNL     1      44.981 -11.763   8.780  1.00  0.00     0.326 C 
HETATM    9  N   UNL     1      43.674 -11.643   9.150  1.00  0.00    -0.309 N 
HETATM   10  O   UNL     1      45.892 -11.020   9.145  1.00  0.00    -0.247 OA
HETATM   11  H   UNL     1      43.020 -12.202   8.625  1.00  0.00     0.170 HD
HETATM   12  H   UNL     1      46.268 -12.676   7.573  1.00  0.00     0.172 HD
BRANCH   9  13
HETATM   13  C   UNL     1      43.110 -10.730  10.066  1.00  0.00     0.036 A 
HETATM   14  C   UNL     1      43.544 -10.577  11.386  1.00  0.00     0.036 A 
HETATM   15  C   UNL     1      42.940  -9.643  12.242  1.00  0.00    -0.060 A 
HETATM   16  C   UNL     1      43.404  -9.517  13.664  1.00  0.00     0.048 C 
HETATM   17  C   UNL     1      41.869  -8.877  11.774  1.00  0.00     0.007 A 
HETATM   18  C   UNL     1      41.423  -9.027  10.462  1.00  0.00     0.003 A 
HETATM   19  C   UNL     1      42.039  -9.949   9.614  1.00  0.00     0.029 A 
ENDBRANCH   9  13
ENDBRANCH   1   7
BRANCH   3  20
HETATM   20  C   UNL     1      42.700 -16.249   5.111  1.00  0.00     0.260 C 
HETATM   21  N   UNL     1      43.407 -16.565   3.970  1.00  0.00    -0.352 N 
HETATM   22  H   UNL     1      44.383 -16.310   3.914  1.00  0.00     0.163 HD
HETATM   23  O   UNL     1      41.534 -16.606   5.259  1.00  0.00    -0.267 OA
BRANCH  21  24
HETATM   24  C   UNL     1      42.842 -17.374   2.912  1.00  0.00     0.161 C 
BRANCH  24  25
HETATM   25  C   UNL     1      43.346 -18.799   2.872  1.00  0.00    -0.040 A 
HETATM   26  C   UNL     1      43.007 -19.718   1.867  1.00  0.00     0.010 A 
HETATM   27  C   UNL     1      43.509 -21.024   1.896  1.00  0.00     0.024 A 
HETATM   28  C   UNL     1      44.347 -21.426   2.932  1.00  0.00     0.034 A 
HETATM   29 CL   UNL     1      44.959 -23.033   2.967  1.00  0.00    -0.084 Cl
HETATM   30  C   UNL     1      44.689 -20.533   3.943  1.00  0.00     0.024 A 
HETATM   31  C   UNL     1      44.192 -19.227   3.910  1.00  0.00     0.010 A 
ENDBRANCH  24  25
ENDBRANCH  21  24
ENDBRANCH   3  20
TORSDOF 5
ENDMDL
MODEL 2
REMARK VINA RESULT:      -9.2      2.268      2.789
REMARK  5 active torsions:
REMARK  status: ('A' for Active; 'I' for Inactive)
REMARK    1  A    between atoms: C_4  and  N_5 
REMARK       I    between atoms: N_5  and  C_6 
REMARK       I    between atoms: C_6  and  N_7 
REMARK    2  A    between atoms: N_7  and  C_8 
REMARK    3  A    between atoms: C_10  and  C_11 
REMARK       I    between atoms: C_11  and  N_12 
REMARK    4  A    between atoms: N_12  and  C_13 
REMARK    5  A    between atoms: C_13  and  C_14 
ROOT
HETATM    1  C   UNL     1      41.508 -12.416   5.491  1.00  0.00     0.175 A 
HETATM    2  S   UNL     1      42.171 -12.849   3.986  1.00  0.00    -0.044 SA
HETATM    3  C   UNL     1      41.708 -14.484   4.244  1.00  0.00     0.100 A 
HETATM    4  C   UNL     1      41.080 -14.588   5.477  1.00  0.00     0.056 A 
HETATM    5  C   UNL     1      40.531 -15.819   6.108  1.00  0.00     0.072 C 
HETATM    6  N   UNL     1      40.957 -13.392   6.168  1.00  0.00    -0.228 NA
ENDROOT
BRANCH   1   7
HETATM    7  N   UNL     1      41.486 -11.137   5.971  1.00  0.00    -0.287 N 
HETATM    8  C   UNL     1      41.907 -10.554   7.125  1.00  0.00     0.326 C 
HETATM    9  N   UNL     1      42.279 -11.364   8.158  1.00  0.00    -0.309 N 
HETATM   10  O   UNL     1      41.877  -9.324   7.164  1.00  0.00    -0.247 OA
HETATM   11  H   UNL     1      42.072 -12.343   8.040  1.00  0.00     0.170 HD
HETATM   12  H   UNL     1      41.100 -10.473   5.312  1.00  0.00     0.172 HD
BRANCH   9  13
HETATM   13  C   UNL     1      42.776 -10.986   9.424  1.00  0.00     0.036 A 
HETATM   14  C   UNL     1      41.976 -10.520  10.470  1.00  0.00     0.036 A 
HETATM   15  C   UNL     1      42.537 -10.166  11.708  1.00  0.00    -0.060 A 
HETATM   16  C   UNL     1      41.662  -9.639  12.808  1.00  0.00     0.048 C 
HETATM   17  C   UNL     1      43.922 -10.256  11.882  1.00  0.00     0.007 A 
HETATM   18  C   UNL     1      44.729 -10.712  10.842  1.00  0.00     0.003 A 
HETATM   19  C   UNL     1      44.159 -11.075   9.620  1.00  0.00     0.029 A 
ENDBRANCH   9  13
ENDBRANCH   1   7
BRANCH   3  20
HETATM   20  C   UNL     1      41.977 -15.547   3.290  1.00  0.00     0.260 C 
HETATM   21  N   UNL     1      43.262 -16.048   3.283  1.00  0.00    -0.352 N 
HETATM   22  H   UNL     1      43.920 -15.714   3.973  1.00  0.00     0.163 HD
HETATM   23  O   UNL     1      41.120 -15.978   2.523  1.00  0.00    -0.267 OA
BRANCH  21  24
HETATM   24  C   UNL     1      43.661 -17.136   2.418  1.00  0.00     0.161 C 
BRANCH  24  25
HETATM   25  C   UNL     1      44.022 -18.415   3.140  1.00  0.00    -0.040 A 
HETATM   26  C   UNL     1      44.237 -18.496   4.524  1.00  0.00     0.010 A 
HETATM   27  C   UNL     1      44.573 -19.714   5.124  1.00  0.00     0.024 A 
HETATM   28  C   UNL     1      44.704 -20.862   4.346  1.00  0.00     0.034 A 
HETATM   29 CL   UNL     1      45.120 -22.357   5.087  1.00  0.00    -0.084 Cl
HETATM   30  C   UNL     1      44.503 -20.802   2.971  1.00  0.00     0.024 A 
HETATM   31  C   UNL     1      44.162 -19.586   2.373  1.00  0.00     0.010 A 
ENDBRANCH  24  25
ENDBRANCH  21  24
ENDBRANCH   3  20
TORSDOF 5
ENDMDL
MODEL 3
REMARK VINA RESULT:      -9.1      1.187      2.060
REMARK  5 active torsions:
REMARK  status: ('A' for Active; 'I' for Inactive)
REMARK    1  A    between atoms: C_4  and  N_5 
REMARK       I    between atoms: N_5  and  C_6 
REMARK       I    between atoms: C_6  and  N_7 
REMARK    2  A    between atoms: N_7  and  C_8 
REMARK    3  A    between atoms: C_10  and  C_11 
REMARK       I    between atoms: C_11  and  N_12 
REMARK    4  A    between atoms: N_12  and  C_13 
REMARK    5  A    between atoms: C_13  and  C_14 
ROOT
HETATM    1  C   UNL     1      44.193 -13.735   7.193  1.00  0.00     0.175 A 
HETATM    2  S   UNL     1      44.239 -15.327   6.598  1.00  0.00    -0.044 SA
HETATM    3  C   UNL     1      42.986 -14.955   5.481  1.00  0.00     0.100 A 
HETATM    4  C   UNL     1      42.611 -13.630   5.648  1.00  0.00     0.056 A 
HETATM    5  C   UNL     1      41.556 -12.892   4.901  1.00  0.00     0.072 C 
HETATM    6  N   UNL     1      43.325 -12.942   6.617  1.00  0.00    -0.228 NA
ENDROOT
BRANCH   1   7
HETATM    7  N   UNL     1      45.026 -13.264   8.168  1.00  0.00    -0.287 N 
HETATM    8  C   UNL     1      44.838 -12.530   9.298  1.00  0.00     0.326 C 
HETATM    9  N   UNL     1      43.623 -11.938   9.487  1.00  0.00    -0.309 N 
HETATM   10  O   UNL     1      45.806 -12.419  10.049  1.00  0.00    -0.247 OA
HETATM   11  H   UNL     1      42.997 -11.967   8.698  1.00  0.00     0.170 HD
HETATM   12  H   UNL     1      45.988 -13.550   8.039  1.00  0.00     0.172 HD
BRANCH   9  13
HETATM   13  C   UNL     1      43.195 -11.167  10.588  1.00  0.00     0.036 A 
HETATM   14  C   UNL     1      42.713  -9.859  10.487  1.00  0.00     0.036 A 
HETATM   15  C   UNL     1      42.297  -9.151  11.626  1.00  0.00    -0.060 A 
HETATM   16  C   UNL     1      41.812  -7.736  11.496  1.00  0.00     0.048 C 
HETATM   17  C   UNL     1      42.396  -9.756  12.882  1.00  0.00     0.007 A 
HETATM   18  C   UNL     1      42.882 -11.057  12.995  1.00  0.00     0.003 A 
HETATM   19  C   UNL     1      43.280 -11.758  11.855  1.00  0.00     0.029 A 
ENDBRANCH   9  13
ENDBRANCH   1   7
BRANCH   3  20
HETATM   20  C   UNL     1      42.438 -15.925   4.548  1.00  0.00     0.260 C 
HETATM   21  N   UNL     1      43.265 -16.307   3.512  1.00  0.00    -0.352 N 
HETATM   22  H   UNL     1      44.213 -15.961   3.491  1.00  0.00     0.163 HD
HETATM   23  O   UNL     1      41.303 -16.380   4.660  1.00  0.00    -0.267 OA
BRANCH  21  24
HETATM   24  C   UNL     1      42.868 -17.296   2.535  1.00  0.00     0.161 C 
BRANCH  24  25
HETATM   25  C   UNL     1      43.410 -18.685   2.789  1.00  0.00    -0.040 A 
HETATM   26  C   UNL     1      44.120 -19.047   3.944  1.00  0.00     0.010 A 
HETATM   27  C   UNL     1      44.595 -20.352   4.110  1.00  0.00     0.024 A 
HETATM   28  C   UNL     1      44.371 -21.307   3.121  1.00  0.00     0.034 A 
HETATM   29 CL   UNL     1      44.960 -22.910   3.328  1.00  0.00    -0.084 Cl
HETATM   30  C   UNL     1      43.676 -20.968   1.965  1.00  0.00     0.024 A 
HETATM   31  C   UNL     1      43.197 -19.665   1.802  1.00  0.00     0.010 A 
ENDBRANCH  24  25
ENDBRANCH  21  24
ENDBRANCH   3  20
TORSDOF 5
ENDMDL
MODEL 4
REMARK VINA RESULT:      -8.7      6.172     10.300
REMARK  5 active torsions:
REMARK  status: ('A' for Active; 'I' for Inactive)
REMARK    1  A    between atoms: C_4  and  N_5 
REMARK       I    between atoms: N_5  and  C_6 
REMARK       I    between atoms: C_6  and  N_7 
REMARK    2  A    between atoms: N_7  and  C_8 
REMARK    3  A    between atoms: C_10  and  C_11 
REMARK       I    between atoms: C_11  and  N_12 
REMARK    4  A    between atoms: N_12  and  C_13 
REMARK    5  A    between atoms: C_13  and  C_14 
ROOT
HETATM    1  C   UNL     1      41.203 -15.605  -0.291  1.00  0.00     0.175 A 
HETATM    2  S   UNL     1      42.066 -16.748   0.626  1.00  0.00    -0.044 SA
HETATM    3  C   UNL     1      41.355 -16.140   2.068  1.00  0.00     0.100 A 
HETATM    4  C   UNL     1      40.505 -15.092   1.747  1.00  0.00     0.056 A 
HETATM    5  C   UNL     1      39.694 -14.269   2.685  1.00  0.00     0.072 C 
HETATM    6  N   UNL     1      40.415 -14.812   0.391  1.00  0.00    -0.228 NA
ENDROOT
BRANCH   1   7
HETATM    7  N   UNL     1      41.261 -15.524  -1.653  1.00  0.00    -0.287 N 
HETATM    8  C   UNL     1      40.429 -15.023  -2.606  1.00  0.00     0.326 C 
HETATM    9  N   UNL     1      39.164 -14.670  -2.237  1.00  0.00    -0.309 N 
HETATM   10  O   UNL     1      40.875 -14.970  -3.752  1.00  0.00    -0.247 OA
HETATM   11  H   UNL     1      38.889 -14.946  -1.307  1.00  0.00     0.170 HD
HETATM   12  H   UNL     1      42.124 -15.888  -2.035  1.00  0.00     0.172 HD
BRANCH   9  13
HETATM   13  C   UNL     1      38.151 -14.104  -3.039  1.00  0.00     0.036 A 
HETATM   14  C   UNL     1      37.933 -12.730  -3.170  1.00  0.00     0.036 A 
HETATM   15  C   UNL     1      36.908 -12.236  -3.993  1.00  0.00    -0.060 A 
HETATM   16  C   UNL     1      36.672 -10.757  -4.094  1.00  0.00     0.048 C 
HETATM   17  C   UNL     1      36.076 -13.136  -4.666  1.00  0.00     0.007 A 
HETATM   18  C   UNL     1      36.281 -14.508  -4.537  1.00  0.00     0.003 A 
HETATM   19  C   UNL     1      37.312 -14.989  -3.728  1.00  0.00     0.029 A 
ENDBRANCH   9  13
ENDBRANCH   1   7
BRANCH   3  20
HETATM   20  C   UNL     1      41.651 -16.673   3.387  1.00  0.00     0.260 C 
HETATM   21  N   UNL     1      42.933 -16.465   3.854  1.00  0.00    -0.352 N 
HETATM   22  H   UNL     1      43.567 -15.903   3.304  1.00  0.00     0.163 HD
HETATM   23  O   UNL     1      40.820 -17.282   4.055  1.00  0.00    -0.267 OA
BRANCH  21  24
HETATM   24  C   UNL     1      43.355 -16.901   5.166  1.00  0.00     0.161 C 
BRANCH  24  25
HETATM   25  C   UNL     1      43.789 -18.348   5.240  1.00  0.00    -0.040 A 
HETATM   26  C   UNL     1      43.631 -19.153   6.378  1.00  0.00     0.010 A 
HETATM   27  C   UNL     1      44.060 -20.485   6.375  1.00  0.00     0.024 A 
HETATM   28  C   UNL     1      44.656 -21.023   5.238  1.00  0.00     0.034 A 
HETATM   29 CL   UNL     1      45.185 -22.659   5.240  1.00  0.00    -0.084 Cl
HETATM   30  C   UNL     1      44.829 -20.240   4.101  1.00  0.00     0.024 A 
HETATM   31  C   UNL     1      44.396 -18.912   4.103  1.00  0.00     0.010 A 
ENDBRANCH  24  25
ENDBRANCH  21  24
ENDBRANCH   3  20
TORSDOF 5
ENDMDL
MODEL 5
REMARK VINA RESULT:      -8.6      4.123     10.527
REMARK  5 active torsions:
REMARK  status: ('A' for Active; 'I' for Inactive)
REMARK    1  A    between atoms: C_4  and  N_5 
REMARK       I    between atoms: N_5  and  C_6 
REMARK       I    between atoms: C_6  and  N_7 
REMARK    2  A    between atoms: N_7  and  C_8 
REMARK    3  A    between atoms: C_10  and  C_11 
REMARK       I    between atoms: C_11  and  N_12 
REMARK    4  A    between atoms: N_12  and  C_13 
REMARK    5  A    between atoms: C_13  and  C_14 
ROOT
HETATM    1  C   UNL     1      41.170 -14.940   3.611  1.00  0.00     0.175 A 
HETATM    2  S   UNL     1      39.923 -13.826   3.918  1.00  0.00    -0.044 SA
HETATM    3  C   UNL     1      40.873 -13.086   5.143  1.00  0.00     0.100 A 
HETATM    4  C   UNL     1      42.087 -13.752   5.239  1.00  0.00     0.056 A 
HETATM    5  C   UNL     1      43.206 -13.457   6.176  1.00  0.00     0.072 C 
HETATM    6  N   UNL     1      42.247 -14.798   4.343  1.00  0.00    -0.228 NA
ENDROOT
BRANCH   1   7
HETATM    7  N   UNL     1      41.111 -15.899   2.640  1.00  0.00    -0.287 N 
HETATM    8  C   UNL     1      41.679 -17.125   2.487  1.00  0.00     0.326 C 
HETATM    9  N   UNL     1      42.677 -17.485   3.345  1.00  0.00    -0.309 N 
HETATM   10  O   UNL     1      41.274 -17.806   1.546  1.00  0.00    -0.247 OA
HETATM   11  H   UNL     1      43.024 -16.750   3.942  1.00  0.00     0.170 HD
HETATM   12  H   UNL     1      40.482 -15.659   1.885  1.00  0.00     0.172 HD
BRANCH   9  13
HETATM   13  C   UNL     1      43.382 -18.706   3.396  1.00  0.00     0.036 A 
HETATM   14  C   UNL     1      43.370 -19.659   2.373  1.00  0.00     0.036 A 
HETATM   15  C   UNL     1      44.101 -20.852   2.489  1.00  0.00    -0.060 A 
HETATM   16  C   UNL     1      44.050 -21.874   1.391  1.00  0.00     0.048 C 
HETATM   17  C   UNL     1      44.826 -21.101   3.658  1.00  0.00     0.007 A 
HETATM   18  C   UNL     1      44.838 -20.161   4.687  1.00  0.00     0.003 A 
HETATM   19  C   UNL     1      44.119 -18.971   4.557  1.00  0.00     0.029 A 
ENDBRANCH   9  13
ENDBRANCH   1   7
BRANCH   3  20
HETATM   20  C   UNL     1      40.415 -11.954   5.931  1.00  0.00     0.260 C 
HETATM   21  N   UNL     1      40.056 -12.225   7.235  1.00  0.00    -0.352 N 
HETATM   22  H   UNL     1      40.195 -13.159   7.595  1.00  0.00     0.163 HD
HETATM   23  O   UNL     1      40.339 -10.817   5.471  1.00  0.00    -0.267 OA
BRANCH  21  24
HETATM   24  C   UNL     1      39.623 -11.189   8.147  1.00  0.00     0.161 C 
BRANCH  24  25
HETATM   25  C   UNL     1      40.568 -10.931   9.299  1.00  0.00    -0.040 A 
HETATM   26  C   UNL     1      40.205 -11.058  10.649  1.00  0.00     0.010 A 
HETATM   27  C   UNL     1      41.133 -10.799  11.664  1.00  0.00     0.024 A 
HETATM   28  C   UNL     1      42.427 -10.402  11.341  1.00  0.00     0.034 A 
HETATM   29 CL   UNL     1      43.563 -10.080  12.592  1.00  0.00    -0.084 Cl
HETATM   30  C   UNL     1      42.805 -10.261  10.010  1.00  0.00     0.024 A 
HETATM   31  C   UNL     1      41.881 -10.526   8.996  1.00  0.00     0.010 A 
ENDBRANCH  24  25
ENDBRANCH  21  24
ENDBRANCH   3  20
TORSDOF 5
ENDMDL
MODEL 6
REMARK VINA RESULT:      -8.5      2.927      3.808
REMARK  5 active torsions:
REMARK  status: ('A' for Active; 'I' for Inactive)
REMARK    1  A    between atoms: C_4  and  N_5 
REMARK       I    between atoms: N_5  and  C_6 
REMARK       I    between atoms: C_6  and  N_7 
REMARK    2  A    between atoms: N_7  and  C_8 
REMARK    3  A    between atoms: C_10  and  C_11 
REMARK       I    between atoms: C_11  and  N_12 
REMARK    4  A    between atoms: N_12  and  C_13 
REMARK    5  A    between atoms: C_13  and  C_14 
ROOT
HETATM    1  C   UNL     1      44.383 -14.252   7.284  1.00  0.00     0.175 A 
HETATM    2  S   UNL     1      43.518 -14.091   5.829  1.00  0.00    -0.044 SA
HETATM    3  C   UNL     1      42.882 -15.676   6.022  1.00  0.00     0.100 A 
HETATM    4  C   UNL     1      43.386 -16.226   7.192  1.00  0.00     0.056 A 
HETATM    5  C   UNL     1      43.110 -17.582   7.741  1.00  0.00     0.072 C 
HETATM    6  N   UNL     1      44.227 -15.391   7.911  1.00  0.00    -0.228 NA
ENDROOT
BRANCH   1   7
HETATM    7  N   UNL     1      45.157 -13.263   7.821  1.00  0.00    -0.287 N 
HETATM    8  C   UNL     1      44.913 -12.229   8.672  1.00  0.00     0.326 C 
HETATM    9  N   UNL     1      43.615 -11.925   8.961  1.00  0.00    -0.309 N 
HETATM   10  O   UNL     1      45.895 -11.612   9.083  1.00  0.00    -0.247 OA
HETATM   11  H   UNL     1      42.922 -12.399   8.403  1.00  0.00     0.170 HD
HETATM   12  H   UNL     1      46.130 -13.332   7.554  1.00  0.00     0.172 HD
BRANCH   9  13
HETATM   13  C   UNL     1      43.130 -10.927   9.833  1.00  0.00     0.036 A 
HETATM   14  C   UNL     1      43.546 -10.777  11.158  1.00  0.00     0.036 A 
HETATM   15  C   UNL     1      43.025  -9.755  11.969  1.00  0.00    -0.060 A 
HETATM   16  C   UNL     1      43.465  -9.632  13.398  1.00  0.00     0.048 C 
HETATM   17  C   UNL     1      42.053  -8.897  11.447  1.00  0.00     0.007 A 
HETATM   18  C   UNL     1      41.625  -9.043  10.129  1.00  0.00     0.003 A 
HETATM   19  C   UNL     1      42.160 -10.053   9.327  1.00  0.00     0.029 A 
ENDBRANCH   9  13
ENDBRANCH   1   7
BRANCH   3  20
HETATM   20  C   UNL     1      41.978 -16.292   5.066  1.00  0.00     0.260 C 
HETATM   21  N   UNL     1      42.499 -16.550   3.815  1.00  0.00    -0.352 N 
HETATM   22  H   UNL     1      43.479 -16.373   3.648  1.00  0.00     0.163 HD
HETATM   23  O   UNL     1      40.812 -16.565   5.341  1.00  0.00    -0.267 OA
BRANCH  21  24
HETATM   24  C   UNL     1      41.727 -17.200   2.778  1.00  0.00     0.161 C 
BRANCH  24  25
HETATM   25  C   UNL     1      41.122 -16.259   1.760  1.00  0.00    -0.040 A 
HETATM   26  C   UNL     1      40.007 -15.447   2.014  1.00  0.00     0.010 A 
HETATM   27  C   UNL     1      39.499 -14.601   1.021  1.00  0.00     0.024 A 
HETATM   28  C   UNL     1      40.096 -14.566  -0.236  1.00  0.00     0.034 A 
HETATM   29 CL   UNL     1      39.466 -13.528  -1.456  1.00  0.00    -0.084 Cl
HETATM   30  C   UNL     1      41.198 -15.369  -0.512  1.00  0.00     0.024 A 
HETATM   31  C   UNL     1      41.708 -16.208   0.482  1.00  0.00     0.010 A 
ENDBRANCH  24  25
ENDBRANCH  21  24
ENDBRANCH   3  20
TORSDOF 5
ENDMDL
MODEL 7
REMARK VINA RESULT:      -8.4      7.225     10.723
REMARK  5 active torsions:
REMARK  status: ('A' for Active; 'I' for Inactive)
REMARK    1  A    between atoms: C_4  and  N_5 
REMARK       I    between atoms: N_5  and  C_6 
REMARK       I    between atoms: C_6  and  N_7 
REMARK    2  A    between atoms: N_7  and  C_8 
REMARK    3  A    between atoms: C_10  and  C_11 
REMARK       I    between atoms: C_11  and  N_12 
REMARK    4  A    between atoms: N_12  and  C_13 
REMARK    5  A    between atoms: C_13  and  C_14 
ROOT
HETATM    1  C   UNL     1      40.692 -15.113   2.576  1.00  0.00     0.175 A 
HETATM    2  S   UNL     1      41.098 -13.490   2.878  1.00  0.00    -0.044 SA
HETATM    3  C   UNL     1      40.965 -13.137   1.201  1.00  0.00     0.100 A 
HETATM    4  C   UNL     1      40.625 -14.297   0.520  1.00  0.00     0.056 A 
HETATM    5  C   UNL     1      40.419 -14.454  -0.946  1.00  0.00     0.072 C 
HETATM    6  N   UNL     1      40.454 -15.413   1.324  1.00  0.00    -0.228 NA
ENDROOT
BRANCH   1   7
HETATM    7  N   UNL     1      40.563 -16.058   3.555  1.00  0.00    -0.287 N 
HETATM    8  C   UNL     1      41.272 -17.167   3.897  1.00  0.00     0.326 C 
HETATM    9  N   UNL     1      42.225 -17.616   3.030  1.00  0.00    -0.309 N 
HETATM   10  O   UNL     1      40.963 -17.713   4.956  1.00  0.00    -0.247 OA
HETATM   11  H   UNL     1      42.232 -17.174   2.124  1.00  0.00     0.170 HD
HETATM   12  H   UNL     1      39.789 -15.876   4.181  1.00  0.00     0.172 HD
BRANCH   9  13
HETATM   13  C   UNL     1      43.096 -18.714   3.188  1.00  0.00     0.036 A 
HETATM   14  C   UNL     1      43.199 -19.768   2.276  1.00  0.00     0.036 A 
HETATM   15  C   UNL     1      44.094 -20.829   2.495  1.00  0.00    -0.060 A 
HETATM   16  C   UNL     1      44.166 -21.965   1.516  1.00  0.00     0.048 C 
HETATM   17  C   UNL     1      44.869 -20.841   3.658  1.00  0.00     0.007 A 
HETATM   18  C   UNL     1      44.768 -19.800   4.577  1.00  0.00     0.003 A 
HETATM   19  C   UNL     1      43.886 -18.742   4.344  1.00  0.00     0.029 A 
ENDBRANCH   9  13
ENDBRANCH   1   7
BRANCH   3  20
HETATM   20  C   UNL     1      41.202 -11.815   0.645  1.00  0.00     0.260 C 
HETATM   21  N   UNL     1      42.434 -11.615   0.055  1.00  0.00    -0.352 N 
HETATM   22  H   UNL     1      43.068 -12.396  -0.026  1.00  0.00     0.163 HD
HETATM   23  O   UNL     1      40.366 -10.917   0.697  1.00  0.00    -0.267 OA
BRANCH  21  24
HETATM   24  C   UNL     1      42.791 -10.365  -0.577  1.00  0.00     0.161 C 
BRANCH  24  25
HETATM   25  C   UNL     1      42.577 -10.333  -2.074  1.00  0.00    -0.040 A 
HETATM   26  C   UNL     1      42.463 -11.482  -2.871  1.00  0.00     0.010 A 
HETATM   27  C   UNL     1      42.269 -11.376  -4.253  1.00  0.00     0.024 A 
HETATM   28  C   UNL     1      42.196 -10.121  -4.852  1.00  0.00     0.034 A 
HETATM   29 CL   UNL     1      41.963  -9.995  -6.552  1.00  0.00    -0.084 Cl
HETATM   30  C   UNL     1      42.316  -8.969  -4.082  1.00  0.00     0.024 A 
HETATM   31  C   UNL     1      42.503  -9.076  -2.701  1.00  0.00     0.010 A 
ENDBRANCH  24  25
ENDBRANCH  21  24
ENDBRANCH   3  20
TORSDOF 5
ENDMDL
MODEL 8
REMARK VINA RESULT:      -8.3      3.602     10.756
REMARK  5 active torsions:
REMARK  status: ('A' for Active; 'I' for Inactive)
REMARK    1  A    between atoms: C_4  and  N_5 
REMARK       I    between atoms: N_5  and  C_6 
REMARK       I    between atoms: C_6  and  N_7 
REMARK    2  A    between atoms: N_7  and  C_8 
REMARK    3  A    between atoms: C_10  and  C_11 
REMARK       I    between atoms: C_11  and  N_12 
REMARK    4  A    between atoms: N_12  and  C_13 
REMARK    5  A    between atoms: C_13  and  C_14 
ROOT
HETATM    1  C   UNL     1      43.159 -15.600   4.997  1.00  0.00     0.175 A 
HETATM    2  S   UNL     1      43.884 -14.065   5.096  1.00  0.00    -0.044 SA
HETATM    3  C   UNL     1      44.220 -14.322   6.762  1.00  0.00     0.100 A 
HETATM    4  C   UNL     1      43.744 -15.572   7.132  1.00  0.00     0.056 A 
HETATM    5  C   UNL     1      43.809 -16.198   8.481  1.00  0.00     0.072 C 
HETATM    6  N   UNL     1      43.157 -16.297   6.105  1.00  0.00    -0.228 NA
ENDROOT
BRANCH   1   7
HETATM    7  N   UNL     1      42.649 -16.126   3.844  1.00  0.00    -0.287 N 
HETATM    8  C   UNL     1      42.730 -17.345   3.245  1.00  0.00     0.326 C 
HETATM    9  N   UNL     1      43.637 -18.242   3.728  1.00  0.00    -0.309 N 
HETATM   10  O   UNL     1      42.000 -17.529   2.271  1.00  0.00    -0.247 OA
HETATM   11  H   UNL     1      44.289 -17.880   4.406  1.00  0.00     0.170 HD
HETATM   12  H   UNL     1      42.057 -15.478   3.341  1.00  0.00     0.172 HD
BRANCH   9  13
HETATM   13  C   UNL     1      43.871 -19.563   3.291  1.00  0.00     0.036 A 
HETATM   14  C   UNL     1      44.301 -20.599   4.125  1.00  0.00     0.036 A 
HETATM   15  C   UNL     1      44.508 -21.893   3.622  1.00  0.00    -0.060 A 
HETATM   16  C   UNL     1      45.000 -22.983   4.530  1.00  0.00     0.048 C 
HETATM   17  C   UNL     1      44.307 -22.139   2.261  1.00  0.00     0.007 A 
HETATM   18  C   UNL     1      43.885 -21.112   1.419  1.00  0.00     0.003 A 
HETATM   19  C   UNL     1      43.669 -19.831   1.931  1.00  0.00     0.029 A 
ENDBRANCH   9  13
ENDBRANCH   1   7
BRANCH   3  20
HETATM   20  C   UNL     1      44.886 -13.340   7.600  1.00  0.00     0.260 C 
HETATM   21  N   UNL     1      44.092 -12.688   8.521  1.00  0.00    -0.352 N 
HETATM   22  H   UNL     1      43.127 -12.969   8.619  1.00  0.00     0.163 HD
HETATM   23  O   UNL     1      46.084 -13.089   7.499  1.00  0.00    -0.267 OA
BRANCH  21  24
HETATM   24  C   UNL     1      44.628 -11.718   9.450  1.00  0.00     0.161 C 
BRANCH  24  25
HETATM   25  C   UNL     1      43.593 -11.041  10.320  1.00  0.00    -0.040 A 
HETATM   26  C   UNL     1      42.242 -10.904   9.964  1.00  0.00     0.010 A 
HETATM   27  C   UNL     1      41.340 -10.262  10.819  1.00  0.00     0.024 A 
HETATM   28  C   UNL     1      41.780  -9.743  12.034  1.00  0.00     0.034 A 
HETATM   29 CL   UNL     1      40.669  -8.950  13.080  1.00  0.00    -0.084 Cl
HETATM   30  C   UNL     1      43.116  -9.860  12.403  1.00  0.00     0.024 A 
HETATM   31  C   UNL     1      44.015 -10.507  11.551  1.00  0.00     0.010 A 
ENDBRANCH  24  25
ENDBRANCH  21  24
ENDBRANCH   3  20
TORSDOF 5
ENDMDL
MODEL 9
REMARK VINA RESULT:      -8.2      6.949     10.841
REMARK  5 active torsions:
REMARK  status: ('A' for Active; 'I' for Inactive)
REMARK    1  A    between atoms: C_4  and  N_5 
REMARK       I    between atoms: N_5  and  C_6 
REMARK       I    between atoms: C_6  and  N_7 
REMARK    2  A    between atoms: N_7  and  C_8 
REMARK    3  A    between atoms: C_10  and  C_11 
REMARK       I    between atoms: C_11  and  N_12 
REMARK    4  A    between atoms: N_12  and  C_13 
REMARK    5  A    between atoms: C_13  and  C_14 
ROOT
HETATM    1  C   UNL     1      40.651 -15.078   2.485  1.00  0.00     0.175 A 
HETATM    2  S   UNL     1      41.514 -14.780   1.050  1.00  0.00    -0.044 SA
HETATM    3  C   UNL     1      40.056 -14.333   0.256  1.00  0.00     0.100 A 
HETATM    4  C   UNL     1      39.000 -14.451   1.149  1.00  0.00     0.056 A 
HETATM    5  C   UNL     1      37.561 -14.178   0.884  1.00  0.00     0.072 C 
HETATM    6  N   UNL     1      39.361 -14.859   2.424  1.00  0.00    -0.228 NA
ENDROOT
BRANCH   1   7
HETATM    7  N   UNL     1      41.236 -15.469   3.655  1.00  0.00    -0.287 N 
HETATM    8  C   UNL     1      42.066 -16.489   4.002  1.00  0.00     0.326 C 
HETATM    9  N   UNL     1      42.269 -17.491   3.098  1.00  0.00    -0.309 N 
HETATM   10  O   UNL     1      42.541 -16.451   5.137  1.00  0.00    -0.247 OA
HETATM   11  H   UNL     1      41.667 -17.476   2.290  1.00  0.00     0.170 HD
HETATM   12  H   UNL     1      41.033 -14.846   4.427  1.00  0.00     0.172 HD
BRANCH   9  13
HETATM   13  C   UNL     1      43.104 -18.621   3.226  1.00  0.00     0.036 A 
HETATM   14  C   UNL     1      43.167 -19.657   2.290  1.00  0.00     0.036 A 
HETATM   15  C   UNL     1      44.029 -20.750   2.479  1.00  0.00    -0.060 A 
HETATM   16  C   UNL     1      44.058 -21.865   1.475  1.00  0.00     0.048 C 
HETATM   17  C   UNL     1      44.811 -20.814   3.636  1.00  0.00     0.007 A 
HETATM   18  C   UNL     1      44.749 -19.790   4.579  1.00  0.00     0.003 A 
HETATM   19  C   UNL     1      43.901 -18.700   4.375  1.00  0.00     0.029 A 
ENDBRANCH   9  13
ENDBRANCH   1   7
BRANCH   3  20
HETATM   20  C   UNL     1      40.002 -13.922  -1.137  1.00  0.00     0.260 C 
HETATM   21  N   UNL     1      39.403 -14.807  -2.009  1.00  0.00    -0.352 N 
HETATM   22  H   UNL     1      38.975 -15.643  -1.639  1.00  0.00     0.163 HD
HETATM   23  O   UNL     1      40.467 -12.855  -1.529  1.00  0.00    -0.267 OA
BRANCH  21  24
HETATM   24  C   UNL     1      39.240 -14.511  -3.415  1.00  0.00     0.161 C 
BRANCH  24  25
HETATM   25  C   UNL     1      37.909 -13.890  -3.778  1.00  0.00    -0.040 A 
HETATM   26  C   UNL     1      37.612 -12.529  -3.613  1.00  0.00     0.010 A 
HETATM   27  C   UNL     1      36.357 -12.024  -3.968  1.00  0.00     0.024 A 
HETATM   28  C   UNL     1      35.384 -12.876  -4.484  1.00  0.00     0.034 A 
HETATM   29 CL   UNL     1      33.840 -12.252  -4.916  1.00  0.00    -0.084 Cl
HETATM   30  C   UNL     1      35.654 -14.231  -4.649  1.00  0.00     0.024 A 
HETATM   31  C   UNL     1      36.911 -14.733  -4.299  1.00  0.00     0.010 A 
ENDBRANCH  24  25
ENDBRANCH  21  24
ENDBRANCH   3  20
TORSDOF 5
ENDMDL
MODEL 10
REMARK VINA RESULT:      -8.1      6.249     10.049
REMARK  5 active torsions:
REMARK  status: ('A' for Active; 'I' for Inactive)
REMARK    1  A    between atoms: C_4  and  N_5 
REMARK       I    between atoms: N_5  and  C_6 
REMARK       I    between atoms: C_6  and  N_7 
REMARK    2  A    between atoms: N_7  and  C_8 
REMARK    3  A    between atoms: C_10  and  C_11 
REMARK       I    between atoms: C_11  and  N_12 
REMARK    4  A    between atoms: N_12  and  C_13 
REMARK    5  A    between atoms: C_13  and  C_14 
ROOT
HETATM    1  C   UNL     1      41.304 -15.340  -0.403  1.00  0.00     0.175 A 
HETATM    2  S   UNL     1      41.493 -16.675   0.633  1.00  0.00    -0.044 SA
HETATM    3  C   UNL     1      41.623 -15.619   1.984  1.00  0.00     0.100 A 
HETATM    4  C   UNL     1      41.521 -14.307   1.544  1.00  0.00     0.056 A 
HETATM    5  C   UNL     1      41.592 -13.071   2.371  1.00  0.00     0.072 C 
HETATM    6  N   UNL     1      41.319 -14.166   0.179  1.00  0.00    -0.228 NA
ENDROOT
BRANCH   1   7
HETATM    7  N   UNL     1      41.097 -15.446  -1.748  1.00  0.00    -0.287 N 
HETATM    8  C   UNL     1      41.101 -14.557  -2.779  1.00  0.00     0.326 C 
HETATM    9  N   UNL     1      41.129 -13.226  -2.481  1.00  0.00    -0.309 N 
HETATM   10  O   UNL     1      41.033 -15.029  -3.913  1.00  0.00    -0.247 OA
HETATM   11  H   UNL     1      40.995 -12.994  -1.509  1.00  0.00     0.170 HD
HETATM   12  H   UNL     1      40.936 -16.398  -2.050  1.00  0.00     0.172 HD
BRANCH   9  13
HETATM   13  C   UNL     1      41.172 -12.136  -3.376  1.00  0.00     0.036 A 
HETATM   14  C   UNL     1      40.057 -11.639  -4.057  1.00  0.00     0.036 A 
HETATM   15  C   UNL     1      40.172 -10.545  -4.930  1.00  0.00    -0.060 A 
HETATM   16  C   UNL     1      38.967 -10.048  -5.674  1.00  0.00     0.048 C 
HETATM   17  C   UNL     1      41.427  -9.966  -5.142  1.00  0.00     0.007 A 
HETATM   18  C   UNL     1      42.546 -10.459  -4.473  1.00  0.00     0.003 A 
HETATM   19  C   UNL     1      42.419 -11.538  -3.596  1.00  0.00     0.029 A 
ENDBRANCH   9  13
ENDBRANCH   1   7
BRANCH   3  20
HETATM   20  C   UNL     1      41.826 -16.089   3.344  1.00  0.00     0.260 C 
HETATM   21  N   UNL     1      43.129 -16.354   3.708  1.00  0.00    -0.352 N 
HETATM   22  H   UNL     1      43.871 -16.145   3.055  1.00  0.00     0.163 HD
HETATM   23  O   UNL     1      40.897 -16.252   4.131  1.00  0.00    -0.267 OA
BRANCH  21  24
HETATM   24  C   UNL     1      43.484 -16.785   5.042  1.00  0.00     0.161 C 
BRANCH  24  25
HETATM   25  C   UNL     1      43.853 -18.248   5.154  1.00  0.00    -0.040 A 
HETATM   26  C   UNL     1      43.713 -19.000   6.330  1.00  0.00     0.010 A 
HETATM   27  C   UNL     1      44.078 -20.351   6.361  1.00  0.00     0.024 A 
HETATM   28  C   UNL     1      44.594 -20.959   5.220  1.00  0.00     0.034 A 
HETATM   29 CL   UNL     1      45.047 -22.618   5.264  1.00  0.00    -0.084 Cl
HETATM   30  C   UNL     1      44.749 -20.230   4.046  1.00  0.00     0.024 A 
HETATM   31  C   UNL     1      44.378 -18.883   4.014  1.00  0.00     0.010 A 
ENDBRANCH  24  25
ENDBRANCH  21  24
ENDBRANCH   3  20
TORSDOF 5
ENDMDL
