MODEL 1
REMARK VINA RESULT:      -9.0      0.000      0.000
REMARK  7 active torsions:
REMARK  status: ('A' for Active; 'I' for Inactive)
REMARK    1  A    between atoms: C_4  and  C_5 
REMARK    2  A    between atoms: C_12  and  C_13 
REMARK       I    between atoms: C_13  and  N_14 
REMARK    3  A    between atoms: N_14  and  N_15 
REMARK       I    between atoms: N_15  and  C_16 
REMARK    4  A    between atoms: C_16  and  C_17 
REMARK    5  A    between atoms: C_17  and  C_18 
REMARK    6  A    between atoms: C_18  and  C_19 
REMARK    7  A    between atoms: C_22  and  O_23 
ROOT
HETATM    1  C   UNL     1      42.616 -14.688   5.942  1.00  0.00     0.272 C 
HETATM    2  N   UNL     1      43.650 -14.144   6.673  1.00  0.00    -0.263 N 
HETATM    3  O   UNL     1      41.503 -14.176   5.874  1.00  0.00    -0.266 OA
HETATM    4  H   UNL     1      44.600 -14.513   6.705  1.00  0.00     0.190 HD
ENDROOT
BRANCH   2   5
HETATM    5  N   UNL     1      43.415 -12.970   7.387  1.00  0.00    -0.267 N 
HETATM    6  C   UNL     1      44.334 -12.612   8.349  1.00  0.00     0.236 C 
HETATM    7  O   UNL     1      45.409 -13.196   8.486  1.00  0.00    -0.272 OA
HETATM    8  H   UNL     1      42.478 -12.579   7.317  1.00  0.00     0.190 HD
BRANCH   6   9
HETATM    9  C   UNL     1      43.956 -11.409   9.185  1.00  0.00     0.109 C 
BRANCH   9  10
HETATM   10  C   UNL     1      44.491 -11.455  10.616  1.00  0.00     0.048 C 
BRANCH  10  11
HETATM   11  C   UNL     1      43.571 -10.961  11.711  1.00  0.00    -0.058 A 
HETATM   12  C   UNL     1      42.388 -11.619  12.061  1.00  0.00     0.010 A 
HETATM   13  C   UNL     1      41.585 -11.133  13.099  1.00  0.00     0.037 A 
HETATM   14  C   UNL     1      41.955  -9.997  13.820  1.00  0.00     0.068 A 
HETATM   15  C   UNL     1      43.141  -9.346  13.491  1.00  0.00     0.037 A 
HETATM   16  C   UNL     1      43.943  -9.827  12.449  1.00  0.00     0.010 A 
BRANCH  14  17
HETATM   17  O   UNL     1      41.082  -9.635  14.807  1.00  0.00    -0.356 OA
HETATM   18  C   UNL     1      41.616  -9.505  16.119  1.00  0.00     0.210 C 
ENDBRANCH  14  17
ENDBRANCH  10  11
ENDBRANCH   9  10
ENDBRANCH   6   9
ENDBRANCH   2   5
BRANCH   1  19
HETATM   19  C   UNL     1      42.939 -15.943   5.224  1.00  0.00     0.058 A 
HETATM   20  C   UNL     1      42.939 -17.178   5.874  1.00  0.00     0.047 A 
HETATM   21  C   UNL     1      42.618 -17.324   7.332  1.00  0.00     0.071 C 
HETATM   22  N   UNL     1      43.222 -18.338   5.217  1.00  0.00    -0.252 NA
HETATM   23  C   UNL     1      43.534 -18.290   3.896  1.00  0.00     0.074 A 
HETATM   24  C   UNL     1      43.561 -17.090   3.193  1.00  0.00     0.034 A 
HETATM   25  C   UNL     1      43.261 -15.906   3.864  1.00  0.00     0.021 A 
BRANCH  23  26
HETATM   26  C   UNL     1      43.813 -19.607   3.300  1.00  0.00     0.033 A 
HETATM   27  S   UNL     1      44.706 -20.815   4.140  1.00  0.00    -0.100 SA
HETATM   28  C   UNL     1      44.568 -21.929   2.853  1.00  0.00     0.050 A 
HETATM   29  C   UNL     1      43.855 -21.411   1.797  1.00  0.00     0.008 A 
HETATM   30  C   UNL     1      43.417 -20.080   2.059  1.00  0.00     0.021 A 
ENDBRANCH  23  26
ENDBRANCH   1  19
TORSDOF 7
ENDMDL
MODEL 2
REMARK VINA RESULT:      -8.6      1.502      2.101
REMARK  7 active torsions:
REMARK  status: ('A' for Active; 'I' for Inactive)
REMARK    1  A    between atoms: C_4  and  C_5 
REMARK    2  A    between atoms: C_12  and  C_13 
REMARK       I    between atoms: C_13  and  N_14 
REMARK    3  A    between atoms: N_14  and  N_15 
REMARK       I    between atoms: N_15  and  C_16 
REMARK    4  A    between atoms: C_16  and  C_17 
REMARK    5  A    between atoms: C_17  and  C_18 
REMARK    6  A    between atoms: C_18  and  C_19 
REMARK    7  A    between atoms: C_22  and  O_23 
ROOT
HETATM    1  C   UNL     1      43.549 -14.160   6.615  1.00  0.00     0.272 C 
HETATM    2  N   UNL     1      44.390 -14.047   7.702  1.00  0.00    -0.263 N 
HETATM    3  O   UNL     1      42.786 -13.266   6.264  1.00  0.00    -0.266 OA
HETATM    4  H   UNL     1      45.074 -14.747   7.986  1.00  0.00     0.190 HD
ENDROOT
BRANCH   2   5
HETATM    5  N   UNL     1      44.355 -12.871   8.452  1.00  0.00    -0.267 N 
HETATM    6  C   UNL     1      45.542 -12.201   8.646  1.00  0.00     0.236 C 
HETATM    7  O   UNL     1      46.580 -12.513   8.061  1.00  0.00    -0.272 OA
HETATM    8  H   UNL     1      43.509 -12.708   8.995  1.00  0.00     0.190 HD
BRANCH   6   9
HETATM    9  C   UNL     1      45.466 -11.014   9.581  1.00  0.00     0.109 C 
BRANCH   9  10
HETATM   10  C   UNL     1      44.852 -11.335  10.943  1.00  0.00     0.048 C 
BRANCH  10  11
HETATM   11  C   UNL     1      43.755 -10.418  11.437  1.00  0.00    -0.058 A 
HETATM   12  C   UNL     1      43.738  -9.883  12.729  1.00  0.00     0.010 A 
HETATM   13  C   UNL     1      42.712  -9.020  13.127  1.00  0.00     0.037 A 
HETATM   14  C   UNL     1      41.697  -8.656  12.242  1.00  0.00     0.068 A 
HETATM   15  C   UNL     1      41.715  -9.168  10.948  1.00  0.00     0.037 A 
HETATM   16  C   UNL     1      42.738 -10.037  10.548  1.00  0.00     0.010 A 
BRANCH  14  17
HETATM   17  O   UNL     1      40.763  -7.804  12.760  1.00  0.00    -0.356 OA
HETATM   18  C   UNL     1      39.405  -8.222  12.690  1.00  0.00     0.210 C 
ENDBRANCH  14  17
ENDBRANCH  10  11
ENDBRANCH   9  10
ENDBRANCH   6   9
ENDBRANCH   2   5
BRANCH   1  19
HETATM   19  C   UNL     1      43.634 -15.444   5.880  1.00  0.00     0.058 A 
HETATM   20  C   UNL     1      43.476 -15.506   4.496  1.00  0.00     0.047 A 
HETATM   21  C   UNL     1      43.207 -14.290   3.658  1.00  0.00     0.071 C 
HETATM   22  N   UNL     1      43.566 -16.680   3.812  1.00  0.00    -0.252 NA
HETATM   23  C   UNL     1      43.797 -17.829   4.499  1.00  0.00     0.074 A 
HETATM   24  C   UNL     1      43.955 -17.837   5.881  1.00  0.00     0.034 A 
HETATM   25  C   UNL     1      43.872 -16.632   6.578  1.00  0.00     0.021 A 
BRANCH  23  26
HETATM   26  C   UNL     1      43.880 -19.027   3.649  1.00  0.00     0.033 A 
HETATM   27  S   UNL     1      44.802 -20.407   4.105  1.00  0.00    -0.100 SA
HETATM   28  C   UNL     1      44.380 -21.261   2.688  1.00  0.00     0.050 A 
HETATM   29  C   UNL     1      43.551 -20.528   1.873  1.00  0.00     0.008 A 
HETATM   30  C   UNL     1      43.259 -19.249   2.429  1.00  0.00     0.021 A 
ENDBRANCH  23  26
ENDBRANCH   1  19
TORSDOF 7
ENDMDL
MODEL 3
REMARK VINA RESULT:      -8.3      3.893     11.065
REMARK  7 active torsions:
REMARK  status: ('A' for Active; 'I' for Inactive)
REMARK    1  A    between atoms: C_4  and  C_5 
REMARK    2  A    between atoms: C_12  and  C_13 
REMARK       I    between atoms: C_13  and  N_14 
REMARK    3  A    between atoms: N_14  and  N_15 
REMARK       I    between atoms: N_15  and  C_16 
REMARK    4  A    between atoms: C_16  and  C_17 
REMARK    5  A    between atoms: C_17  and  C_18 
REMARK    6  A    between atoms: C_18  and  C_19 
REMARK    7  A    between atoms: C_22  and  O_23 
ROOT
HETATM    1  C   UNL     1      44.909 -13.203   7.876  1.00  0.00     0.272 C 
HETATM    2  N   UNL     1      44.186 -14.374   7.810  1.00  0.00    -0.263 N 
HETATM    3  O   UNL     1      45.825 -12.938   7.104  1.00  0.00    -0.266 OA
HETATM    4  H   UNL     1      43.385 -14.600   8.398  1.00  0.00     0.190 HD
ENDROOT
BRANCH   2   5
HETATM    5  N   UNL     1      44.526 -15.313   6.836  1.00  0.00    -0.267 N 
HETATM    6  C   UNL     1      44.033 -16.591   6.981  1.00  0.00     0.236 C 
HETATM    7  O   UNL     1      43.195 -16.884   7.834  1.00  0.00    -0.272 OA
HETATM    8  H   UNL     1      45.292 -15.061   6.216  1.00  0.00     0.190 HD
BRANCH   6   9
HETATM    9  C   UNL     1      44.548 -17.597   5.975  1.00  0.00     0.109 C 
BRANCH   9  10
HETATM   10  C   UNL     1      43.449 -18.421   5.302  1.00  0.00     0.048 C 
BRANCH  10  11
HETATM   11  C   UNL     1      42.990 -17.968   3.934  1.00  0.00    -0.058 A 
HETATM   12  C   UNL     1      43.789 -18.079   2.791  1.00  0.00     0.010 A 
HETATM   13  C   UNL     1      43.306 -17.667   1.544  1.00  0.00     0.037 A 
HETATM   14  C   UNL     1      42.015 -17.157   1.408  1.00  0.00     0.068 A 
HETATM   15  C   UNL     1      41.205 -17.060   2.537  1.00  0.00     0.037 A 
HETATM   16  C   UNL     1      41.688 -17.466   3.787  1.00  0.00     0.010 A 
BRANCH  14  17
HETATM   17  O   UNL     1      41.672 -16.798   0.135  1.00  0.00    -0.356 OA
HETATM   18  C   UNL     1      41.398 -15.420  -0.090  1.00  0.00     0.210 C 
ENDBRANCH  14  17
ENDBRANCH  10  11
ENDBRANCH   9  10
ENDBRANCH   6   9
ENDBRANCH   2   5
BRANCH   1  19
HETATM   19  C   UNL     1      44.498 -12.264   8.947  1.00  0.00     0.058 A 
HETATM   20  C   UNL     1      43.383 -11.438   8.806  1.00  0.00     0.047 A 
HETATM   21  C   UNL     1      42.529 -11.435   7.572  1.00  0.00     0.071 C 
HETATM   22  N   UNL     1      42.991 -10.583   9.791  1.00  0.00    -0.252 NA
HETATM   23  C   UNL     1      43.718 -10.518  10.937  1.00  0.00     0.074 A 
HETATM   24  C   UNL     1      44.845 -11.307  11.136  1.00  0.00     0.034 A 
HETATM   25  C   UNL     1      45.238 -12.189  10.130  1.00  0.00     0.021 A 
BRANCH  23  26
HETATM   26  C   UNL     1      43.189  -9.563  11.925  1.00  0.00     0.033 A 
HETATM   27  S   UNL     1      42.050  -8.345  11.497  1.00  0.00    -0.100 SA
HETATM   28  C   UNL     1      41.969  -7.743  13.093  1.00  0.00     0.050 A 
HETATM   29  C   UNL     1      42.784  -8.444  13.950  1.00  0.00     0.008 A 
HETATM   30  C   UNL     1      43.477  -9.493  13.279  1.00  0.00     0.021 A 
ENDBRANCH  23  26
ENDBRANCH   1  19
TORSDOF 7
ENDMDL
MODEL 4
REMARK VINA RESULT:      -8.3      3.490     11.203
REMARK  7 active torsions:
REMARK  status: ('A' for Active; 'I' for Inactive)
REMARK    1  A    between atoms: C_4  and  C_5 
REMARK    2  A    between atoms: C_12  and  C_13 
REMARK       I    between atoms: C_13  and  N_14 
REMARK    3  A    between atoms: N_14  and  N_15 
REMARK       I    between atoms: N_15  and  C_16 
REMARK    4  A    between atoms: C_16  and  C_17 
REMARK    5  A    between atoms: C_17  and  C_18 
REMARK    6  A    between atoms: C_18  and  C_19 
REMARK    7  A    between atoms: C_22  and  O_23 
ROOT
HETATM    1  C   UNL     1      44.701 -12.880   8.033  1.00  0.00     0.272 C 
HETATM    2  N   UNL     1      43.742 -13.578   7.331  1.00  0.00    -0.263 N 
HETATM    3  O   UNL     1      45.860 -12.763   7.647  1.00  0.00    -0.266 OA
HETATM    4  H   UNL     1      42.760 -13.647   7.595  1.00  0.00     0.190 HD
ENDROOT
BRANCH   2   5
HETATM    5  N   UNL     1      44.110 -14.199   6.139  1.00  0.00    -0.267 N 
HETATM    6  C   UNL     1      43.401 -13.876   5.003  1.00  0.00     0.236 C 
HETATM    7  O   UNL     1      42.576 -12.962   4.978  1.00  0.00    -0.272 OA
HETATM    8  H   UNL     1      44.717 -15.013   6.223  1.00  0.00     0.190 HD
BRANCH   6   9
HETATM    9  C   UNL     1      43.751 -14.683   3.773  1.00  0.00     0.109 C 
BRANCH   9  10
HETATM   10  C   UNL     1      42.699 -15.726   3.394  1.00  0.00     0.048 C 
BRANCH  10  11
HETATM   11  C   UNL     1      43.163 -17.161   3.278  1.00  0.00    -0.058 A 
HETATM   12  C   UNL     1      43.085 -17.889   2.086  1.00  0.00     0.010 A 
HETATM   13  C   UNL     1      43.552 -19.206   2.027  1.00  0.00     0.037 A 
HETATM   14  C   UNL     1      44.123 -19.816   3.145  1.00  0.00     0.068 A 
HETATM   15  C   UNL     1      44.222 -19.093   4.330  1.00  0.00     0.037 A 
HETATM   16  C   UNL     1      43.751 -17.776   4.394  1.00  0.00     0.010 A 
BRANCH  14  17
HETATM   17  O   UNL     1      44.539 -21.102   2.946  1.00  0.00    -0.356 OA
HETATM   18  C   UNL     1      44.066 -21.756   1.774  1.00  0.00     0.210 C 
ENDBRANCH  14  17
ENDBRANCH  10  11
ENDBRANCH   9  10
ENDBRANCH   6   9
ENDBRANCH   2   5
BRANCH   1  19
HETATM   19  C   UNL     1      44.237 -12.262   9.297  1.00  0.00     0.058 A 
HETATM   20  C   UNL     1      43.217 -11.310   9.314  1.00  0.00     0.047 A 
HETATM   21  C   UNL     1      42.526 -10.844   8.067  1.00  0.00     0.071 C 
HETATM   22  N   UNL     1      42.775 -10.748  10.474  1.00  0.00    -0.252 NA
HETATM   23  C   UNL     1      43.357 -11.109  11.647  1.00  0.00     0.074 A 
HETATM   24  C   UNL     1      44.385 -12.045  11.697  1.00  0.00     0.034 A 
HETATM   25  C   UNL     1      44.828 -12.627  10.510  1.00  0.00     0.021 A 
BRANCH  23  26
HETATM   26  C   UNL     1      42.788 -10.438  12.827  1.00  0.00     0.033 A 
HETATM   27  S   UNL     1      41.186 -10.754  13.370  1.00  0.00    -0.100 SA
HETATM   28  C   UNL     1      41.326  -9.666  14.679  1.00  0.00     0.050 A 
HETATM   29  C   UNL     1      42.563  -9.067  14.720  1.00  0.00     0.008 A 
HETATM   30  C   UNL     1      43.403  -9.517  13.661  1.00  0.00     0.021 A 
ENDBRANCH  23  26
ENDBRANCH   1  19
TORSDOF 7
ENDMDL
MODEL 5
REMARK VINA RESULT:      -8.2      1.770      2.521
REMARK  7 active torsions:
REMARK  status: ('A' for Active; 'I' for Inactive)
REMARK    1  A    between atoms: C_4  and  C_5 
REMARK    2  A    between atoms: C_12  and  C_13 
REMARK       I    between atoms: C_13  and  N_14 
REMARK    3  A    between atoms: N_14  and  N_15 
REMARK       I    between atoms: N_15  and  C_16 
REMARK    4  A    between atoms: C_16  and  C_17 
REMARK    5  A    between atoms: C_17  and  C_18 
REMARK    6  A    between atoms: C_18  and  C_19 
REMARK    7  A    between atoms: C_22  and  O_23 
ROOT
HETATM    1  C   UNL     1      43.242 -14.486   5.778  1.00  0.00     0.272 C 
HETATM    2  N   UNL     1      41.939 -14.061   5.923  1.00  0.00    -0.263 N 
HETATM    3  O   UNL     1      44.204 -13.852   6.199  1.00  0.00    -0.266 OA
HETATM    4  H   UNL     1      41.117 -14.589   5.636  1.00  0.00     0.190 HD
ENDROOT
BRANCH   2   5
HETATM    5  N   UNL     1      41.704 -12.842   6.558  1.00  0.00    -0.267 N 
HETATM    6  C   UNL     1      40.435 -12.312   6.475  1.00  0.00     0.236 C 
HETATM    7  O   UNL     1      39.486 -12.941   6.006  1.00  0.00    -0.272 OA
HETATM    8  H   UNL     1      42.528 -12.314   6.840  1.00  0.00     0.190 HD
BRANCH   6   9
HETATM    9  C   UNL     1      40.276 -10.926   7.060  1.00  0.00     0.109 C 
BRANCH   9  10
HETATM   10  C   UNL     1      41.577 -10.324   7.593  1.00  0.00     0.048 C 
BRANCH  10  11
HETATM   11  C   UNL     1      41.908 -10.578   9.047  1.00  0.00    -0.058 A 
HETATM   12  C   UNL     1      40.928 -10.727  10.033  1.00  0.00     0.010 A 
HETATM   13  C   UNL     1      41.288 -10.986  11.359  1.00  0.00     0.037 A 
HETATM   14  C   UNL     1      42.628 -11.122  11.725  1.00  0.00     0.068 A 
HETATM   15  C   UNL     1      43.610 -10.994  10.747  1.00  0.00     0.037 A 
HETATM   16  C   UNL     1      43.252 -10.730   9.419  1.00  0.00     0.010 A 
BRANCH  14  17
HETATM   17  O   UNL     1      42.837 -11.377  13.051  1.00  0.00    -0.356 OA
HETATM   18  C   UNL     1      42.373 -10.398  13.974  1.00  0.00     0.210 C 
ENDBRANCH  14  17
ENDBRANCH  10  11
ENDBRANCH   9  10
ENDBRANCH   6   9
ENDBRANCH   2   5
BRANCH   1  19
HETATM   19  C   UNL     1      43.411 -15.783   5.080  1.00  0.00     0.058 A 
HETATM   20  C   UNL     1      43.693 -16.957   5.777  1.00  0.00     0.047 A 
HETATM   21  C   UNL     1      43.849 -16.994   7.269  1.00  0.00     0.071 C 
HETATM   22  N   UNL     1      43.835 -18.155   5.144  1.00  0.00    -0.252 NA
HETATM   23  C   UNL     1      43.719 -18.204   3.791  1.00  0.00     0.074 A 
HETATM   24  C   UNL     1      43.448 -17.068   3.037  1.00  0.00     0.034 A 
HETATM   25  C   UNL     1      43.292 -15.845   3.688  1.00  0.00     0.021 A 
BRANCH  23  26
HETATM   26  C   UNL     1      43.887 -19.554   3.227  1.00  0.00     0.033 A 
HETATM   27  S   UNL     1      44.783 -20.777   4.041  1.00  0.00    -0.100 SA
HETATM   28  C   UNL     1      44.491 -21.926   2.812  1.00  0.00     0.050 A 
HETATM   29  C   UNL     1      43.725 -21.409   1.795  1.00  0.00     0.008 A 
HETATM   30  C   UNL     1      43.373 -20.049   2.038  1.00  0.00     0.021 A 
ENDBRANCH  23  26
ENDBRANCH   1  19
TORSDOF 7
ENDMDL
MODEL 6
REMARK VINA RESULT:      -8.0      8.915     12.499
REMARK  7 active torsions:
REMARK  status: ('A' for Active; 'I' for Inactive)
REMARK    1  A    between atoms: C_4  and  C_5 
REMARK    2  A    between atoms: C_12  and  C_13 
REMARK       I    between atoms: C_13  and  N_14 
REMARK    3  A    between atoms: N_14  and  N_15 
REMARK       I    between atoms: N_15  and  C_16 
REMARK    4  A    between atoms: C_16  and  C_17 
REMARK    5  A    between atoms: C_17  and  C_18 
REMARK    6  A    between atoms: C_18  and  C_19 
REMARK    7  A    between atoms: C_22  and  O_23 
ROOT
HETATM    1  C   UNL     1      40.475 -15.160  -2.737  1.00  0.00     0.272 C 
HETATM    2  N   UNL     1      40.524 -15.470  -1.395  1.00  0.00    -0.263 N 
HETATM    3  O   UNL     1      41.403 -15.378  -3.509  1.00  0.00    -0.266 OA
HETATM    4  H   UNL     1      39.752 -15.354  -0.740  1.00  0.00     0.190 HD
ENDROOT
BRANCH   2   5
HETATM    5  N   UNL     1      41.692 -16.037  -0.885  1.00  0.00    -0.267 N 
HETATM    6  C   UNL     1      41.729 -16.321   0.462  1.00  0.00     0.236 C 
HETATM    7  O   UNL     1      40.734 -16.239   1.182  1.00  0.00    -0.272 OA
HETATM    8  H   UNL     1      42.514 -15.992  -1.484  1.00  0.00     0.190 HD
BRANCH   6   9
HETATM    9  C   UNL     1      43.066 -16.802   0.982  1.00  0.00     0.109 C 
BRANCH   9  10
HETATM   10  C   UNL     1      43.055 -17.187   2.462  1.00  0.00     0.048 C 
BRANCH  10  11
HETATM   11  C   UNL     1      43.535 -18.578   2.815  1.00  0.00    -0.058 A 
HETATM   12  C   UNL     1      43.932 -18.938   4.107  1.00  0.00     0.010 A 
HETATM   13  C   UNL     1      44.345 -20.245   4.385  1.00  0.00     0.037 A 
HETATM   14  C   UNL     1      44.350 -21.222   3.389  1.00  0.00     0.068 A 
HETATM   15  C   UNL     1      43.939 -20.878   2.104  1.00  0.00     0.037 A 
HETATM   16  C   UNL     1      43.531 -19.569   1.822  1.00  0.00     0.010 A 
BRANCH  14  17
HETATM   17  O   UNL     1      44.773 -22.455   3.799  1.00  0.00    -0.356 OA
HETATM   18  C   UNL     1      45.308 -22.546   5.114  1.00  0.00     0.210 C 
ENDBRANCH  14  17
ENDBRANCH  10  11
ENDBRANCH   9  10
ENDBRANCH   6   9
ENDBRANCH   2   5
BRANCH   1  19
HETATM   19  C   UNL     1      39.207 -14.546  -3.198  1.00  0.00     0.058 A 
HETATM   20  C   UNL     1      39.017 -13.165  -3.186  1.00  0.00     0.047 A 
HETATM   21  C   UNL     1      40.069 -12.208  -2.707  1.00  0.00     0.071 C 
HETATM   22  N   UNL     1      37.860 -12.593  -3.622  1.00  0.00    -0.252 NA
HETATM   23  C   UNL     1      36.853 -13.392  -4.063  1.00  0.00     0.074 A 
HETATM   24  C   UNL     1      36.976 -14.777  -4.091  1.00  0.00     0.034 A 
HETATM   25  C   UNL     1      38.165 -15.359  -3.654  1.00  0.00     0.021 A 
BRANCH  23  26
HETATM   26  C   UNL     1      35.660 -12.656  -4.512  1.00  0.00     0.033 A 
HETATM   27  S   UNL     1      35.777 -11.175  -5.382  1.00  0.00    -0.100 SA
HETATM   28  C   UNL     1      34.081 -11.020  -5.509  1.00  0.00     0.050 A 
HETATM   29  C   UNL     1      33.422 -12.067  -4.911  1.00  0.00     0.008 A 
HETATM   30  C   UNL     1      34.330 -13.009  -4.345  1.00  0.00     0.021 A 
ENDBRANCH  23  26
ENDBRANCH   1  19
TORSDOF 7
ENDMDL
MODEL 7
REMARK VINA RESULT:      -7.9      3.872     11.316
REMARK  7 active torsions:
REMARK  status: ('A' for Active; 'I' for Inactive)
REMARK    1  A    between atoms: C_4  and  C_5 
REMARK    2  A    between atoms: C_12  and  C_13 
REMARK       I    between atoms: C_13  and  N_14 
REMARK    3  A    between atoms: N_14  and  N_15 
REMARK       I    between atoms: N_15  and  C_16 
REMARK    4  A    between atoms: C_16  and  C_17 
REMARK    5  A    between atoms: C_17  and  C_18 
REMARK    6  A    between atoms: C_18  and  C_19 
REMARK    7  A    between atoms: C_22  and  O_23 
ROOT
HETATM    1  C   UNL     1      41.965 -11.229   7.234  1.00  0.00     0.272 C 
HETATM    2  N   UNL     1      42.436 -12.495   6.957  1.00  0.00    -0.263 N 
HETATM    3  O   UNL     1      41.537 -10.471   6.370  1.00  0.00    -0.266 OA
HETATM    4  H   UNL     1      42.746 -13.169   7.656  1.00  0.00     0.190 HD
ENDROOT
BRANCH   2   5
HETATM    5  N   UNL     1      42.449 -12.925   5.631  1.00  0.00    -0.267 N 
HETATM    6  C   UNL     1      43.426 -13.822   5.259  1.00  0.00     0.236 C 
HETATM    7  O   UNL     1      44.172 -14.363   6.076  1.00  0.00    -0.272 OA
HETATM    8  H   UNL     1      41.890 -12.383   4.975  1.00  0.00     0.190 HD
BRANCH   6   9
HETATM    9  C   UNL     1      43.477 -14.144   3.781  1.00  0.00     0.109 C 
BRANCH   9  10
HETATM   10  C   UNL     1      42.515 -15.253   3.354  1.00  0.00     0.048 C 
BRANCH  10  11
HETATM   11  C   UNL     1      43.091 -16.644   3.207  1.00  0.00    -0.058 A 
HETATM   12  C   UNL     1      43.376 -17.466   4.303  1.00  0.00     0.010 A 
HETATM   13  C   UNL     1      43.885 -18.754   4.111  1.00  0.00     0.037 A 
HETATM   14  C   UNL     1      44.099 -19.257   2.827  1.00  0.00     0.068 A 
HETATM   15  C   UNL     1      43.801 -18.453   1.729  1.00  0.00     0.037 A 
HETATM   16  C   UNL     1      43.297 -17.160   1.919  1.00  0.00     0.010 A 
BRANCH  14  17
HETATM   17  O   UNL     1      44.595 -20.529   2.785  1.00  0.00    -0.356 OA
HETATM   18  C   UNL     1      43.947 -21.442   1.907  1.00  0.00     0.210 C 
ENDBRANCH  14  17
ENDBRANCH  10  11
ENDBRANCH   9  10
ENDBRANCH   6   9
ENDBRANCH   2   5
BRANCH   1  19
HETATM   19  C   UNL     1      41.998 -10.840   8.663  1.00  0.00     0.058 A 
HETATM   20  C   UNL     1      40.828 -10.677   9.404  1.00  0.00     0.047 A 
HETATM   21  C   UNL     1      39.463 -10.878   8.814  1.00  0.00     0.071 C 
HETATM   22  N   UNL     1      40.851 -10.333  10.722  1.00  0.00    -0.252 NA
HETATM   23  C   UNL     1      42.048 -10.122  11.328  1.00  0.00     0.074 A 
HETATM   24  C   UNL     1      43.251 -10.259  10.644  1.00  0.00     0.034 A 
HETATM   25  C   UNL     1      43.225 -10.621   9.298  1.00  0.00     0.021 A 
BRANCH  23  26
HETATM   26  C   UNL     1      41.941  -9.763  12.752  1.00  0.00     0.033 A 
HETATM   27  S   UNL     1      40.538  -9.002  13.396  1.00  0.00    -0.100 SA
HETATM   28  C   UNL     1      41.186  -8.955  14.975  1.00  0.00     0.050 A 
HETATM   29  C   UNL     1      42.444  -9.507  15.032  1.00  0.00     0.008 A 
HETATM   30  C   UNL     1      42.872  -9.977  13.756  1.00  0.00     0.021 A 
ENDBRANCH  23  26
ENDBRANCH   1  19
TORSDOF 7
ENDMDL
MODEL 8
REMARK VINA RESULT:      -7.8      7.446     11.568
REMARK  7 active torsions:
REMARK  status: ('A' for Active; 'I' for Inactive)
REMARK    1  A    between atoms: C_4  and  C_5 
REMARK    2  A    between atoms: C_12  and  C_13 
REMARK       I    between atoms: C_13  and  N_14 
REMARK    3  A    between atoms: N_14  and  N_15 
REMARK       I    between atoms: N_15  and  C_16 
REMARK    4  A    between atoms: C_16  and  C_17 
REMARK    5  A    between atoms: C_17  and  C_18 
REMARK    6  A    between atoms: C_18  and  C_19 
REMARK    7  A    between atoms: C_22  and  O_23 
ROOT
HETATM    1  C   UNL     1      41.849 -15.691   1.211  1.00  0.00     0.272 C 
HETATM    2  N   UNL     1      40.731 -15.889   0.429  1.00  0.00    -0.263 N 
HETATM    3  O   UNL     1      42.305 -14.579   1.457  1.00  0.00    -0.266 OA
HETATM    4  H   UNL     1      40.296 -16.793   0.251  1.00  0.00     0.190 HD
ENDROOT
BRANCH   2   5
HETATM    5  N   UNL     1      40.102 -14.776  -0.126  1.00  0.00    -0.267 N 
HETATM    6  C   UNL     1      38.911 -14.369   0.433  1.00  0.00     0.236 C 
HETATM    7  O   UNL     1      38.475 -14.849   1.480  1.00  0.00    -0.272 OA
HETATM    8  H   UNL     1      40.437 -14.478  -1.041  1.00  0.00     0.190 HD
BRANCH   6   9
HETATM    9  C   UNL     1      38.206 -13.247  -0.297  1.00  0.00     0.109 C 
BRANCH   9  10
HETATM   10  C   UNL     1      38.676 -13.053  -1.739  1.00  0.00     0.048 C 
BRANCH  10  11
HETATM   11  C   UNL     1      37.632 -13.182  -2.826  1.00  0.00    -0.058 A 
HETATM   12  C   UNL     1      37.428 -14.364  -3.546  1.00  0.00     0.010 A 
HETATM   13  C   UNL     1      36.432 -14.437  -4.525  1.00  0.00     0.037 A 
HETATM   14  C   UNL     1      35.607 -13.344  -4.791  1.00  0.00     0.068 A 
HETATM   15  C   UNL     1      35.790 -12.168  -4.068  1.00  0.00     0.037 A 
HETATM   16  C   UNL     1      36.790 -12.091  -3.091  1.00  0.00     0.010 A 
BRANCH  14  17
HETATM   17  O   UNL     1      34.675 -13.554  -5.768  1.00  0.00    -0.356 OA
HETATM   18  C   UNL     1      34.228 -12.410  -6.485  1.00  0.00     0.210 C 
ENDBRANCH  14  17
ENDBRANCH  10  11
ENDBRANCH   9  10
ENDBRANCH   6   9
ENDBRANCH   2   5
BRANCH   1  19
HETATM   19  C   UNL     1      42.470 -16.923   1.751  1.00  0.00     0.058 A 
HETATM   20  C   UNL     1      42.130 -17.423   3.007  1.00  0.00     0.047 A 
HETATM   21  C   UNL     1      41.123 -16.755   3.897  1.00  0.00     0.071 C 
HETATM   22  N   UNL     1      42.686 -18.563   3.505  1.00  0.00    -0.252 NA
HETATM   23  C   UNL     1      43.614 -19.222   2.765  1.00  0.00     0.074 A 
HETATM   24  C   UNL     1      44.005 -18.771   1.509  1.00  0.00     0.034 A 
HETATM   25  C   UNL     1      43.427 -17.610   0.997  1.00  0.00     0.021 A 
BRANCH  23  26
HETATM   26  C   UNL     1      44.135 -20.440   3.407  1.00  0.00     0.033 A 
HETATM   27  S   UNL     1      44.616 -20.464   5.060  1.00  0.00    -0.100 SA
HETATM   28  C   UNL     1      45.041 -22.117   4.998  1.00  0.00     0.050 A 
HETATM   29  C   UNL     1      44.824 -22.659   3.753  1.00  0.00     0.008 A 
HETATM   30  C   UNL     1      44.297 -21.697   2.844  1.00  0.00     0.021 A 
ENDBRANCH  23  26
ENDBRANCH   1  19
TORSDOF 7
ENDMDL
MODEL 9
REMARK VINA RESULT:      -7.8      6.084      9.435
REMARK  7 active torsions:
REMARK  status: ('A' for Active; 'I' for Inactive)
REMARK    1  A    between atoms: C_4  and  C_5 
REMARK    2  A    between atoms: C_12  and  C_13 
REMARK       I    between atoms: C_13  and  N_14 
REMARK    3  A    between atoms: N_14  and  N_15 
REMARK       I    between atoms: N_15  and  C_16 
REMARK    4  A    between atoms: C_16  and  C_17 
REMARK    5  A    between atoms: C_17  and  C_18 
REMARK    6  A    between atoms: C_18  and  C_19 
REMARK    7  A    between atoms: C_22  and  O_23 
ROOT
HETATM    1  C   UNL     1      42.261 -16.524   2.790  1.00  0.00     0.272 C 
HETATM    2  N   UNL     1      41.310 -16.415   3.783  1.00  0.00    -0.263 N 
HETATM    3  O   UNL     1      43.281 -17.195   2.911  1.00  0.00    -0.266 OA
HETATM    4  H   UNL     1      40.428 -15.913   3.694  1.00  0.00     0.190 HD
ENDROOT
BRANCH   2   5
HETATM    5  N   UNL     1      41.529 -17.079   4.990  1.00  0.00    -0.267 N 
HETATM    6  C   UNL     1      41.999 -16.338   6.051  1.00  0.00     0.236 C 
HETATM    7  O   UNL     1      42.081 -15.110   6.014  1.00  0.00    -0.272 OA
HETATM    8  H   UNL     1      41.548 -18.096   4.948  1.00  0.00     0.190 HD
BRANCH   6   9
HETATM    9  C   UNL     1      42.350 -17.135   7.288  1.00  0.00     0.109 C 
BRANCH   9  10
HETATM   10  C   UNL     1      43.791 -17.644   7.311  1.00  0.00     0.048 C 
BRANCH  10  11
HETATM   11  C   UNL     1      44.070 -18.954   6.607  1.00  0.00    -0.058 A 
HETATM   12  C   UNL     1      44.765 -19.031   5.396  1.00  0.00     0.010 A 
HETATM   13  C   UNL     1      45.017 -20.270   4.799  1.00  0.00     0.037 A 
HETATM   14  C   UNL     1      44.600 -21.456   5.405  1.00  0.00     0.068 A 
HETATM   15  C   UNL     1      43.923 -21.391   6.620  1.00  0.00     0.037 A 
HETATM   16  C   UNL     1      43.665 -20.151   7.217  1.00  0.00     0.010 A 
BRANCH  14  17
HETATM   17  O   UNL     1      44.915 -22.593   4.716  1.00  0.00    -0.356 OA
HETATM   18  C   UNL     1      44.635 -22.597   3.321  1.00  0.00     0.210 C 
ENDBRANCH  14  17
ENDBRANCH  10  11
ENDBRANCH   9  10
ENDBRANCH   6   9
ENDBRANCH   2   5
BRANCH   1  19
HETATM   19  C   UNL     1      41.964 -15.778   1.545  1.00  0.00     0.058 A 
HETATM   20  C   UNL     1      42.158 -14.400   1.455  1.00  0.00     0.047 A 
HETATM   21  C   UNL     1      42.673 -13.579   2.601  1.00  0.00     0.071 C 
HETATM   22  N   UNL     1      41.901 -13.709   0.309  1.00  0.00    -0.252 NA
HETATM   23  C   UNL     1      41.421 -14.378  -0.772  1.00  0.00     0.074 A 
HETATM   24  C   UNL     1      41.196 -15.750  -0.744  1.00  0.00     0.034 A 
HETATM   25  C   UNL     1      41.470 -16.456   0.427  1.00  0.00     0.021 A 
BRANCH  23  26
HETATM   26  C   UNL     1      41.189 -13.523  -1.948  1.00  0.00     0.033 A 
HETATM   27  S   UNL     1      42.444 -12.572  -2.644  1.00  0.00    -0.100 SA
HETATM   28  C   UNL     1      41.415 -11.956  -3.860  1.00  0.00     0.050 A 
HETATM   29  C   UNL     1      40.139 -12.456  -3.757  1.00  0.00     0.008 A 
HETATM   30  C   UNL     1      40.013 -13.361  -2.663  1.00  0.00     0.021 A 
ENDBRANCH  23  26
ENDBRANCH   1  19
TORSDOF 7
ENDMDL
MODEL 10
REMARK VINA RESULT:      -7.7      6.463     10.477
REMARK  7 active torsions:
REMARK  status: ('A' for Active; 'I' for Inactive)
REMARK    1  A    between atoms: C_4  and  C_5 
REMARK    2  A    between atoms: C_12  and  C_13 
REMARK       I    between atoms: C_13  and  N_14 
REMARK    3  A    between atoms: N_14  and  N_15 
REMARK       I    between atoms: N_15  and  C_16 
REMARK    4  A    between atoms: C_16  and  C_17 
REMARK    5  A    between atoms: C_17  and  C_18 
REMARK    6  A    between atoms: C_18  and  C_19 
REMARK    7  A    between atoms: C_22  and  O_23 
ROOT
HETATM    1  C   UNL     1      40.148 -16.057   2.270  1.00  0.00     0.272 C 
HETATM    2  N   UNL     1      40.282 -15.613   3.568  1.00  0.00    -0.263 N 
HETATM    3  O   UNL     1      40.505 -17.173   1.905  1.00  0.00    -0.266 OA
HETATM    4  H   UNL     1      39.945 -14.715   3.915  1.00  0.00     0.190 HD
ENDROOT
BRANCH   2   5
HETATM    5  N   UNL     1      40.870 -16.461   4.505  1.00  0.00    -0.267 N 
HETATM    6  C   UNL     1      41.783 -15.913   5.379  1.00  0.00     0.236 C 
HETATM    7  O   UNL     1      41.973 -14.699   5.461  1.00  0.00    -0.272 OA
HETATM    8  H   UNL     1      40.765 -17.460   4.338  1.00  0.00     0.190 HD
BRANCH   6   9
HETATM    9  C   UNL     1      42.491 -16.904   6.277  1.00  0.00     0.109 C 
BRANCH   9  10
HETATM   10  C   UNL     1      43.906 -17.258   5.817  1.00  0.00     0.048 C 
BRANCH  10  11
HETATM   11  C   UNL     1      44.071 -18.530   5.015  1.00  0.00    -0.058 A 
HETATM   12  C   UNL     1      43.777 -18.609   3.650  1.00  0.00     0.010 A 
HETATM   13  C   UNL     1      43.971 -19.803   2.950  1.00  0.00     0.037 A 
HETATM   14  C   UNL     1      44.480 -20.935   3.588  1.00  0.00     0.068 A 
HETATM   15  C   UNL     1      44.792 -20.861   4.943  1.00  0.00     0.037 A 
HETATM   16  C   UNL     1      44.594 -19.667   5.648  1.00  0.00     0.010 A 
BRANCH  14  17
HETATM   17  O   UNL     1      44.622 -22.031   2.786  1.00  0.00    -0.356 OA
HETATM   18  C   UNL     1      44.144 -21.915   1.451  1.00  0.00     0.210 C 
ENDBRANCH  14  17
ENDBRANCH  10  11
ENDBRANCH   9  10
ENDBRANCH   6   9
ENDBRANCH   2   5
BRANCH   1  19
HETATM   19  C   UNL     1      39.529 -15.093   1.331  1.00  0.00     0.058 A 
HETATM   20  C   UNL     1      40.253 -14.523   0.284  1.00  0.00     0.047 A 
HETATM   21  C   UNL     1      41.699 -14.839   0.036  1.00  0.00     0.071 C 
HETATM   22  N   UNL     1      39.686 -13.647  -0.591  1.00  0.00    -0.252 NA
HETATM   23  C   UNL     1      38.383 -13.301  -0.428  1.00  0.00     0.074 A 
HETATM   24  C   UNL     1      37.608 -13.825   0.601  1.00  0.00     0.034 A 
HETATM   25  C   UNL     1      38.188 -14.730   1.489  1.00  0.00     0.021 A 
BRANCH  23  26
HETATM   26  C   UNL     1      37.886 -12.353  -1.440  1.00  0.00     0.033 A 
HETATM   27  S   UNL     1      37.878 -10.653  -1.170  1.00  0.00    -0.100 SA
HETATM   28  C   UNL     1      37.215 -10.328  -2.709  1.00  0.00     0.050 A 
HETATM   29  C   UNL     1      37.001 -11.478  -3.431  1.00  0.00     0.008 A 
HETATM   30  C   UNL     1      37.393 -12.639  -2.704  1.00  0.00     0.021 A 
ENDBRANCH  23  26
ENDBRANCH   1  19
TORSDOF 7
ENDMDL
