MODEL 1
REMARK VINA RESULT:      -8.4      0.000      0.000
REMARK  8 active torsions:
REMARK  status: ('A' for Active; 'I' for Inactive)
REMARK    1  A    between atoms: C_2  and  C_3 
REMARK    2  A    between atoms: C_3  and  N_4 
REMARK    3  A    between atoms: C_7  and  C_8 
REMARK       I    between atoms: C_8  and  N_9 
REMARK    4  A    between atoms: N_9  and  N_10 
REMARK       I    between atoms: N_10  and  C_11 
REMARK    5  A    between atoms: C_11  and  C_12 
REMARK    6  A    between atoms: C_12  and  O_13 
REMARK    7  A    between atoms: O_13  and  C_14 
REMARK    8  A    between atoms: C_23  and  C_24 
ROOT
HETATM    1  C   UNL     1      43.945 -16.301   7.366  1.00  0.00     0.273 C 
HETATM    2  N   UNL     1      44.217 -14.986   7.024  1.00  0.00    -0.263 N 
HETATM    3  O   UNL     1      43.559 -16.602   8.494  1.00  0.00    -0.266 OA
HETATM    4  H   UNL     1      44.804 -14.771   6.218  1.00  0.00     0.190 HD
ENDROOT
BRANCH   2   5
HETATM    5  N   UNL     1      44.210 -14.016   8.043  1.00  0.00    -0.265 N 
HETATM    6  C   UNL     1      45.273 -13.134   8.086  1.00  0.00     0.260 C 
HETATM    7  O   UNL     1      46.119 -13.081   7.191  1.00  0.00    -0.269 OA
HETATM    8  H   UNL     1      43.664 -14.244   8.873  1.00  0.00     0.190 HD
BRANCH   6   9
HETATM    9  C   UNL     1      45.299 -12.233   9.312  1.00  0.00     0.280 C 
BRANCH   9  10
HETATM   10  O   UNL     1      44.643 -11.015   8.983  1.00  0.00    -0.342 OA
BRANCH  10  11
HETATM   11  C   UNL     1      43.614 -10.645   9.807  1.00  0.00     0.069 A 
HETATM   12  C   UNL     1      43.991 -10.301  11.108  1.00  0.00     0.043 A 
HETATM   13  C   UNL     1      43.035  -9.907  12.055  1.00  0.00    -0.059 A 
HETATM   14  C   UNL     1      43.437  -9.547  13.454  1.00  0.00     0.048 C 
HETATM   15  C   UNL     1      41.692  -9.838  11.672  1.00  0.00     0.007 A 
HETATM   16  C   UNL     1      41.313 -10.163  10.370  1.00  0.00     0.003 A 
HETATM   17  C   UNL     1      42.271 -10.566   9.437  1.00  0.00     0.037 A 
ENDBRANCH  10  11
ENDBRANCH   9  10
ENDBRANCH   6   9
ENDBRANCH   2   5
BRANCH   1  18
HETATM   18  C   UNL     1      44.130 -17.239   6.271  1.00  0.00     0.077 A 
HETATM   19  C   UNL     1      45.113 -18.262   6.248  1.00  0.00     0.158 A 
HETATM   20  N   UNL     1      45.089 -18.992   5.139  1.00  0.00    -0.183 NA
HETATM   21  N   UNL     1      44.093 -18.446   4.415  1.00  0.00    -0.268 N 
HETATM   22  C   UNL     1      43.472 -17.387   5.054  1.00  0.00     0.052 A 
BRANCH  21  23
HETATM   23  C   UNL     1      43.811 -18.975   3.079  1.00  0.00     0.106 C 
HETATM   24  C   UNL     1      44.349 -20.395   2.856  1.00  0.00     0.034 C 
BRANCH  23  25
HETATM   25  C   UNL     1      44.260 -18.003   1.970  1.00  0.00     0.022 C 
HETATM   26  C   UNL     1      43.170 -17.602   0.983  1.00  0.00     0.007 C 
ENDBRANCH  23  25
ENDBRANCH  21  23
BRANCH  22  27
HETATM   27  C   UNL     1      42.284 -16.627   4.457  1.00  0.00     0.038 A 
HETATM   28  C   UNL     1      40.913 -17.257   4.411  1.00  0.00     0.011 A 
HETATM   29  C   UNL     1      41.171 -16.115   5.337  1.00  0.00     0.011 A 
ENDBRANCH  22  27
ENDBRANCH   1  18
TORSDOF 8
ENDMDL
MODEL 2
REMARK VINA RESULT:      -7.9      1.397      2.048
REMARK  8 active torsions:
REMARK  status: ('A' for Active; 'I' for Inactive)
REMARK    1  A    between atoms: C_2  and  C_3 
REMARK    2  A    between atoms: C_3  and  N_4 
REMARK    3  A    between atoms: C_7  and  C_8 
REMARK       I    between atoms: C_8  and  N_9 
REMARK    4  A    between atoms: N_9  and  N_10 
REMARK       I    between atoms: N_10  and  C_11 
REMARK    5  A    between atoms: C_11  and  C_12 
REMARK    6  A    between atoms: C_12  and  O_13 
REMARK    7  A    between atoms: O_13  and  C_14 
REMARK    8  A    between atoms: C_23  and  C_24 
ROOT
HETATM    1  C   UNL     1      43.075 -14.889   5.920  1.00  0.00     0.273 C 
HETATM    2  N   UNL     1      44.175 -14.582   6.703  1.00  0.00    -0.263 N 
HETATM    3  O   UNL     1      42.040 -14.229   5.983  1.00  0.00    -0.266 OA
HETATM    4  H   UNL     1      44.902 -15.278   6.873  1.00  0.00     0.190 HD
ENDROOT
BRANCH   2   5
HETATM    5  N   UNL     1      44.030 -13.603   7.703  1.00  0.00    -0.265 N 
HETATM    6  C   UNL     1      45.164 -12.909   8.082  1.00  0.00     0.260 C 
HETATM    7  O   UNL     1      46.232 -13.017   7.477  1.00  0.00    -0.269 OA
HETATM    8  H   UNL     1      43.233 -13.718   8.329  1.00  0.00     0.190 HD
BRANCH   6   9
HETATM    9  C   UNL     1      44.977 -11.999   9.287  1.00  0.00     0.280 C 
BRANCH   9  10
HETATM   10  O   UNL     1      44.095 -10.947   8.917  1.00  0.00    -0.342 OA
BRANCH  10  11
HETATM   11  C   UNL     1      43.179 -10.569   9.862  1.00  0.00     0.069 A 
HETATM   12  C   UNL     1      43.719 -10.216  11.102  1.00  0.00     0.043 A 
HETATM   13  C   UNL     1      42.892  -9.814  12.160  1.00  0.00    -0.059 A 
HETATM   14  C   UNL     1      43.468  -9.444  13.494  1.00  0.00     0.048 C 
HETATM   15  C   UNL     1      41.511  -9.747  11.951  1.00  0.00     0.007 A 
HETATM   16  C   UNL     1      40.969 -10.081  10.710  1.00  0.00     0.003 A 
HETATM   17  C   UNL     1      41.800 -10.492   9.666  1.00  0.00     0.037 A 
ENDBRANCH  10  11
ENDBRANCH   9  10
ENDBRANCH   6   9
ENDBRANCH   2   5
BRANCH   1  18
HETATM   18  C   UNL     1      43.291 -16.016   5.028  1.00  0.00     0.077 A 
HETATM   19  C   UNL     1      43.514 -15.904   3.632  1.00  0.00     0.158 A 
HETATM   20  N   UNL     1      43.684 -17.075   3.028  1.00  0.00    -0.183 NA
HETATM   21  N   UNL     1      43.563 -17.972   4.025  1.00  0.00    -0.268 N 
HETATM   22  C   UNL     1      43.333 -17.388   5.259  1.00  0.00     0.052 A 
BRANCH  21  23
HETATM   23  C   UNL     1      43.642 -19.400   3.711  1.00  0.00     0.106 C 
HETATM   24  C   UNL     1      44.926 -20.070   4.221  1.00  0.00     0.034 C 
BRANCH  23  25
HETATM   25  C   UNL     1      43.399 -19.674   2.213  1.00  0.00     0.022 C 
HETATM   26  C   UNL     1      43.649 -21.111   1.771  1.00  0.00     0.007 C 
ENDBRANCH  23  25
ENDBRANCH  21  23
BRANCH  22  27
HETATM   27  C   UNL     1      43.201 -18.192   6.556  1.00  0.00     0.038 A 
HETATM   28  C   UNL     1      44.366 -18.312   7.507  1.00  0.00     0.011 A 
HETATM   29  C   UNL     1      43.174 -17.501   7.896  1.00  0.00     0.011 A 
ENDBRANCH  22  27
ENDBRANCH   1  18
TORSDOF 8
ENDMDL
MODEL 3
REMARK VINA RESULT:      -7.9      1.817      2.358
REMARK  8 active torsions:
REMARK  status: ('A' for Active; 'I' for Inactive)
REMARK    1  A    between atoms: C_2  and  C_3 
REMARK    2  A    between atoms: C_3  and  N_4 
REMARK    3  A    between atoms: C_7  and  C_8 
REMARK       I    between atoms: C_8  and  N_9 
REMARK    4  A    between atoms: N_9  and  N_10 
REMARK       I    between atoms: N_10  and  C_11 
REMARK    5  A    between atoms: C_11  and  C_12 
REMARK    6  A    between atoms: C_12  and  O_13 
REMARK    7  A    between atoms: O_13  and  C_14 
REMARK    8  A    between atoms: C_23  and  C_24 
ROOT
HETATM    1  C   UNL     1      43.131 -13.757   6.017  1.00  0.00     0.273 C 
HETATM    2  N   UNL     1      44.160 -13.983   6.916  1.00  0.00    -0.263 N 
HETATM    3  O   UNL     1      42.334 -12.835   6.177  1.00  0.00    -0.266 OA
HETATM    4  H   UNL     1      44.624 -14.891   6.955  1.00  0.00     0.190 HD
ENDROOT
BRANCH   2   5
HETATM    5  N   UNL     1      44.176 -13.244   8.113  1.00  0.00    -0.265 N 
HETATM    6  C   UNL     1      45.375 -12.667   8.487  1.00  0.00     0.260 C 
HETATM    7  O   UNL     1      46.358 -12.657   7.744  1.00  0.00    -0.269 OA
HETATM    8  H   UNL     1      43.455 -13.481   8.794  1.00  0.00     0.190 HD
BRANCH   6   9
HETATM    9  C   UNL     1      45.371 -12.040   9.874  1.00  0.00     0.280 C 
BRANCH   9  10
HETATM   10  O   UNL     1      44.095 -12.266  10.460  1.00  0.00    -0.342 OA
BRANCH  10  11
HETATM   11  C   UNL     1      43.407 -11.149  10.852  1.00  0.00     0.069 A 
HETATM   12  C   UNL     1      43.635 -10.745  12.170  1.00  0.00     0.043 A 
HETATM   13  C   UNL     1      42.990  -9.618  12.700  1.00  0.00    -0.059 A 
HETATM   14  C   UNL     1      43.226  -9.189  14.117  1.00  0.00     0.048 C 
HETATM   15  C   UNL     1      42.129  -8.884  11.880  1.00  0.00     0.007 A 
HETATM   16  C   UNL     1      41.912  -9.273  10.558  1.00  0.00     0.003 A 
HETATM   17  C   UNL     1      42.549 -10.403  10.043  1.00  0.00     0.037 A 
ENDBRANCH  10  11
ENDBRANCH   9  10
ENDBRANCH   6   9
ENDBRANCH   2   5
BRANCH   1  18
HETATM   18  C   UNL     1      43.125 -14.678   4.893  1.00  0.00     0.077 A 
HETATM   19  C   UNL     1      43.583 -14.357   3.590  1.00  0.00     0.158 A 
HETATM   20  N   UNL     1      43.476 -15.363   2.730  1.00  0.00    -0.183 NA
HETATM   21  N   UNL     1      42.935 -16.356   3.461  1.00  0.00    -0.268 N 
HETATM   22  C   UNL     1      42.708 -16.001   4.779  1.00  0.00     0.052 A 
BRANCH  21  23
HETATM   23  C   UNL     1      42.619 -17.629   2.809  1.00  0.00     0.106 C 
HETATM   24  C   UNL     1      43.860 -18.454   2.441  1.00  0.00     0.034 C 
BRANCH  23  25
HETATM   25  C   UNL     1      41.670 -17.441   1.609  1.00  0.00     0.022 C 
HETATM   26  C   UNL     1      40.277 -16.932   1.961  1.00  0.00     0.007 C 
ENDBRANCH  23  25
ENDBRANCH  21  23
BRANCH  22  27
HETATM   27  C   UNL     1      42.138 -16.967   5.822  1.00  0.00     0.038 A 
HETATM   28  C   UNL     1      42.938 -18.163   6.279  1.00  0.00     0.011 A 
HETATM   29  C   UNL     1      42.708 -17.025   7.217  1.00  0.00     0.011 A 
ENDBRANCH  22  27
ENDBRANCH   1  18
TORSDOF 8
ENDMDL
MODEL 4
REMARK VINA RESULT:      -7.6      2.208      3.326
REMARK  8 active torsions:
REMARK  status: ('A' for Active; 'I' for Inactive)
REMARK    1  A    between atoms: C_2  and  C_3 
REMARK    2  A    between atoms: C_3  and  N_4 
REMARK    3  A    between atoms: C_7  and  C_8 
REMARK       I    between atoms: C_8  and  N_9 
REMARK    4  A    between atoms: N_9  and  N_10 
REMARK       I    between atoms: N_10  and  C_11 
REMARK    5  A    between atoms: C_11  and  C_12 
REMARK    6  A    between atoms: C_12  and  O_13 
REMARK    7  A    between atoms: O_13  and  C_14 
REMARK    8  A    between atoms: C_23  and  C_24 
ROOT
HETATM    1  C   UNL     1      43.408 -13.769   5.901  1.00  0.00     0.273 C 
HETATM    2  N   UNL     1      42.329 -12.937   6.157  1.00  0.00    -0.263 N 
HETATM    3  O   UNL     1      44.343 -13.865   6.693  1.00  0.00    -0.266 OA
HETATM    4  H   UNL     1      41.719 -12.632   5.399  1.00  0.00     0.190 HD
ENDROOT
BRANCH   2   5
HETATM    5  N   UNL     1      42.403 -12.069   7.262  1.00  0.00    -0.265 N 
HETATM    6  C   UNL     1      41.609 -10.938   7.234  1.00  0.00     0.260 C 
HETATM    7  O   UNL     1      40.754 -10.757   6.365  1.00  0.00    -0.269 OA
HETATM    8  H   UNL     1      43.264 -12.112   7.807  1.00  0.00     0.190 HD
BRANCH   6   9
HETATM    9  C   UNL     1      41.869  -9.954   8.365  1.00  0.00     0.280 C 
BRANCH   9  10
HETATM   10  O   UNL     1      43.020 -10.391   9.079  1.00  0.00    -0.342 OA
BRANCH  10  11
HETATM   11  C   UNL     1      42.908 -10.414  10.443  1.00  0.00     0.069 A 
HETATM   12  C   UNL     1      41.758 -11.040  10.932  1.00  0.00     0.043 A 
HETATM   13  C   UNL     1      41.517 -11.129  12.311  1.00  0.00    -0.059 A 
HETATM   14  C   UNL     1      40.280 -11.792  12.838  1.00  0.00     0.048 C 
HETATM   15  C   UNL     1      42.461 -10.603  13.198  1.00  0.00     0.007 A 
HETATM   16  C   UNL     1      43.618  -9.993  12.714  1.00  0.00     0.003 A 
HETATM   17  C   UNL     1      43.844  -9.898  11.340  1.00  0.00     0.037 A 
ENDBRANCH  10  11
ENDBRANCH   9  10
ENDBRANCH   6   9
ENDBRANCH   2   5
BRANCH   1  18
HETATM   18  C   UNL     1      43.292 -14.507   4.655  1.00  0.00     0.077 A 
HETATM   19  C   UNL     1      43.253 -13.910   3.369  1.00  0.00     0.158 A 
HETATM   20  N   UNL     1      43.141 -14.791   2.382  1.00  0.00    -0.183 NA
HETATM   21  N   UNL     1      43.096 -15.979   3.013  1.00  0.00    -0.268 N 
HETATM   22  C   UNL     1      43.190 -15.870   4.389  1.00  0.00     0.052 A 
BRANCH  21  23
HETATM   23  C   UNL     1      42.917 -17.199   2.222  1.00  0.00     0.106 C 
HETATM   24  C   UNL     1      44.168 -17.605   1.430  1.00  0.00     0.034 C 
BRANCH  23  25
HETATM   25  C   UNL     1      41.662 -17.128   1.330  1.00  0.00     0.022 C 
HETATM   26  C   UNL     1      40.357 -16.866   2.071  1.00  0.00     0.007 C 
ENDBRANCH  23  25
ENDBRANCH  21  23
BRANCH  22  27
HETATM   27  C   UNL     1      43.205 -17.079   5.329  1.00  0.00     0.038 A 
HETATM   28  C   UNL     1      44.282 -18.129   5.213  1.00  0.00     0.011 A 
HETATM   29  C   UNL     1      44.261 -17.219   6.395  1.00  0.00     0.011 A 
ENDBRANCH  22  27
ENDBRANCH   1  18
TORSDOF 8
ENDMDL
MODEL 5
REMARK VINA RESULT:      -7.6      5.797      9.398
REMARK  8 active torsions:
REMARK  status: ('A' for Active; 'I' for Inactive)
REMARK    1  A    between atoms: C_2  and  C_3 
REMARK    2  A    between atoms: C_3  and  N_4 
REMARK    3  A    between atoms: C_7  and  C_8 
REMARK       I    between atoms: C_8  and  N_9 
REMARK    4  A    between atoms: N_9  and  N_10 
REMARK       I    between atoms: N_10  and  C_11 
REMARK    5  A    between atoms: C_11  and  C_12 
REMARK    6  A    between atoms: C_12  and  O_13 
REMARK    7  A    between atoms: O_13  and  C_14 
REMARK    8  A    between atoms: C_23  and  C_24 
ROOT
HETATM    1  C   UNL     1      41.030 -17.080   2.544  1.00  0.00     0.273 C 
HETATM    2  N   UNL     1      39.972 -16.233   2.833  1.00  0.00    -0.263 N 
HETATM    3  O   UNL     1      41.343 -17.339   1.384  1.00  0.00    -0.266 OA
HETATM    4  H   UNL     1      39.530 -16.250   3.753  1.00  0.00     0.190 HD
ENDROOT
BRANCH   2   5
HETATM    5  N   UNL     1      39.147 -15.809   1.774  1.00  0.00    -0.265 N 
HETATM    6  C   UNL     1      38.891 -14.455   1.673  1.00  0.00     0.260 C 
HETATM    7  O   UNL     1      39.472 -13.623   2.372  1.00  0.00    -0.269 OA
HETATM    8  H   UNL     1      38.510 -16.510   1.397  1.00  0.00     0.190 HD
BRANCH   6   9
HETATM    9  C   UNL     1      37.853 -14.084   0.624  1.00  0.00     0.280 C 
BRANCH   9  10
HETATM   10  O   UNL     1      38.436 -13.136  -0.262  1.00  0.00    -0.342 OA
BRANCH  10  11
HETATM   11  C   UNL     1      39.297 -13.641  -1.199  1.00  0.00     0.069 A 
HETATM   12  C   UNL     1      38.704 -14.448  -2.174  1.00  0.00     0.043 A 
HETATM   13  C   UNL     1      39.473 -15.032  -3.191  1.00  0.00    -0.059 A 
HETATM   14  C   UNL     1      38.842 -15.906  -4.233  1.00  0.00     0.048 C 
HETATM   15  C   UNL     1      40.847 -14.775  -3.233  1.00  0.00     0.007 A 
HETATM   16  C   UNL     1      41.440 -13.956  -2.272  1.00  0.00     0.003 A 
HETATM   17  C   UNL     1      40.667 -13.388  -1.256  1.00  0.00     0.037 A 
ENDBRANCH  10  11
ENDBRANCH   9  10
ENDBRANCH   6   9
ENDBRANCH   2   5
BRANCH   1  18
HETATM   18  C   UNL     1      41.718 -17.576   3.724  1.00  0.00     0.077 A 
HETATM   19  C   UNL     1      41.274 -17.376   5.056  1.00  0.00     0.158 A 
HETATM   20  N   UNL     1      42.071 -17.923   5.966  1.00  0.00    -0.183 NA
HETATM   21  N   UNL     1      43.056 -18.483   5.238  1.00  0.00    -0.268 N 
HETATM   22  C   UNL     1      42.890 -18.311   3.875  1.00  0.00     0.052 A 
BRANCH  21  23
HETATM   23  C   UNL     1      44.165 -19.144   5.929  1.00  0.00     0.106 C 
HETATM   24  C   UNL     1      43.793 -20.512   6.518  1.00  0.00     0.034 C 
BRANCH  23  25
HETATM   25  C   UNL     1      44.823 -18.221   6.975  1.00  0.00     0.022 C 
HETATM   26  C   UNL     1      44.408 -18.482   8.418  1.00  0.00     0.007 C 
ENDBRANCH  23  25
ENDBRANCH  21  23
BRANCH  22  27
HETATM   27  C   UNL     1      43.853 -18.890   2.833  1.00  0.00     0.038 A 
HETATM   28  C   UNL     1      44.290 -20.332   2.909  1.00  0.00     0.011 A 
HETATM   29  C   UNL     1      43.378 -19.892   1.812  1.00  0.00     0.011 A 
ENDBRANCH  22  27
ENDBRANCH   1  18
TORSDOF 8
ENDMDL
MODEL 6
REMARK VINA RESULT:      -7.4      5.746      9.758
REMARK  8 active torsions:
REMARK  status: ('A' for Active; 'I' for Inactive)
REMARK    1  A    between atoms: C_2  and  C_3 
REMARK    2  A    between atoms: C_3  and  N_4 
REMARK    3  A    between atoms: C_7  and  C_8 
REMARK       I    between atoms: C_8  and  N_9 
REMARK    4  A    between atoms: N_9  and  N_10 
REMARK       I    between atoms: N_10  and  C_11 
REMARK    5  A    between atoms: C_11  and  C_12 
REMARK    6  A    between atoms: C_12  and  O_13 
REMARK    7  A    between atoms: O_13  and  C_14 
REMARK    8  A    between atoms: C_23  and  C_24 
ROOT
HETATM    1  C   UNL     1      41.768 -17.231   2.085  1.00  0.00     0.273 C 
HETATM    2  N   UNL     1      42.203 -15.963   1.738  1.00  0.00    -0.263 N 
HETATM    3  O   UNL     1      41.057 -17.892   1.332  1.00  0.00    -0.266 OA
HETATM    4  H   UNL     1      42.528 -15.311   2.453  1.00  0.00     0.190 HD
ENDROOT
BRANCH   2   5
HETATM    5  N   UNL     1      41.674 -15.371   0.576  1.00  0.00    -0.265 N 
HETATM    6  C   UNL     1      41.768 -13.996   0.465  1.00  0.00     0.260 C 
HETATM    7  O   UNL     1      42.419 -13.316   1.260  1.00  0.00    -0.269 OA
HETATM    8  H   UNL     1      40.952 -15.903   0.093  1.00  0.00     0.190 HD
BRANCH   6   9
HETATM    9  C   UNL     1      41.020 -13.404  -0.720  1.00  0.00     0.280 C 
BRANCH   9  10
HETATM   10  O   UNL     1      41.382 -14.135  -1.885  1.00  0.00    -0.342 OA
BRANCH  10  11
HETATM   11  C   UNL     1      40.346 -14.636  -2.626  1.00  0.00     0.069 A 
HETATM   12  C   UNL     1      39.265 -13.767  -2.797  1.00  0.00     0.043 A 
HETATM   13  C   UNL     1      38.136 -14.157  -3.532  1.00  0.00    -0.059 A 
HETATM   14  C   UNL     1      36.971 -13.230  -3.709  1.00  0.00     0.048 C 
HETATM   15  C   UNL     1      38.115 -15.427  -4.117  1.00  0.00     0.007 A 
HETATM   16  C   UNL     1      39.200 -16.291  -3.964  1.00  0.00     0.003 A 
HETATM   17  C   UNL     1      40.314 -15.898  -3.221  1.00  0.00     0.037 A 
ENDBRANCH  10  11
ENDBRANCH   9  10
ENDBRANCH   6   9
ENDBRANCH   2   5
BRANCH   1  18
HETATM   18  C   UNL     1      42.257 -17.681   3.377  1.00  0.00     0.077 A 
HETATM   19  C   UNL     1      41.706 -17.292   4.625  1.00  0.00     0.158 A 
HETATM   20  N   UNL     1      42.325 -17.833   5.668  1.00  0.00    -0.183 NA
HETATM   21  N   UNL     1      43.300 -18.579   5.113  1.00  0.00    -0.268 N 
HETATM   22  C   UNL     1      43.302 -18.531   3.730  1.00  0.00     0.052 A 
BRANCH  21  23
HETATM   23  C   UNL     1      44.235 -19.292   5.986  1.00  0.00     0.106 C 
HETATM   24  C   UNL     1      43.635 -20.550   6.630  1.00  0.00     0.034 C 
BRANCH  23  25
HETATM   25  C   UNL     1      44.876 -18.355   7.029  1.00  0.00     0.022 C 
HETATM   26  C   UNL     1      44.369 -18.533   8.455  1.00  0.00     0.007 C 
ENDBRANCH  23  25
ENDBRANCH  21  23
BRANCH  22  27
HETATM   27  C   UNL     1      44.285 -19.325   2.865  1.00  0.00     0.038 A 
HETATM   28  C   UNL     1      44.342 -20.830   2.951  1.00  0.00     0.011 A 
HETATM   29  C   UNL     1      43.797 -20.180   1.723  1.00  0.00     0.011 A 
ENDBRANCH  22  27
ENDBRANCH   1  18
TORSDOF 8
ENDMDL
MODEL 7
REMARK VINA RESULT:      -7.3      5.590      8.756
REMARK  8 active torsions:
REMARK  status: ('A' for Active; 'I' for Inactive)
REMARK    1  A    between atoms: C_2  and  C_3 
REMARK    2  A    between atoms: C_3  and  N_4 
REMARK    3  A    between atoms: C_7  and  C_8 
REMARK       I    between atoms: C_8  and  N_9 
REMARK    4  A    between atoms: N_9  and  N_10 
REMARK       I    between atoms: N_10  and  C_11 
REMARK    5  A    between atoms: C_11  and  C_12 
REMARK    6  A    between atoms: C_12  and  O_13 
REMARK    7  A    between atoms: O_13  and  C_14 
REMARK    8  A    between atoms: C_23  and  C_24 
ROOT
HETATM    1  C   UNL     1      41.789 -17.549   1.432  1.00  0.00     0.273 C 
HETATM    2  N   UNL     1      42.499 -16.838   0.478  1.00  0.00    -0.263 N 
HETATM    3  O   UNL     1      40.567 -17.665   1.365  1.00  0.00    -0.266 OA
HETATM    4  H   UNL     1      43.437 -16.493   0.680  1.00  0.00     0.190 HD
ENDROOT
BRANCH   2   5
HETATM    5  N   UNL     1      41.777 -16.100  -0.479  1.00  0.00    -0.265 N 
HETATM    6  C   UNL     1      41.478 -14.786  -0.174  1.00  0.00     0.260 C 
HETATM    7  O   UNL     1      41.946 -14.219   0.815  1.00  0.00    -0.269 OA
HETATM    8  H   UNL     1      41.212 -16.645  -1.130  1.00  0.00     0.190 HD
BRANCH   6   9
HETATM    9  C   UNL     1      40.545 -14.102  -1.163  1.00  0.00     0.280 C 
BRANCH   9  10
HETATM   10  O   UNL     1      40.509 -12.714  -0.853  1.00  0.00    -0.342 OA
BRANCH  10  11
HETATM   11  C   UNL     1      41.185 -11.890  -1.711  1.00  0.00     0.069 A 
HETATM   12  C   UNL     1      42.161 -11.086  -1.115  1.00  0.00     0.043 A 
HETATM   13  C   UNL     1      42.925 -10.193  -1.879  1.00  0.00    -0.059 A 
HETATM   14  C   UNL     1      43.966  -9.323  -1.241  1.00  0.00     0.048 C 
HETATM   15  C   UNL     1      42.713 -10.132  -3.261  1.00  0.00     0.007 A 
HETATM   16  C   UNL     1      41.752 -10.944  -3.862  1.00  0.00     0.003 A 
HETATM   17  C   UNL     1      40.989 -11.823  -3.091  1.00  0.00     0.037 A 
ENDBRANCH  10  11
ENDBRANCH   9  10
ENDBRANCH   6   9
ENDBRANCH   2   5
BRANCH   1  18
HETATM   18  C   UNL     1      42.627 -18.144   2.458  1.00  0.00     0.077 A 
HETATM   19  C   UNL     1      43.740 -18.985   2.198  1.00  0.00     0.158 A 
HETATM   20  N   UNL     1      44.350 -19.409   3.299  1.00  0.00    -0.183 NA
HETATM   21  N   UNL     1      43.635 -18.857   4.297  1.00  0.00    -0.268 N 
HETATM   22  C   UNL     1      42.585 -18.075   3.848  1.00  0.00     0.052 A 
BRANCH  21  23
HETATM   23  C   UNL     1      43.996 -19.159   5.684  1.00  0.00     0.106 C 
HETATM   24  C   UNL     1      45.087 -18.237   6.248  1.00  0.00     0.034 C 
BRANCH  23  25
HETATM   25  C   UNL     1      44.339 -20.649   5.877  1.00  0.00     0.022 C 
HETATM   26  C   UNL     1      43.706 -21.304   7.099  1.00  0.00     0.007 C 
ENDBRANCH  23  25
ENDBRANCH  21  23
BRANCH  22  27
HETATM   27  C   UNL     1      41.650 -17.306   4.786  1.00  0.00     0.038 A 
HETATM   28  C   UNL     1      42.116 -16.043   5.469  1.00  0.00     0.011 A 
HETATM   29  C   UNL     1      41.088 -15.964   4.390  1.00  0.00     0.011 A 
ENDBRANCH  22  27
ENDBRANCH   1  18
TORSDOF 8
ENDMDL
MODEL 8
REMARK VINA RESULT:      -7.2      2.657      9.709
REMARK  8 active torsions:
REMARK  status: ('A' for Active; 'I' for Inactive)
REMARK    1  A    between atoms: C_2  and  C_3 
REMARK    2  A    between atoms: C_3  and  N_4 
REMARK    3  A    between atoms: C_7  and  C_8 
REMARK       I    between atoms: C_8  and  N_9 
REMARK    4  A    between atoms: N_9  and  N_10 
REMARK       I    between atoms: N_10  and  C_11 
REMARK    5  A    between atoms: C_11  and  C_12 
REMARK    6  A    between atoms: C_12  and  O_13 
REMARK    7  A    between atoms: O_13  and  C_14 
REMARK    8  A    between atoms: C_23  and  C_24 
ROOT
HETATM    1  C   UNL     1      42.119 -10.968   7.219  1.00  0.00     0.273 C 
HETATM    2  N   UNL     1      42.148 -12.337   7.010  1.00  0.00    -0.263 N 
HETATM    3  O   UNL     1      42.016 -10.180   6.281  1.00  0.00    -0.266 OA
HETATM    4  H   UNL     1      42.523 -12.963   7.722  1.00  0.00     0.190 HD
ENDROOT
BRANCH   2   5
HETATM    5  N   UNL     1      42.232 -12.809   5.686  1.00  0.00    -0.265 N 
HETATM    6  C   UNL     1      43.316 -13.604   5.364  1.00  0.00     0.260 C 
HETATM    7  O   UNL     1      44.100 -14.022   6.217  1.00  0.00    -0.269 OA
HETATM    8  H   UNL     1      41.737 -12.259   4.985  1.00  0.00     0.190 HD
BRANCH   6   9
HETATM    9  C   UNL     1      43.445 -13.928   3.883  1.00  0.00     0.280 C 
BRANCH   9  10
HETATM   10  O   UNL     1      42.503 -14.946   3.567  1.00  0.00    -0.342 OA
BRANCH  10  11
HETATM   11  C   UNL     1      43.018 -16.091   3.020  1.00  0.00     0.069 A 
HETATM   12  C   UNL     1      43.327 -17.099   3.938  1.00  0.00     0.043 A 
HETATM   13  C   UNL     1      43.865 -18.322   3.512  1.00  0.00    -0.059 A 
HETATM   14  C   UNL     1      44.206 -19.400   4.496  1.00  0.00     0.048 C 
HETATM   15  C   UNL     1      44.066 -18.532   2.144  1.00  0.00     0.007 A 
HETATM   16  C   UNL     1      43.742 -17.536   1.223  1.00  0.00     0.003 A 
HETATM   17  C   UNL     1      43.218 -16.317   1.658  1.00  0.00     0.037 A 
ENDBRANCH  10  11
ENDBRANCH   9  10
ENDBRANCH   6   9
ENDBRANCH   2   5
BRANCH   1  18
HETATM   18  C   UNL     1      42.189 -10.591   8.621  1.00  0.00     0.077 A 
HETATM   19  C   UNL     1      41.321  -9.659   9.245  1.00  0.00     0.158 A 
HETATM   20  N   UNL     1      41.581  -9.477  10.535  1.00  0.00    -0.183 NA
HETATM   21  N   UNL     1      42.633 -10.284  10.768  1.00  0.00    -0.268 N 
HETATM   22  C   UNL     1      43.039 -10.989   9.648  1.00  0.00     0.052 A 
BRANCH  21  23
HETATM   23  C   UNL     1      43.235 -10.301  12.103  1.00  0.00     0.106 C 
HETATM   24  C   UNL     1      42.814 -11.510  12.951  1.00  0.00     0.034 C 
BRANCH  23  25
HETATM   25  C   UNL     1      43.023  -8.967  12.847  1.00  0.00     0.022 C 
HETATM   26  C   UNL     1      42.922  -9.083  14.363  1.00  0.00     0.007 C 
ENDBRANCH  23  25
ENDBRANCH  21  23
BRANCH  22  27
HETATM   27  C   UNL     1      44.186 -12.003   9.665  1.00  0.00     0.038 A 
HETATM   28  C   UNL     1      45.425 -11.776   8.834  1.00  0.00     0.011 A 
HETATM   29  C   UNL     1      45.503 -11.672  10.321  1.00  0.00     0.011 A 
ENDBRANCH  22  27
ENDBRANCH   1  18
TORSDOF 8
ENDMDL
MODEL 9
REMARK VINA RESULT:      -7.1      5.168      8.867
REMARK  8 active torsions:
REMARK  status: ('A' for Active; 'I' for Inactive)
REMARK    1  A    between atoms: C_2  and  C_3 
REMARK    2  A    between atoms: C_3  and  N_4 
REMARK    3  A    between atoms: C_7  and  C_8 
REMARK       I    between atoms: C_8  and  N_9 
REMARK    4  A    between atoms: N_9  and  N_10 
REMARK       I    between atoms: N_10  and  C_11 
REMARK    5  A    between atoms: C_11  and  C_12 
REMARK    6  A    between atoms: C_12  and  O_13 
REMARK    7  A    between atoms: O_13  and  C_14 
REMARK    8  A    between atoms: C_23  and  C_24 
ROOT
HETATM    1  C   UNL     1      39.536 -15.509   2.096  1.00  0.00     0.273 C 
HETATM    2  N   UNL     1      39.553 -14.897   3.339  1.00  0.00    -0.263 N 
HETATM    3  O   UNL     1      39.951 -16.656   1.942  1.00  0.00    -0.266 OA
HETATM    4  H   UNL     1      39.496 -13.882   3.417  1.00  0.00     0.190 HD
ENDROOT
BRANCH   2   5
HETATM    5  N   UNL     1      40.216 -15.549   4.395  1.00  0.00    -0.265 N 
HETATM    6  C   UNL     1      41.286 -14.894   4.973  1.00  0.00     0.260 C 
HETATM    7  O   UNL     1      41.568 -13.726   4.698  1.00  0.00    -0.269 OA
HETATM    8  H   UNL     1      40.127 -16.564   4.419  1.00  0.00     0.190 HD
BRANCH   6   9
HETATM    9  C   UNL     1      42.069 -15.725   5.980  1.00  0.00     0.280 C 
BRANCH   9  10
HETATM   10  O   UNL     1      43.382 -15.920   5.469  1.00  0.00    -0.342 OA
BRANCH  10  11
HETATM   11  C   UNL     1      43.569 -17.041   4.706  1.00  0.00     0.069 A 
HETATM   12  C   UNL     1      43.533 -16.830   3.325  1.00  0.00     0.043 A 
HETATM   13  C   UNL     1      43.706 -17.895   2.428  1.00  0.00    -0.059 A 
HETATM   14  C   UNL     1      43.659 -17.672   0.946  1.00  0.00     0.048 C 
HETATM   15  C   UNL     1      43.942 -19.176   2.937  1.00  0.00     0.007 A 
HETATM   16  C   UNL     1      43.996 -19.388   4.314  1.00  0.00     0.003 A 
HETATM   17  C   UNL     1      43.811 -18.324   5.199  1.00  0.00     0.037 A 
ENDBRANCH  10  11
ENDBRANCH   9  10
ENDBRANCH   6   9
ENDBRANCH   2   5
BRANCH   1  18
HETATM   18  C   UNL     1      38.964 -14.683   1.047  1.00  0.00     0.077 A 
HETATM   19  C   UNL     1      37.621 -14.225   1.028  1.00  0.00     0.158 A 
HETATM   20  N   UNL     1      37.331 -13.485  -0.036  1.00  0.00    -0.183 NA
HETATM   21  N   UNL     1      38.481 -13.458  -0.734  1.00  0.00    -0.268 N 
HETATM   22  C   UNL     1      39.507 -14.159  -0.123  1.00  0.00     0.052 A 
BRANCH  21  23
HETATM   23  C   UNL     1      38.517 -12.761  -2.022  1.00  0.00     0.106 C 
HETATM   24  C   UNL     1      37.356 -11.775  -2.218  1.00  0.00     0.034 C 
BRANCH  23  25
HETATM   25  C   UNL     1      38.651 -13.742  -3.203  1.00  0.00     0.022 C 
HETATM   26  C   UNL     1      37.576 -14.820  -3.272  1.00  0.00     0.007 C 
ENDBRANCH  23  25
ENDBRANCH  21  23
BRANCH  22  27
HETATM   27  C   UNL     1      40.924 -14.243  -0.697  1.00  0.00     0.038 A 
HETATM   28  C   UNL     1      41.869 -13.071  -0.584  1.00  0.00     0.011 A 
HETATM   29  C   UNL     1      42.125 -14.307   0.213  1.00  0.00     0.011 A 
ENDBRANCH  22  27
ENDBRANCH   1  18
TORSDOF 8
ENDMDL
MODEL 10
REMARK VINA RESULT:      -7.1      6.760     10.529
REMARK  8 active torsions:
REMARK  status: ('A' for Active; 'I' for Inactive)
REMARK    1  A    between atoms: C_2  and  C_3 
REMARK    2  A    between atoms: C_3  and  N_4 
REMARK    3  A    between atoms: C_7  and  C_8 
REMARK       I    between atoms: C_8  and  N_9 
REMARK    4  A    between atoms: N_9  and  N_10 
REMARK       I    between atoms: N_10  and  C_11 
REMARK    5  A    between atoms: C_11  and  C_12 
REMARK    6  A    between atoms: C_12  and  O_13 
REMARK    7  A    between atoms: O_13  and  C_14 
REMARK    8  A    between atoms: C_23  and  C_24 
ROOT
HETATM    1  C   UNL     1      40.599 -14.665  -0.134  1.00  0.00     0.273 C 
HETATM    2  N   UNL     1      39.894 -15.588   0.622  1.00  0.00    -0.263 N 
HETATM    3  O   UNL     1      41.826 -14.687  -0.189  1.00  0.00    -0.266 OA
HETATM    4  H   UNL     1      38.933 -15.400   0.906  1.00  0.00     0.190 HD
ENDROOT
BRANCH   2   5
HETATM    5  N   UNL     1      40.618 -16.449   1.469  1.00  0.00    -0.265 N 
HETATM    6  C   UNL     1      40.721 -16.090   2.800  1.00  0.00     0.260 C 
HETATM    7  O   UNL     1      40.086 -15.147   3.276  1.00  0.00    -0.269 OA
HETATM    8  H   UNL     1      41.309 -17.044   1.015  1.00  0.00     0.190 HD
BRANCH   6   9
HETATM    9  C   UNL     1      41.663 -16.960   3.619  1.00  0.00     0.280 C 
BRANCH   9  10
HETATM   10  O   UNL     1      42.666 -17.470   2.748  1.00  0.00    -0.342 OA
BRANCH  10  11
HETATM   11  C   UNL     1      43.333 -18.582   3.187  1.00  0.00     0.069 A 
HETATM   12  C   UNL     1      43.468 -19.603   2.242  1.00  0.00     0.043 A 
HETATM   13  C   UNL     1      44.127 -20.799   2.561  1.00  0.00    -0.059 A 
HETATM   14  C   UNL     1      44.265 -21.899   1.552  1.00  0.00     0.048 C 
HETATM   15  C   UNL     1      44.674 -20.949   3.840  1.00  0.00     0.007 A 
HETATM   16  C   UNL     1      44.557 -19.926   4.781  1.00  0.00     0.003 A 
HETATM   17  C   UNL     1      43.889 -18.743   4.456  1.00  0.00     0.037 A 
ENDBRANCH  10  11
ENDBRANCH   9  10
ENDBRANCH   6   9
ENDBRANCH   2   5
BRANCH   1  18
HETATM   18  C   UNL     1      39.749 -13.729  -0.851  1.00  0.00     0.077 A 
HETATM   19  C   UNL     1      38.972 -12.716  -0.233  1.00  0.00     0.158 A 
HETATM   20  N   UNL     1      38.276 -11.985  -1.096  1.00  0.00    -0.183 NA
HETATM   21  N   UNL     1      38.582 -12.520  -2.293  1.00  0.00    -0.268 N 
HETATM   22  C   UNL     1      39.475 -13.574  -2.206  1.00  0.00     0.052 A 
BRANCH  21  23
HETATM   23  C   UNL     1      37.939 -11.988  -3.496  1.00  0.00     0.106 C 
HETATM   24  C   UNL     1      37.904 -10.454  -3.546  1.00  0.00     0.034 C 
BRANCH  23  25
HETATM   25  C   UNL     1      36.547 -12.608  -3.727  1.00  0.00     0.022 C 
HETATM   26  C   UNL     1      36.556 -14.023  -4.292  1.00  0.00     0.007 C 
ENDBRANCH  23  25
ENDBRANCH  21  23
BRANCH  22  27
HETATM   27  C   UNL     1      40.012 -14.322  -3.431  1.00  0.00     0.038 A 
HETATM   28  C   UNL     1      41.319 -15.072  -3.360  1.00  0.00     0.011 A 
HETATM   29  C   UNL     1      40.037 -15.829  -3.468  1.00  0.00     0.011 A 
ENDBRANCH  22  27
ENDBRANCH   1  18
TORSDOF 8
ENDMDL
