MODEL 1
REMARK VINA RESULT:     -10.2      0.000      0.000
REMARK  6 active torsions:
REMARK  status: ('A' for Active; 'I' for Inactive)
REMARK    1  A    between atoms: C_8  and  C_9 
REMARK       I    between atoms: C_9  and  N_10 
REMARK    2  A    between atoms: N_10  and  N_11 
REMARK       I    between atoms: N_11  and  C_12 
REMARK    3  A    between atoms: C_12  and  C_13 
REMARK    4  A    between atoms: C_13  and  C_14 
REMARK    5  A    between atoms: C_14  and  N_15 
REMARK    6  A    between atoms: C_28  and  O_29 
ROOT
HETATM    1  N   UNL     1      43.311 -13.041   6.696  1.00  0.00    -0.267 N 
HETATM    2  C   UNL     1      43.899 -14.251   6.394  1.00  0.00     0.237 C 
HETATM    3  O   UNL     1      44.658 -14.825   7.174  1.00  0.00    -0.272 OA
HETATM    4  H   UNL     1      42.563 -12.619   6.147  1.00  0.00     0.190 HD
ENDROOT
BRANCH   1   5
HETATM    5  N   UNL     1      43.531 -12.514   7.973  1.00  0.00    -0.263 N 
HETATM    6  C   UNL     1      42.814 -11.401   8.356  1.00  0.00     0.272 C 
HETATM    7  O   UNL     1      42.030 -10.828   7.596  1.00  0.00    -0.266 OA
HETATM    8  H   UNL     1      44.022 -13.130   8.618  1.00  0.00     0.190 HD
BRANCH   6   9
HETATM    9  C   UNL     1      42.983 -10.911   9.755  1.00  0.00     0.067 A 
HETATM   10  C   UNL     1      41.912 -10.878  10.662  1.00  0.00     0.032 A 
HETATM   11  C   UNL     1      42.088 -10.404  11.976  1.00  0.00    -0.025 A 
HETATM   12  C   UNL     1      41.019 -10.358  12.885  1.00  0.00     0.012 A 
HETATM   13  C   UNL     1      43.366  -9.966  12.392  1.00  0.00    -0.023 A 
HETATM   14  C   UNL     1      41.206  -9.886  14.184  1.00  0.00     0.001 A 
HETATM   15  C   UNL     1      42.465  -9.455  14.594  1.00  0.00     0.001 A 
HETATM   16  C   UNL     1      43.539  -9.494  13.703  1.00  0.00     0.012 A 
HETATM   17  C   UNL     1      44.436 -10.017  11.488  1.00  0.00     0.049 A 
HETATM   18  C   UNL     1      44.247 -10.489  10.189  1.00  0.00     0.082 A 
BRANCH  18  19
HETATM   19  O   UNL     1      45.364 -10.509   9.394  1.00  0.00    -0.360 OA
HETATM   20  H   UNL     1      45.167 -11.061   8.604  1.00  0.00     0.217 HD
ENDBRANCH  18  19
ENDBRANCH   6   9
ENDBRANCH   1   5
BRANCH   2  21
HETATM   21  C   UNL     1      43.530 -14.781   5.031  1.00  0.00     0.125 C 
BRANCH  21  22
HETATM   22  C   UNL     1      42.476 -15.875   5.151  1.00  0.00     0.145 C 
BRANCH  22  23
HETATM   23  N   UNL     1      42.895 -17.105   4.507  1.00  0.00    -0.279 N 
HETATM   24  C   UNL     1      43.784 -17.990   5.052  1.00  0.00     0.261 A 
HETATM   25  O   UNL     1      44.353 -17.940   6.124  1.00  0.00    -0.267 OA
HETATM   26  C   UNL     1      43.930 -19.079   4.087  1.00  0.00     0.048 A 
HETATM   27  C   UNL     1      43.086 -18.811   3.023  1.00  0.00     0.048 A 
HETATM   28  C   UNL     1      44.724 -20.208   4.124  1.00  0.00     0.018 A 
HETATM   29  C   UNL     1      42.401 -17.552   3.310  1.00  0.00     0.261 A 
HETATM   30  C   UNL     1      42.990 -19.656   1.935  1.00  0.00     0.018 A 
HETATM   31  O   UNL     1      41.551 -17.055   2.598  1.00  0.00    -0.267 OA
HETATM   32  C   UNL     1      43.788 -20.805   1.947  1.00  0.00     0.001 A 
HETATM   33  C   UNL     1      44.647 -21.079   3.033  1.00  0.00     0.001 A 
ENDBRANCH  22  23
ENDBRANCH  21  22
ENDBRANCH   2  21
TORSDOF 6
ENDMDL
MODEL 2
REMARK VINA RESULT:     -10.1      1.727     11.022
REMARK  6 active torsions:
REMARK  status: ('A' for Active; 'I' for Inactive)
REMARK    1  A    between atoms: C_8  and  C_9 
REMARK       I    between atoms: C_9  and  N_10 
REMARK    2  A    between atoms: N_10  and  N_11 
REMARK       I    between atoms: N_11  and  C_12 
REMARK    3  A    between atoms: C_12  and  C_13 
REMARK    4  A    between atoms: C_13  and  C_14 
REMARK    5  A    between atoms: C_14  and  N_15 
REMARK    6  A    between atoms: C_28  and  O_29 
ROOT
HETATM    1  N   UNL     1      44.303 -14.334   7.621  1.00  0.00    -0.267 N 
HETATM    2  C   UNL     1      45.262 -13.344   7.679  1.00  0.00     0.237 C 
HETATM    3  O   UNL     1      46.202 -13.294   6.888  1.00  0.00    -0.272 OA
HETATM    4  H   UNL     1      43.434 -14.317   8.154  1.00  0.00     0.190 HD
ENDROOT
BRANCH   1   5
HETATM    5  N   UNL     1      44.377 -15.247   6.563  1.00  0.00    -0.263 N 
HETATM    6  C   UNL     1      43.808 -16.491   6.729  1.00  0.00     0.272 C 
HETATM    7  O   UNL     1      43.286 -16.841   7.790  1.00  0.00    -0.266 OA
HETATM    8  H   UNL     1      44.629 -14.846   5.662  1.00  0.00     0.190 HD
BRANCH   6   9
HETATM    9  C   UNL     1      43.804 -17.416   5.559  1.00  0.00     0.067 A 
HETATM   10  C   UNL     1      44.257 -18.741   5.662  1.00  0.00     0.032 A 
HETATM   11  C   UNL     1      44.256 -19.598   4.545  1.00  0.00    -0.025 A 
HETATM   12  C   UNL     1      44.718 -20.920   4.638  1.00  0.00     0.012 A 
HETATM   13  C   UNL     1      43.779 -19.119   3.303  1.00  0.00    -0.023 A 
HETATM   14  C   UNL     1      44.711 -21.759   3.523  1.00  0.00     0.001 A 
HETATM   15  C   UNL     1      44.241 -21.289   2.300  1.00  0.00     0.001 A 
HETATM   16  C   UNL     1      43.778 -19.976   2.190  1.00  0.00     0.012 A 
HETATM   17  C   UNL     1      43.312 -17.801   3.209  1.00  0.00     0.049 A 
HETATM   18  C   UNL     1      43.319 -16.964   4.324  1.00  0.00     0.082 A 
BRANCH  18  19
HETATM   19  O   UNL     1      42.827 -15.700   4.124  1.00  0.00    -0.360 OA
HETATM   20  H   UNL     1      42.922 -15.484   3.169  1.00  0.00     0.217 HD
ENDBRANCH  18  19
ENDBRANCH   6   9
ENDBRANCH   1   5
BRANCH   2  21
HETATM   21  C   UNL     1      45.045 -12.356   8.799  1.00  0.00     0.125 C 
BRANCH  21  22
HETATM   22  C   UNL     1      43.557 -12.093   8.997  1.00  0.00     0.145 C 
BRANCH  22  23
HETATM   23  N   UNL     1      43.310 -11.176  10.093  1.00  0.00    -0.279 N 
HETATM   24  C   UNL     1      42.714  -9.953   9.947  1.00  0.00     0.261 A 
HETATM   25  O   UNL     1      42.283  -9.427   8.940  1.00  0.00    -0.267 OA
HETATM   26  C   UNL     1      42.660  -9.357  11.280  1.00  0.00     0.048 A 
HETATM   27  C   UNL     1      43.193 -10.272  12.170  1.00  0.00     0.048 A 
HETATM   28  C   UNL     1      42.190  -8.125  11.693  1.00  0.00     0.018 A 
HETATM   29  C   UNL     1      43.585 -11.454  11.405  1.00  0.00     0.261 A 
HETATM   30  C   UNL     1      43.287 -10.010  13.523  1.00  0.00     0.018 A 
HETATM   31  O   UNL     1      44.043 -12.468  11.893  1.00  0.00    -0.267 OA
HETATM   32  C   UNL     1      42.821  -8.767  13.965  1.00  0.00     0.001 A 
HETATM   33  C   UNL     1      42.276  -7.833  13.058  1.00  0.00     0.001 A 
ENDBRANCH  22  23
ENDBRANCH  21  22
ENDBRANCH   2  21
TORSDOF 6
ENDMDL
MODEL 3
REMARK VINA RESULT:      -9.8      1.838     10.944
REMARK  6 active torsions:
REMARK  status: ('A' for Active; 'I' for Inactive)
REMARK    1  A    between atoms: C_8  and  C_9 
REMARK       I    between atoms: C_9  and  N_10 
REMARK    2  A    between atoms: N_10  and  N_11 
REMARK       I    between atoms: N_11  and  C_12 
REMARK    3  A    between atoms: C_12  and  C_13 
REMARK    4  A    between atoms: C_13  and  C_14 
REMARK    5  A    between atoms: C_14  and  N_15 
REMARK    6  A    between atoms: C_28  and  O_29 
ROOT
HETATM    1  N   UNL     1      43.294 -14.995   6.757  1.00  0.00    -0.267 N 
HETATM    2  C   UNL     1      44.263 -14.045   7.003  1.00  0.00     0.237 C 
HETATM    3  O   UNL     1      45.460 -14.266   6.828  1.00  0.00    -0.272 OA
HETATM    4  H   UNL     1      42.294 -14.799   6.740  1.00  0.00     0.190 HD
ENDROOT
BRANCH   1   5
HETATM    5  N   UNL     1      43.708 -16.213   6.204  1.00  0.00    -0.263 N 
HETATM    6  C   UNL     1      43.231 -17.381   6.760  1.00  0.00     0.272 C 
HETATM    7  O   UNL     1      42.499 -17.388   7.753  1.00  0.00    -0.266 OA
HETATM    8  H   UNL     1      44.134 -16.148   5.282  1.00  0.00     0.190 HD
BRANCH   6   9
HETATM    9  C   UNL     1      43.598 -18.666   6.098  1.00  0.00     0.067 A 
HETATM   10  C   UNL     1      43.727 -18.771   4.704  1.00  0.00     0.032 A 
HETATM   11  C   UNL     1      44.064 -19.994   4.096  1.00  0.00    -0.025 A 
HETATM   12  C   UNL     1      44.184 -20.109   2.702  1.00  0.00     0.012 A 
HETATM   13  C   UNL     1      44.290 -21.133   4.903  1.00  0.00    -0.023 A 
HETATM   14  C   UNL     1      44.520 -21.328   2.111  1.00  0.00     0.001 A 
HETATM   15  C   UNL     1      44.742 -22.449   2.906  1.00  0.00     0.001 A 
HETATM   16  C   UNL     1      44.628 -22.352   4.294  1.00  0.00     0.012 A 
HETATM   17  C   UNL     1      44.177 -21.020   6.296  1.00  0.00     0.049 A 
HETATM   18  C   UNL     1      43.841 -19.801   6.884  1.00  0.00     0.082 A 
BRANCH  18  19
HETATM   19  O   UNL     1      43.772 -19.800   8.254  1.00  0.00    -0.360 OA
HETATM   20  H   UNL     1      44.245 -19.003   8.583  1.00  0.00     0.217 HD
ENDBRANCH  18  19
ENDBRANCH   6   9
ENDBRANCH   1   5
BRANCH   2  21
HETATM   21  C   UNL     1      43.710 -12.736   7.512  1.00  0.00     0.125 C 
BRANCH  21  22
HETATM   22  C   UNL     1      44.640 -12.136   8.560  1.00  0.00     0.145 C 
BRANCH  22  23
HETATM   23  N   UNL     1      43.906 -11.559   9.670  1.00  0.00    -0.279 N 
HETATM   24  C   UNL     1      43.011 -10.532   9.544  1.00  0.00     0.261 A 
HETATM   25  O   UNL     1      42.658  -9.944   8.541  1.00  0.00    -0.267 OA
HETATM   26  C   UNL     1      42.505 -10.256  10.887  1.00  0.00     0.048 A 
HETATM   27  C   UNL     1      43.095 -11.161  11.751  1.00  0.00     0.048 A 
HETATM   28  C   UNL     1      41.609  -9.301  11.328  1.00  0.00     0.018 A 
HETATM   29  C   UNL     1      43.976 -12.017  10.959  1.00  0.00     0.261 A 
HETATM   30  C   UNL     1      42.824 -11.164  13.105  1.00  0.00     0.018 A 
HETATM   31  O   UNL     1      44.609 -12.953  11.406  1.00  0.00    -0.267 OA
HETATM   32  C   UNL     1      41.922 -10.204  13.577  1.00  0.00     0.001 A 
HETATM   33  C   UNL     1      41.319  -9.282  12.696  1.00  0.00     0.001 A 
ENDBRANCH  22  23
ENDBRANCH  21  22
ENDBRANCH   2  21
TORSDOF 6
ENDMDL
MODEL 4
REMARK VINA RESULT:      -9.8      1.969     10.471
REMARK  6 active torsions:
REMARK  status: ('A' for Active; 'I' for Inactive)
REMARK    1  A    between atoms: C_8  and  C_9 
REMARK       I    between atoms: C_9  and  N_10 
REMARK    2  A    between atoms: N_10  and  N_11 
REMARK       I    between atoms: N_11  and  C_12 
REMARK    3  A    between atoms: C_12  and  C_13 
REMARK    4  A    between atoms: C_13  and  C_14 
REMARK    5  A    between atoms: C_14  and  N_15 
REMARK    6  A    between atoms: C_28  and  O_29 
ROOT
HETATM    1  N   UNL     1      44.395 -13.581   7.975  1.00  0.00    -0.267 N 
HETATM    2  C   UNL     1      45.528 -12.809   8.127  1.00  0.00     0.237 C 
HETATM    3  O   UNL     1      46.493 -12.902   7.370  1.00  0.00    -0.272 OA
HETATM    4  H   UNL     1      43.525 -13.420   8.482  1.00  0.00     0.190 HD
ENDROOT
BRANCH   1   5
HETATM    5  N   UNL     1      44.331 -14.426   6.862  1.00  0.00    -0.263 N 
HETATM    6  C   UNL     1      43.964 -15.740   7.057  1.00  0.00     0.272 C 
HETATM    7  O   UNL     1      43.743 -16.203   8.178  1.00  0.00    -0.266 OA
HETATM    8  H   UNL     1      44.322 -13.955   5.960  1.00  0.00     0.190 HD
BRANCH   6   9
HETATM    9  C   UNL     1      43.801 -16.603   5.851  1.00  0.00     0.067 A 
HETATM   10  C   UNL     1      44.372 -17.883   5.775  1.00  0.00     0.032 A 
HETATM   11  C   UNL     1      44.217 -18.680   4.625  1.00  0.00    -0.025 A 
HETATM   12  C   UNL     1      44.795 -19.957   4.538  1.00  0.00     0.012 A 
HETATM   13  C   UNL     1      43.462 -18.188   3.535  1.00  0.00    -0.023 A 
HETATM   14  C   UNL     1      44.633 -20.737   3.392  1.00  0.00     0.001 A 
HETATM   15  C   UNL     1      43.890 -20.253   2.319  1.00  0.00     0.001 A 
HETATM   16  C   UNL     1      43.308 -18.986   2.390  1.00  0.00     0.012 A 
HETATM   17  C   UNL     1      42.879 -16.917   3.623  1.00  0.00     0.049 A 
HETATM   18  C   UNL     1      43.043 -16.138   4.769  1.00  0.00     0.082 A 
BRANCH  18  19
HETATM   19  O   UNL     1      42.418 -14.918   4.753  1.00  0.00    -0.360 OA
HETATM   20  H   UNL     1      42.135 -14.708   5.671  1.00  0.00     0.217 HD
ENDBRANCH  18  19
ENDBRANCH   6   9
ENDBRANCH   1   5
BRANCH   2  21
HETATM   21  C   UNL     1      45.465 -11.865   9.302  1.00  0.00     0.125 C 
BRANCH  21  22
HETATM   22  C   UNL     1      44.238 -12.160  10.157  1.00  0.00     0.145 C 
BRANCH  22  23
HETATM   23  N   UNL     1      43.340 -11.024  10.228  1.00  0.00    -0.279 N 
HETATM   24  C   UNL     1      43.254 -10.181  11.302  1.00  0.00     0.261 A 
HETATM   25  O   UNL     1      43.884 -10.199  12.341  1.00  0.00    -0.267 OA
HETATM   26  C   UNL     1      42.237  -9.186  10.968  1.00  0.00     0.048 A 
HETATM   27  C   UNL     1      41.789  -9.458   9.688  1.00  0.00     0.048 A 
HETATM   28  C   UNL     1      41.739  -8.130  11.708  1.00  0.00     0.018 A 
HETATM   29  C   UNL     1      42.522 -10.627   9.204  1.00  0.00     0.261 A 
HETATM   30  C   UNL     1      40.817  -8.693   9.074  1.00  0.00     0.018 A 
HETATM   31  O   UNL     1      42.402 -11.100   8.091  1.00  0.00    -0.267 OA
HETATM   32  C   UNL     1      40.294  -7.620   9.805  1.00  0.00     0.001 A 
HETATM   33  C   UNL     1      40.752  -7.341  11.110  1.00  0.00     0.001 A 
ENDBRANCH  22  23
ENDBRANCH  21  22
ENDBRANCH   2  21
TORSDOF 6
ENDMDL
MODEL 5
REMARK VINA RESULT:      -9.8      2.082     10.583
REMARK  6 active torsions:
REMARK  status: ('A' for Active; 'I' for Inactive)
REMARK    1  A    between atoms: C_8  and  C_9 
REMARK       I    between atoms: C_9  and  N_10 
REMARK    2  A    between atoms: N_10  and  N_11 
REMARK       I    between atoms: N_11  and  C_12 
REMARK    3  A    between atoms: C_12  and  C_13 
REMARK    4  A    between atoms: C_13  and  C_14 
REMARK    5  A    between atoms: C_14  and  N_15 
REMARK    6  A    between atoms: C_28  and  O_29 
ROOT
HETATM    1  N   UNL     1      40.157 -14.007   6.248  1.00  0.00    -0.267 N 
HETATM    2  C   UNL     1      40.560 -12.691   6.341  1.00  0.00     0.237 C 
HETATM    3  O   UNL     1      41.596 -12.283   5.820  1.00  0.00    -0.272 OA
HETATM    4  H   UNL     1      39.237 -14.342   6.530  1.00  0.00     0.190 HD
ENDROOT
BRANCH   1   5
HETATM    5  N   UNL     1      40.925 -14.864   5.452  1.00  0.00    -0.263 N 
HETATM    6  C   UNL     1      40.886 -16.216   5.717  1.00  0.00     0.272 C 
HETATM    7  O   UNL     1      40.243 -16.685   6.659  1.00  0.00    -0.266 OA
HETATM    8  H   UNL     1      41.265 -14.460   4.581  1.00  0.00     0.190 HD
BRANCH   6   9
HETATM    9  C   UNL     1      41.628 -17.128   4.798  1.00  0.00     0.067 A 
HETATM   10  C   UNL     1      42.631 -17.991   5.264  1.00  0.00     0.032 A 
HETATM   11  C   UNL     1      43.328 -18.837   4.380  1.00  0.00    -0.025 A 
HETATM   12  C   UNL     1      44.340 -19.696   4.837  1.00  0.00     0.012 A 
HETATM   13  C   UNL     1      43.002 -18.826   3.004  1.00  0.00    -0.023 A 
HETATM   14  C   UNL     1      45.023 -20.530   3.951  1.00  0.00     0.001 A 
HETATM   15  C   UNL     1      44.703 -20.519   2.597  1.00  0.00     0.001 A 
HETATM   16  C   UNL     1      43.698 -19.672   2.126  1.00  0.00     0.012 A 
HETATM   17  C   UNL     1      41.987 -17.974   2.547  1.00  0.00     0.049 A 
HETATM   18  C   UNL     1      41.306 -17.141   3.434  1.00  0.00     0.082 A 
BRANCH  18  19
HETATM   19  O   UNL     1      40.323 -16.360   2.882  1.00  0.00    -0.360 OA
HETATM   20  H   UNL     1      40.752 -15.581   2.463  1.00  0.00     0.217 HD
ENDBRANCH  18  19
ENDBRANCH   6   9
ENDBRANCH   1   5
BRANCH   2  21
HETATM   21  C   UNL     1      39.620 -11.826   7.145  1.00  0.00     0.125 C 
BRANCH  21  22
HETATM   22  C   UNL     1      40.299 -10.516   7.529  1.00  0.00     0.145 C 
BRANCH  22  23
HETATM   23  N   UNL     1      40.806 -10.546   8.887  1.00  0.00    -0.279 N 
HETATM   24  C   UNL     1      42.131 -10.662   9.207  1.00  0.00     0.261 A 
HETATM   25  O   UNL     1      43.092 -10.740   8.468  1.00  0.00    -0.267 OA
HETATM   26  C   UNL     1      42.208 -10.655  10.666  1.00  0.00     0.048 A 
HETATM   27  C   UNL     1      40.922 -10.494  11.152  1.00  0.00     0.048 A 
HETATM   28  C   UNL     1      43.297 -10.776  11.507  1.00  0.00     0.018 A 
HETATM   29  C   UNL     1      40.025 -10.396  10.002  1.00  0.00     0.261 A 
HETATM   30  C   UNL     1      40.652 -10.447  12.505  1.00  0.00     0.018 A 
HETATM   31  O   UNL     1      38.829 -10.200  10.079  1.00  0.00    -0.267 OA
HETATM   32  C   UNL     1      41.738 -10.572  13.378  1.00  0.00     0.001 A 
HETATM   33  C   UNL     1      43.050 -10.734  12.883  1.00  0.00     0.001 A 
ENDBRANCH  22  23
ENDBRANCH  21  22
ENDBRANCH   2  21
TORSDOF 6
ENDMDL
MODEL 6
REMARK VINA RESULT:      -9.8      1.608      2.511
REMARK  6 active torsions:
REMARK  status: ('A' for Active; 'I' for Inactive)
REMARK    1  A    between atoms: C_8  and  C_9 
REMARK       I    between atoms: C_9  and  N_10 
REMARK    2  A    between atoms: N_10  and  N_11 
REMARK       I    between atoms: N_11  and  C_12 
REMARK    3  A    between atoms: C_12  and  C_13 
REMARK    4  A    between atoms: C_13  and  C_14 
REMARK    5  A    between atoms: C_14  and  N_15 
REMARK    6  A    between atoms: C_28  and  O_29 
ROOT
HETATM    1  N   UNL     1      43.509 -14.071   5.886  1.00  0.00    -0.267 N 
HETATM    2  C   UNL     1      43.104 -13.601   4.654  1.00  0.00     0.237 C 
HETATM    3  O   UNL     1      42.465 -12.558   4.527  1.00  0.00    -0.272 OA
HETATM    4  H   UNL     1      44.168 -14.839   6.014  1.00  0.00     0.190 HD
ENDROOT
BRANCH   1   5
HETATM    5  N   UNL     1      43.250 -13.269   7.002  1.00  0.00    -0.263 N 
HETATM    6  C   UNL     1      44.313 -12.868   7.783  1.00  0.00     0.272 C 
HETATM    7  O   UNL     1      45.469 -13.233   7.560  1.00  0.00    -0.266 OA
HETATM    8  H   UNL     1      42.328 -12.837   7.021  1.00  0.00     0.190 HD
BRANCH   6   9
HETATM    9  C   UNL     1      44.034 -11.930   8.910  1.00  0.00     0.067 A 
HETATM   10  C   UNL     1      42.944 -11.046   8.884  1.00  0.00     0.032 A 
HETATM   11  C   UNL     1      42.701 -10.162   9.952  1.00  0.00    -0.025 A 
HETATM   12  C   UNL     1      41.620  -9.266   9.928  1.00  0.00     0.012 A 
HETATM   13  C   UNL     1      43.562 -10.174  11.074  1.00  0.00    -0.023 A 
HETATM   14  C   UNL     1      41.390  -8.395  10.993  1.00  0.00     0.001 A 
HETATM   15  C   UNL     1      42.237  -8.407  12.098  1.00  0.00     0.001 A 
HETATM   16  C   UNL     1      43.317  -9.292  12.138  1.00  0.00     0.012 A 
HETATM   17  C   UNL     1      44.638 -11.071  11.103  1.00  0.00     0.049 A 
HETATM   18  C   UNL     1      44.866 -11.941  10.037  1.00  0.00     0.082 A 
BRANCH  18  19
HETATM   19  O   UNL     1      45.938 -12.785  10.176  1.00  0.00    -0.360 OA
HETATM   20  H   UNL     1      46.203 -13.092   9.281  1.00  0.00     0.217 HD
ENDBRANCH  18  19
ENDBRANCH   6   9
ENDBRANCH   1   5
BRANCH   2  21
HETATM   21  C   UNL     1      43.509 -14.490   3.504  1.00  0.00     0.125 C 
BRANCH  21  22
HETATM   22  C   UNL     1      42.423 -15.521   3.219  1.00  0.00     0.145 C 
BRANCH  22  23
HETATM   23  N   UNL     1      42.947 -16.873   3.212  1.00  0.00    -0.279 N 
HETATM   24  C   UNL     1      42.997 -17.669   2.101  1.00  0.00     0.261 A 
HETATM   25  O   UNL     1      42.654 -17.416   0.963  1.00  0.00    -0.267 OA
HETATM   26  C   UNL     1      43.585 -18.938   2.525  1.00  0.00     0.048 A 
HETATM   27  C   UNL     1      43.896 -18.826   3.869  1.00  0.00     0.048 A 
HETATM   28  C   UNL     1      43.832 -20.094   1.811  1.00  0.00     0.018 A 
HETATM   29  C   UNL     1      43.508 -17.485   4.301  1.00  0.00     0.261 A 
HETATM   30  C   UNL     1      44.470 -19.864   4.576  1.00  0.00     0.018 A 
HETATM   31  O   UNL     1      43.691 -17.044   5.418  1.00  0.00    -0.267 OA
HETATM   32  C   UNL     1      44.727 -21.048   3.875  1.00  0.00     0.001 A 
HETATM   33  C   UNL     1      44.412 -21.161   2.505  1.00  0.00     0.001 A 
ENDBRANCH  22  23
ENDBRANCH  21  22
ENDBRANCH   2  21
TORSDOF 6
ENDMDL
MODEL 7
REMARK VINA RESULT:      -9.6      1.752     10.404
REMARK  6 active torsions:
REMARK  status: ('A' for Active; 'I' for Inactive)
REMARK    1  A    between atoms: C_8  and  C_9 
REMARK       I    between atoms: C_9  and  N_10 
REMARK    2  A    between atoms: N_10  and  N_11 
REMARK       I    between atoms: N_11  and  C_12 
REMARK    3  A    between atoms: C_12  and  C_13 
REMARK    4  A    between atoms: C_13  and  C_14 
REMARK    5  A    between atoms: C_14  and  N_15 
REMARK    6  A    between atoms: C_28  and  O_29 
ROOT
HETATM    1  N   UNL     1      41.984 -14.271   6.249  1.00  0.00    -0.267 N 
HETATM    2  C   UNL     1      40.726 -13.828   5.900  1.00  0.00     0.237 C 
HETATM    3  O   UNL     1      39.938 -14.524   5.261  1.00  0.00    -0.272 OA
HETATM    4  H   UNL     1      42.597 -13.787   6.906  1.00  0.00     0.190 HD
ENDROOT
BRANCH   1   5
HETATM    5  N   UNL     1      42.317 -15.593   5.933  1.00  0.00    -0.263 N 
HETATM    6  C   UNL     1      43.112 -15.823   4.831  1.00  0.00     0.272 C 
HETATM    7  O   UNL     1      43.493 -14.913   4.091  1.00  0.00    -0.266 OA
HETATM    8  H   UNL     1      42.153 -16.271   6.675  1.00  0.00     0.190 HD
BRANCH   6   9
HETATM    9  C   UNL     1      43.542 -17.227   4.564  1.00  0.00     0.067 A 
HETATM   10  C   UNL     1      43.199 -17.893   3.377  1.00  0.00     0.032 A 
HETATM   11  C   UNL     1      43.605 -19.221   3.146  1.00  0.00    -0.025 A 
HETATM   12  C   UNL     1      43.256 -19.897   1.967  1.00  0.00     0.012 A 
HETATM   13  C   UNL     1      44.382 -19.889   4.120  1.00  0.00    -0.023 A 
HETATM   14  C   UNL     1      43.665 -21.213   1.750  1.00  0.00     0.001 A 
HETATM   15  C   UNL     1      44.430 -21.871   2.708  1.00  0.00     0.001 A 
HETATM   16  C   UNL     1      44.787 -21.213   3.887  1.00  0.00     0.012 A 
HETATM   17  C   UNL     1      44.737 -19.214   5.296  1.00  0.00     0.049 A 
HETATM   18  C   UNL     1      44.327 -17.899   5.511  1.00  0.00     0.082 A 
BRANCH  18  19
HETATM   19  O   UNL     1      44.742 -17.330   6.688  1.00  0.00    -0.360 OA
HETATM   20  H   UNL     1      45.585 -17.760   6.954  1.00  0.00     0.217 HD
ENDBRANCH  18  19
ENDBRANCH   6   9
ENDBRANCH   1   5
BRANCH   2  21
HETATM   21  C   UNL     1      40.428 -12.423   6.364  1.00  0.00     0.125 C 
BRANCH  21  22
HETATM   22  C   UNL     1      41.688 -11.566   6.310  1.00  0.00     0.145 C 
BRANCH  22  23
HETATM   23  N   UNL     1      42.097 -11.120   7.629  1.00  0.00    -0.279 N 
HETATM   24  C   UNL     1      41.413 -10.196   8.370  1.00  0.00     0.261 A 
HETATM   25  O   UNL     1      40.382  -9.611   8.101  1.00  0.00    -0.267 OA
HETATM   26  C   UNL     1      42.157 -10.032   9.617  1.00  0.00     0.048 A 
HETATM   27  C   UNL     1      43.233 -10.900   9.580  1.00  0.00     0.048 A 
HETATM   28  C   UNL     1      41.924  -9.203  10.697  1.00  0.00     0.018 A 
HETATM   29  C   UNL     1      43.176 -11.620   8.308  1.00  0.00     0.261 A 
HETATM   30  C   UNL     1      44.139 -10.988  10.618  1.00  0.00     0.018 A 
HETATM   31  O   UNL     1      43.950 -12.496   7.979  1.00  0.00    -0.267 OA
HETATM   32  C   UNL     1      43.927 -10.155  11.722  1.00  0.00     0.001 A 
HETATM   33  C   UNL     1      42.828  -9.271  11.761  1.00  0.00     0.001 A 
ENDBRANCH  22  23
ENDBRANCH  21  22
ENDBRANCH   2  21
TORSDOF 6
ENDMDL
MODEL 8
REMARK VINA RESULT:      -9.6      1.452     10.845
REMARK  6 active torsions:
REMARK  status: ('A' for Active; 'I' for Inactive)
REMARK    1  A    between atoms: C_8  and  C_9 
REMARK       I    between atoms: C_9  and  N_10 
REMARK    2  A    between atoms: N_10  and  N_11 
REMARK       I    between atoms: N_11  and  C_12 
REMARK    3  A    between atoms: C_12  and  C_13 
REMARK    4  A    between atoms: C_13  and  C_14 
REMARK    5  A    between atoms: C_14  and  N_15 
REMARK    6  A    between atoms: C_28  and  O_29 
ROOT
HETATM    1  N   UNL     1      42.883 -14.543   6.242  1.00  0.00    -0.267 N 
HETATM    2  C   UNL     1      44.028 -14.074   6.853  1.00  0.00     0.237 C 
HETATM    3  O   UNL     1      45.047 -14.756   6.948  1.00  0.00    -0.272 OA
HETATM    4  H   UNL     1      42.082 -13.957   6.008  1.00  0.00     0.190 HD
ENDROOT
BRANCH   1   5
HETATM    5  N   UNL     1      42.940 -15.804   5.640  1.00  0.00    -0.263 N 
HETATM    6  C   UNL     1      43.131 -15.872   4.277  1.00  0.00     0.272 C 
HETATM    7  O   UNL     1      43.200 -14.864   3.570  1.00  0.00    -0.266 OA
HETATM    8  H   UNL     1      43.082 -16.584   6.279  1.00  0.00     0.190 HD
BRANCH   6   9
HETATM    9  C   UNL     1      43.291 -17.223   3.663  1.00  0.00     0.067 A 
HETATM   10  C   UNL     1      43.913 -18.278   4.349  1.00  0.00     0.032 A 
HETATM   11  C   UNL     1      44.065 -19.543   3.751  1.00  0.00    -0.025 A 
HETATM   12  C   UNL     1      44.695 -20.599   4.426  1.00  0.00     0.012 A 
HETATM   13  C   UNL     1      43.571 -19.757   2.443  1.00  0.00    -0.023 A 
HETATM   14  C   UNL     1      44.839 -21.849   3.823  1.00  0.00     0.001 A 
HETATM   15  C   UNL     1      44.353 -22.061   2.535  1.00  0.00     0.001 A 
HETATM   16  C   UNL     1      43.723 -21.021   1.849  1.00  0.00     0.012 A 
HETATM   17  C   UNL     1      42.936 -18.706   1.769  1.00  0.00     0.049 A 
HETATM   18  C   UNL     1      42.793 -17.457   2.374  1.00  0.00     0.082 A 
BRANCH  18  19
HETATM   19  O   UNL     1      42.144 -16.506   1.631  1.00  0.00    -0.360 OA
HETATM   20  H   UNL     1      41.741 -16.949   0.851  1.00  0.00     0.217 HD
ENDBRANCH  18  19
ENDBRANCH   6   9
ENDBRANCH   1   5
BRANCH   2  21
HETATM   21  C   UNL     1      43.896 -12.671   7.391  1.00  0.00     0.125 C 
BRANCH  21  22
HETATM   22  C   UNL     1      44.729 -12.505   8.657  1.00  0.00     0.145 C 
BRANCH  22  23
HETATM   23  N   UNL     1      43.997 -11.816   9.702  1.00  0.00    -0.279 N 
HETATM   24  C   UNL     1      44.081 -12.132  11.031  1.00  0.00     0.261 A 
HETATM   25  O   UNL     1      44.755 -12.986  11.573  1.00  0.00    -0.267 OA
HETATM   26  C   UNL     1      43.193 -11.209  11.733  1.00  0.00     0.048 A 
HETATM   27  C   UNL     1      42.647 -10.354  10.792  1.00  0.00     0.048 A 
HETATM   28  C   UNL     1      42.880 -11.113  13.076  1.00  0.00     0.018 A 
HETATM   29  C   UNL     1      43.190 -10.731   9.488  1.00  0.00     0.261 A 
HETATM   30  C   UNL     1      41.758  -9.356  11.137  1.00  0.00     0.018 A 
HETATM   31  O   UNL     1      42.951 -10.147   8.449  1.00  0.00    -0.267 OA
HETATM   32  C   UNL     1      41.422  -9.241  12.490  1.00  0.00     0.001 A 
HETATM   33  C   UNL     1      41.979 -10.111  13.451  1.00  0.00     0.001 A 
ENDBRANCH  22  23
ENDBRANCH  21  22
ENDBRANCH   2  21
TORSDOF 6
ENDMDL
MODEL 9
REMARK VINA RESULT:      -9.5      1.917     10.275
REMARK  6 active torsions:
REMARK  status: ('A' for Active; 'I' for Inactive)
REMARK    1  A    between atoms: C_8  and  C_9 
REMARK       I    between atoms: C_9  and  N_10 
REMARK    2  A    between atoms: N_10  and  N_11 
REMARK       I    between atoms: N_11  and  C_12 
REMARK    3  A    between atoms: C_12  and  C_13 
REMARK    4  A    between atoms: C_13  and  C_14 
REMARK    5  A    between atoms: C_14  and  N_15 
REMARK    6  A    between atoms: C_28  and  O_29 
ROOT
HETATM    1  N   UNL     1      41.668 -12.657   6.613  1.00  0.00    -0.267 N 
HETATM    2  C   UNL     1      40.356 -12.239   6.541  1.00  0.00     0.237 C 
HETATM    3  O   UNL     1      39.462 -12.954   6.092  1.00  0.00    -0.272 OA
HETATM    4  H   UNL     1      42.398 -12.156   7.119  1.00  0.00     0.190 HD
ENDROOT
BRANCH   1   5
HETATM    5  N   UNL     1      41.949 -13.976   6.240  1.00  0.00    -0.263 N 
HETATM    6  C   UNL     1      42.911 -14.194   5.278  1.00  0.00     0.272 C 
HETATM    7  O   UNL     1      43.490 -13.269   4.703  1.00  0.00    -0.266 OA
HETATM    8  H   UNL     1      41.601 -14.690   6.877  1.00  0.00     0.190 HD
BRANCH   6   9
HETATM    9  C   UNL     1      43.273 -15.607   4.963  1.00  0.00     0.067 A 
HETATM   10  C   UNL     1      43.139 -16.134   3.669  1.00  0.00     0.032 A 
HETATM   11  C   UNL     1      43.475 -17.472   3.392  1.00  0.00    -0.025 A 
HETATM   12  C   UNL     1      43.333 -18.010   2.103  1.00  0.00     0.012 A 
HETATM   13  C   UNL     1      43.969 -18.295   4.432  1.00  0.00    -0.023 A 
HETATM   14  C   UNL     1      43.671 -19.338   1.841  1.00  0.00     0.001 A 
HETATM   15  C   UNL     1      44.157 -20.148   2.865  1.00  0.00     0.001 A 
HETATM   16  C   UNL     1      44.305 -19.629   4.152  1.00  0.00     0.012 A 
HETATM   17  C   UNL     1      44.117 -17.759   5.718  1.00  0.00     0.049 A 
HETATM   18  C   UNL     1      43.779 -16.431   5.977  1.00  0.00     0.082 A 
BRANCH  18  19
HETATM   19  O   UNL     1      43.977 -16.006   7.266  1.00  0.00    -0.360 OA
HETATM   20  H   UNL     1      43.168 -15.531   7.559  1.00  0.00     0.217 HD
ENDBRANCH  18  19
ENDBRANCH   6   9
ENDBRANCH   1   5
BRANCH   2  21
HETATM   21  C   UNL     1      40.139 -10.835   7.050  1.00  0.00     0.125 C 
BRANCH  21  22
HETATM   22  C   UNL     1      41.469 -10.101   7.173  1.00  0.00     0.145 C 
BRANCH  22  23
HETATM   23  N   UNL     1      41.865  -9.923   8.557  1.00  0.00    -0.279 N 
HETATM   24  C   UNL     1      42.907 -10.584   9.146  1.00  0.00     0.261 A 
HETATM   25  O   UNL     1      43.676 -11.390   8.658  1.00  0.00    -0.267 OA
HETATM   26  C   UNL     1      42.961 -10.123  10.531  1.00  0.00     0.048 A 
HETATM   27  C   UNL     1      41.969  -9.173  10.695  1.00  0.00     0.048 A 
HETATM   28  C   UNL     1      43.799 -10.491  11.566  1.00  0.00     0.018 A 
HETATM   29  C   UNL     1      41.282  -9.027   9.413  1.00  0.00     0.261 A 
HETATM   30  C   UNL     1      41.756  -8.538  11.902  1.00  0.00     0.018 A 
HETATM   31  O   UNL     1      40.387  -8.233   9.199  1.00  0.00    -0.267 OA
HETATM   32  C   UNL     1      42.588  -8.897  12.968  1.00  0.00     0.001 A 
HETATM   33  C   UNL     1      43.602  -9.865  12.801  1.00  0.00     0.001 A 
ENDBRANCH  22  23
ENDBRANCH  21  22
ENDBRANCH   2  21
TORSDOF 6
ENDMDL
MODEL 10
REMARK VINA RESULT:      -9.5      2.202     10.461
REMARK  6 active torsions:
REMARK  status: ('A' for Active; 'I' for Inactive)
REMARK    1  A    between atoms: C_8  and  C_9 
REMARK       I    between atoms: C_9  and  N_10 
REMARK    2  A    between atoms: N_10  and  N_11 
REMARK       I    between atoms: N_11  and  C_12 
REMARK    3  A    between atoms: C_12  and  C_13 
REMARK    4  A    between atoms: C_13  and  C_14 
REMARK    5  A    between atoms: C_14  and  N_15 
REMARK    6  A    between atoms: C_28  and  O_29 
ROOT
HETATM    1  N   UNL     1      44.332 -13.305   8.276  1.00  0.00    -0.267 N 
HETATM    2  C   UNL     1      45.483 -12.563   8.443  1.00  0.00     0.237 C 
HETATM    3  O   UNL     1      46.479 -12.729   7.742  1.00  0.00    -0.272 OA
HETATM    4  H   UNL     1      43.444 -13.090   8.729  1.00  0.00     0.190 HD
ENDROOT
BRANCH   1   5
HETATM    5  N   UNL     1      44.293 -14.207   7.207  1.00  0.00    -0.263 N 
HETATM    6  C   UNL     1      43.395 -13.977   6.187  1.00  0.00     0.272 C 
HETATM    7  O   UNL     1      42.596 -13.038   6.211  1.00  0.00    -0.266 OA
HETATM    8  H   UNL     1      45.095 -14.831   7.137  1.00  0.00     0.190 HD
BRANCH   6   9
HETATM    9  C   UNL     1      43.435 -14.889   5.007  1.00  0.00     0.067 A 
HETATM   10  C   UNL     1      43.415 -16.285   5.149  1.00  0.00     0.032 A 
HETATM   11  C   UNL     1      43.463 -17.130   4.025  1.00  0.00    -0.025 A 
HETATM   12  C   UNL     1      43.455 -18.528   4.160  1.00  0.00     0.012 A 
HETATM   13  C   UNL     1      43.518 -16.563   2.731  1.00  0.00    -0.023 A 
HETATM   14  C   UNL     1      43.502 -19.355   3.037  1.00  0.00     0.001 A 
HETATM   15  C   UNL     1      43.557 -18.797   1.763  1.00  0.00     0.001 A 
HETATM   16  C   UNL     1      43.565 -17.409   1.610  1.00  0.00     0.012 A 
HETATM   17  C   UNL     1      43.520 -15.169   2.592  1.00  0.00     0.049 A 
HETATM   18  C   UNL     1      43.473 -14.344   3.716  1.00  0.00     0.082 A 
BRANCH  18  19
HETATM   19  O   UNL     1      43.465 -12.996   3.465  1.00  0.00    -0.360 OA
HETATM   20  H   UNL     1      44.299 -12.767   2.997  1.00  0.00     0.217 HD
ENDBRANCH  18  19
ENDBRANCH   6   9
ENDBRANCH   1   5
BRANCH   2  21
HETATM   21  C   UNL     1      45.395 -11.555   9.562  1.00  0.00     0.125 C 
BRANCH  21  22
HETATM   22  C   UNL     1      44.232 -11.888  10.490  1.00  0.00     0.145 C 
BRANCH  22  23
HETATM   23  N   UNL     1      43.290 -10.790  10.594  1.00  0.00    -0.279 N 
HETATM   24  C   UNL     1      42.604 -10.267   9.532  1.00  0.00     0.261 A 
HETATM   25  O   UNL     1      42.629 -10.604   8.365  1.00  0.00    -0.267 OA
HETATM   26  C   UNL     1      41.774  -9.189  10.065  1.00  0.00     0.048 A 
HETATM   27  C   UNL     1      41.974  -9.144  11.433  1.00  0.00     0.048 A 
HETATM   28  C   UNL     1      40.916  -8.317   9.422  1.00  0.00     0.018 A 
HETATM   29  C   UNL     1      42.930 -10.196  11.774  1.00  0.00     0.261 A 
HETATM   30  C   UNL     1      41.329  -8.225  12.237  1.00  0.00     0.018 A 
HETATM   31  O   UNL     1      43.287 -10.460  12.905  1.00  0.00    -0.267 OA
HETATM   32  C   UNL     1      40.457  -7.329  11.610  1.00  0.00     0.001 A 
HETATM   33  C   UNL     1      40.252  -7.375  10.214  1.00  0.00     0.001 A 
ENDBRANCH  22  23
ENDBRANCH  21  22
ENDBRANCH   2  21
TORSDOF 6
ENDMDL
