MODEL 1
REMARK VINA RESULT:      -8.5      0.000      0.000
REMARK  5 active torsions:
REMARK  status: ('A' for Active; 'I' for Inactive)
REMARK    1  A    between atoms: C_4  and  O_5 
REMARK    2  A    between atoms: O_5  and  C_6 
REMARK    3  A    between atoms: C_6  and  C_7 
REMARK       I    between atoms: C_7  and  N_8 
REMARK    4  A    between atoms: N_8  and  N_9 
REMARK    5  A    between atoms: C_10  and  C_11 
ROOT
HETATM    1  C   UNL     1      44.822 -13.250   7.757  1.00  0.00     0.261 C 
HETATM    2  N   UNL     1      43.936 -14.273   7.430  1.00  0.00    -0.246 N 
HETATM    3  O   UNL     1      46.018 -13.206   7.477  1.00  0.00    -0.269 OA
HETATM    4  H   UNL     1      43.053 -14.290   7.937  1.00  0.00     0.192 HD
ENDROOT
BRANCH   2   5
HETATM    5  N   UNL     1      44.241 -15.451   6.788  1.00  0.00    -0.184 NA
HETATM    6  C   UNL     1      43.275 -16.198   6.357  1.00  0.00     0.153 C 
BRANCH   6   7
HETATM    7  C   UNL     1      43.552 -17.434   5.643  1.00  0.00     0.018 A 
HETATM    8  C   UNL     1      43.612 -17.566   4.214  1.00  0.00     0.004 A 
HETATM    9  C   UNL     1      43.887 -18.901   3.927  1.00  0.00     0.043 A 
HETATM   10  C   UNL     1      43.469 -16.664   3.136  1.00  0.00     0.014 A 
HETATM   11  C   UNL     1      44.016 -19.385   2.619  1.00  0.00     0.030 A 
HETATM   12  N   UNL     1      43.993 -19.558   5.130  1.00  0.00    -0.358 N 
HETATM   13  C   UNL     1      43.865 -18.473   1.571  1.00  0.00     0.002 A 
HETATM   14  C   UNL     1      43.597 -17.130   1.824  1.00  0.00     0.001 A 
HETATM   15  H   UNL     1      44.189 -20.544   5.221  1.00  0.00     0.166 HD
HETATM   16  C   UNL     1      43.792 -18.692   6.177  1.00  0.00     0.018 A 
HETATM   17  C   UNL     1      43.842 -19.167   7.586  1.00  0.00     0.069 C 
ENDBRANCH   6   7
ENDBRANCH   2   5
BRANCH   1  18
HETATM   18  C   UNL     1      44.135 -12.073   8.441  1.00  0.00     0.280 C 
BRANCH  18  19
HETATM   19  O   UNL     1      44.228 -12.167   9.860  1.00  0.00    -0.342 OA
BRANCH  19  20
HETATM   20  C   UNL     1      43.562 -11.180  10.539  1.00  0.00     0.069 A 
HETATM   21  C   UNL     1      43.851 -10.775  11.846  1.00  0.00     0.043 A 
HETATM   22  C   UNL     1      43.101  -9.762  12.461  1.00  0.00    -0.059 A 
HETATM   23  C   UNL     1      43.425  -9.313  13.856  1.00  0.00     0.048 C 
HETATM   24  C   UNL     1      42.080  -9.134  11.739  1.00  0.00     0.007 A 
HETATM   25  C   UNL     1      41.805  -9.521  10.428  1.00  0.00     0.003 A 
HETATM   26  C   UNL     1      42.548 -10.538   9.829  1.00  0.00     0.037 A 
ENDBRANCH  19  20
ENDBRANCH  18  19
ENDBRANCH   1  18
TORSDOF 5
ENDMDL
MODEL 2
REMARK VINA RESULT:      -8.5      5.870      9.767
REMARK  5 active torsions:
REMARK  status: ('A' for Active; 'I' for Inactive)
REMARK    1  A    between atoms: C_4  and  O_5 
REMARK    2  A    between atoms: O_5  and  C_6 
REMARK    3  A    between atoms: C_6  and  C_7 
REMARK       I    between atoms: C_7  and  N_8 
REMARK    4  A    between atoms: N_8  and  N_9 
REMARK    5  A    between atoms: C_10  and  C_11 
ROOT
HETATM    1  C   UNL     1      39.447 -14.942   2.092  1.00  0.00     0.261 C 
HETATM    2  N   UNL     1      39.970 -16.195   1.787  1.00  0.00    -0.246 N 
HETATM    3  O   UNL     1      39.666 -14.291   3.111  1.00  0.00    -0.269 OA
HETATM    4  H   UNL     1      39.510 -16.711   1.039  1.00  0.00     0.192 HD
ENDROOT
BRANCH   2   5
HETATM    5  N   UNL     1      40.779 -16.967   2.589  1.00  0.00    -0.184 NA
HETATM    6  C   UNL     1      42.031 -17.089   2.284  1.00  0.00     0.153 C 
BRANCH   6   7
HETATM    7  C   UNL     1      42.929 -17.867   3.123  1.00  0.00     0.018 A 
HETATM    8  C   UNL     1      43.359 -19.209   2.848  1.00  0.00     0.004 A 
HETATM    9  C   UNL     1      44.197 -19.603   3.890  1.00  0.00     0.043 A 
HETATM   10  C   UNL     1      43.120 -20.123   1.798  1.00  0.00     0.014 A 
HETATM   11  C   UNL     1      44.800 -20.866   3.943  1.00  0.00     0.030 A 
HETATM   12  N   UNL     1      44.277 -18.545   4.763  1.00  0.00    -0.358 N 
HETATM   13  C   UNL     1      44.544 -21.753   2.894  1.00  0.00     0.002 A 
HETATM   14  C   UNL     1      43.717 -21.388   1.834  1.00  0.00     0.001 A 
HETATM   15  H   UNL     1      44.821 -18.553   5.614  1.00  0.00     0.166 HD
HETATM   16  C   UNL     1      43.519 -17.488   4.321  1.00  0.00     0.018 A 
HETATM   17  C   UNL     1      43.430 -16.226   5.102  1.00  0.00     0.069 C 
ENDBRANCH   6   7
ENDBRANCH   2   5
BRANCH   1  18
HETATM   18  C   UNL     1      38.613 -14.360   0.956  1.00  0.00     0.280 C 
BRANCH  18  19
HETATM   19  O   UNL     1      39.432 -13.714  -0.014  1.00  0.00    -0.342 OA
BRANCH  19  20
HETATM   20  C   UNL     1      39.336 -14.237  -1.277  1.00  0.00     0.069 A 
HETATM   21  C   UNL     1      38.196 -14.172  -2.086  1.00  0.00     0.043 A 
HETATM   22  C   UNL     1      38.192 -14.753  -3.362  1.00  0.00    -0.059 A 
HETATM   23  C   UNL     1      36.975 -14.665  -4.236  1.00  0.00     0.048 C 
HETATM   24  C   UNL     1      39.356 -15.369  -3.836  1.00  0.00     0.007 A 
HETATM   25  C   UNL     1      40.502 -15.415  -3.041  1.00  0.00     0.003 A 
HETATM   26  C   UNL     1      40.492 -14.845  -1.768  1.00  0.00     0.037 A 
ENDBRANCH  19  20
ENDBRANCH  18  19
ENDBRANCH   1  18
TORSDOF 5
ENDMDL
MODEL 3
REMARK VINA RESULT:      -8.5      1.355      2.150
REMARK  5 active torsions:
REMARK  status: ('A' for Active; 'I' for Inactive)
REMARK    1  A    between atoms: C_4  and  O_5 
REMARK    2  A    between atoms: O_5  and  C_6 
REMARK    3  A    between atoms: C_6  and  C_7 
REMARK       I    between atoms: C_7  and  N_8 
REMARK    4  A    between atoms: N_8  and  N_9 
REMARK    5  A    between atoms: C_10  and  C_11 
ROOT
HETATM    1  C   UNL     1      44.947 -13.570   7.499  1.00  0.00     0.261 C 
HETATM    2  N   UNL     1      43.882 -14.402   7.169  1.00  0.00    -0.246 N 
HETATM    3  O   UNL     1      45.885 -13.263   6.766  1.00  0.00    -0.269 OA
HETATM    4  H   UNL     1      43.325 -14.759   7.945  1.00  0.00     0.192 HD
ENDROOT
BRANCH   2   5
HETATM    5  N   UNL     1      43.707 -15.086   5.989  1.00  0.00    -0.184 NA
HETATM    6  C   UNL     1      43.080 -16.219   6.006  1.00  0.00     0.153 C 
BRANCH   6   7
HETATM    7  C   UNL     1      42.843 -16.957   4.776  1.00  0.00     0.018 A 
HETATM    8  C   UNL     1      43.517 -18.167   4.397  1.00  0.00     0.004 A 
HETATM    9  C   UNL     1      43.021 -18.552   3.153  1.00  0.00     0.043 A 
HETATM   10  C   UNL     1      44.499 -18.978   5.008  1.00  0.00     0.014 A 
HETATM   11  C   UNL     1      43.463 -19.699   2.482  1.00  0.00     0.030 A 
HETATM   12  N   UNL     1      42.081 -17.618   2.788  1.00  0.00    -0.358 N 
HETATM   13  C   UNL     1      44.438 -20.482   3.106  1.00  0.00     0.002 A 
HETATM   14  C   UNL     1      44.949 -20.129   4.353  1.00  0.00     0.001 A 
HETATM   15  H   UNL     1      41.558 -17.649   1.925  1.00  0.00     0.166 HD
HETATM   16  C   UNL     1      41.959 -16.646   3.752  1.00  0.00     0.018 A 
HETATM   17  C   UNL     1      41.013 -15.512   3.583  1.00  0.00     0.069 C 
ENDBRANCH   6   7
ENDBRANCH   2   5
BRANCH   1  18
HETATM   18  C   UNL     1      44.802 -12.950   8.885  1.00  0.00     0.280 C 
BRANCH  18  19
HETATM   19  O   UNL     1      44.821 -11.527   8.825  1.00  0.00    -0.342 OA
BRANCH  19  20
HETATM   20  C   UNL     1      43.938 -10.911   9.673  1.00  0.00     0.069 A 
HETATM   21  C   UNL     1      44.203 -10.591  11.009  1.00  0.00     0.043 A 
HETATM   22  C   UNL     1      43.226  -9.972  11.802  1.00  0.00    -0.059 A 
HETATM   23  C   UNL     1      43.518  -9.611  13.229  1.00  0.00     0.048 C 
HETATM   24  C   UNL     1      41.990  -9.644  11.232  1.00  0.00     0.007 A 
HETATM   25  C   UNL     1      41.732  -9.941   9.894  1.00  0.00     0.003 A 
HETATM   26  C   UNL     1      42.706 -10.568   9.116  1.00  0.00     0.037 A 
ENDBRANCH  19  20
ENDBRANCH  18  19
ENDBRANCH   1  18
TORSDOF 5
ENDMDL
MODEL 4
REMARK VINA RESULT:      -8.5      5.702      8.523
REMARK  5 active torsions:
REMARK  status: ('A' for Active; 'I' for Inactive)
REMARK    1  A    between atoms: C_4  and  O_5 
REMARK    2  A    between atoms: O_5  and  C_6 
REMARK    3  A    between atoms: C_6  and  C_7 
REMARK       I    between atoms: C_7  and  N_8 
REMARK    4  A    between atoms: N_8  and  N_9 
REMARK    5  A    between atoms: C_10  and  C_11 
ROOT
HETATM    1  C   UNL     1      42.788 -13.783   2.520  1.00  0.00     0.261 C 
HETATM    2  N   UNL     1      42.697 -15.144   2.246  1.00  0.00    -0.246 N 
HETATM    3  O   UNL     1      43.579 -13.248   3.294  1.00  0.00    -0.269 OA
HETATM    4  H   UNL     1      41.845 -15.459   1.784  1.00  0.00     0.192 HD
ENDROOT
BRANCH   2   5
HETATM    5  N   UNL     1      43.428 -16.152   2.829  1.00  0.00    -0.184 NA
HETATM    6  C   UNL     1      42.809 -17.195   3.284  1.00  0.00     0.153 C 
BRANCH   6   7
HETATM    7  C   UNL     1      43.546 -18.298   3.877  1.00  0.00     0.018 A 
HETATM    8  C   UNL     1      43.756 -19.577   3.259  1.00  0.00     0.004 A 
HETATM    9  C   UNL     1      44.493 -20.358   4.148  1.00  0.00     0.043 A 
HETATM   10  C   UNL     1      43.394 -20.140   2.015  1.00  0.00     0.014 A 
HETATM   11  C   UNL     1      44.879 -21.674   3.864  1.00  0.00     0.030 A 
HETATM   12  N   UNL     1      44.726 -19.587   5.262  1.00  0.00    -0.358 N 
HETATM   13  C   UNL     1      44.504 -22.207   2.628  1.00  0.00     0.002 A 
HETATM   14  C   UNL     1      43.774 -21.452   1.714  1.00  0.00     0.001 A 
HETATM   15  H   UNL     1      45.241 -19.902   6.071  1.00  0.00     0.166 HD
HETATM   16  C   UNL     1      44.162 -18.342   5.120  1.00  0.00     0.018 A 
HETATM   17  C   UNL     1      44.265 -17.325   6.201  1.00  0.00     0.069 C 
ENDBRANCH   6   7
ENDBRANCH   2   5
BRANCH   1  18
HETATM   18  C   UNL     1      41.846 -12.945   1.662  1.00  0.00     0.280 C 
BRANCH  18  19
HETATM   19  O   UNL     1      42.564 -12.146   0.727  1.00  0.00    -0.342 OA
BRANCH  19  20
HETATM   20  C   UNL     1      42.338 -12.468  -0.586  1.00  0.00     0.069 A 
HETATM   21  C   UNL     1      41.755 -13.660  -1.028  1.00  0.00     0.043 A 
HETATM   22  C   UNL     1      41.578 -13.904  -2.397  1.00  0.00    -0.059 A 
HETATM   23  C   UNL     1      40.934 -15.175  -2.869  1.00  0.00     0.048 C 
HETATM   24  C   UNL     1      41.959 -12.923  -3.320  1.00  0.00     0.007 A 
HETATM   25  C   UNL     1      42.520 -11.724  -2.881  1.00  0.00     0.003 A 
HETATM   26  C   UNL     1      42.703 -11.496  -1.517  1.00  0.00     0.037 A 
ENDBRANCH  19  20
ENDBRANCH  18  19
ENDBRANCH   1  18
TORSDOF 5
ENDMDL
MODEL 5
REMARK VINA RESULT:      -8.4      5.710      7.692
REMARK  5 active torsions:
REMARK  status: ('A' for Active; 'I' for Inactive)
REMARK    1  A    between atoms: C_4  and  O_5 
REMARK    2  A    between atoms: O_5  and  C_6 
REMARK    3  A    between atoms: C_6  and  C_7 
REMARK       I    between atoms: C_7  and  N_8 
REMARK    4  A    between atoms: N_8  and  N_9 
REMARK    5  A    between atoms: C_10  and  C_11 
ROOT
HETATM    1  C   UNL     1      43.271 -13.938   3.125  1.00  0.00     0.261 C 
HETATM    2  N   UNL     1      42.889 -15.237   2.806  1.00  0.00    -0.246 N 
HETATM    3  O   UNL     1      44.335 -13.598   3.638  1.00  0.00    -0.269 OA
HETATM    4  H   UNL     1      41.898 -15.388   2.622  1.00  0.00     0.192 HD
ENDROOT
BRANCH   2   5
HETATM    5  N   UNL     1      43.598 -16.389   3.056  1.00  0.00    -0.184 NA
HETATM    6  C   UNL     1      43.191 -17.185   3.992  1.00  0.00     0.153 C 
BRANCH   6   7
HETATM    7  C   UNL     1      43.892 -18.430   4.266  1.00  0.00     0.018 A 
HETATM    8  C   UNL     1      43.874 -19.590   3.421  1.00  0.00     0.004 A 
HETATM    9  C   UNL     1      44.652 -20.570   4.035  1.00  0.00     0.043 A 
HETATM   10  C   UNL     1      43.275 -19.893   2.178  1.00  0.00     0.014 A 
HETATM   11  C   UNL     1      44.853 -21.839   3.479  1.00  0.00     0.030 A 
HETATM   12  N   UNL     1      45.127 -20.030   5.206  1.00  0.00    -0.358 N 
HETATM   13  C   UNL     1      44.245 -22.114   2.251  1.00  0.00     0.002 A 
HETATM   14  C   UNL     1      43.468 -21.155   1.606  1.00  0.00     0.001 A 
HETATM   15  H   UNL     1      45.722 -20.522   5.857  1.00  0.00     0.166 HD
HETATM   16  C   UNL     1      44.679 -18.741   5.366  1.00  0.00     0.018 A 
HETATM   17  C   UNL     1      45.046 -17.943   6.567  1.00  0.00     0.069 C 
ENDBRANCH   6   7
ENDBRANCH   2   5
BRANCH   1  18
HETATM   18  C   UNL     1      42.253 -12.896   2.673  1.00  0.00     0.280 C 
BRANCH  18  19
HETATM   19  O   UNL     1      42.381 -12.610   1.283  1.00  0.00    -0.342 OA
BRANCH  19  20
HETATM   20  C   UNL     1      41.341 -13.061   0.513  1.00  0.00     0.069 A 
HETATM   21  C   UNL     1      40.044 -13.299   0.981  1.00  0.00     0.043 A 
HETATM   22  C   UNL     1      39.049 -13.775   0.116  1.00  0.00    -0.059 A 
HETATM   23  C   UNL     1      37.653 -14.011   0.614  1.00  0.00     0.048 C 
HETATM   24  C   UNL     1      39.357 -13.975  -1.235  1.00  0.00     0.007 A 
HETATM   25  C   UNL     1      40.643 -13.716  -1.709  1.00  0.00     0.003 A 
HETATM   26  C   UNL     1      41.630 -13.255  -0.837  1.00  0.00     0.037 A 
ENDBRANCH  19  20
ENDBRANCH  18  19
ENDBRANCH   1  18
TORSDOF 5
ENDMDL
MODEL 6
REMARK VINA RESULT:      -8.0      6.254      9.221
REMARK  5 active torsions:
REMARK  status: ('A' for Active; 'I' for Inactive)
REMARK    1  A    between atoms: C_4  and  O_5 
REMARK    2  A    between atoms: O_5  and  C_6 
REMARK    3  A    between atoms: C_6  and  C_7 
REMARK       I    between atoms: C_7  and  N_8 
REMARK    4  A    between atoms: N_8  and  N_9 
REMARK    5  A    between atoms: C_10  and  C_11 
ROOT
HETATM    1  C   UNL     1      41.395 -15.516   0.215  1.00  0.00     0.261 C 
HETATM    2  N   UNL     1      42.488 -16.366   0.075  1.00  0.00    -0.246 N 
HETATM    3  O   UNL     1      40.904 -15.132   1.274  1.00  0.00    -0.269 OA
HETATM    4  H   UNL     1      42.622 -16.788  -0.842  1.00  0.00     0.192 HD
ENDROOT
BRANCH   2   5
HETATM    5  N   UNL     1      43.186 -16.983   1.087  1.00  0.00    -0.184 NA
HETATM    6  C   UNL     1      42.557 -17.791   1.881  1.00  0.00     0.153 C 
BRANCH   6   7
HETATM    7  C   UNL     1      43.263 -18.490   2.942  1.00  0.00     0.018 A 
HETATM    8  C   UNL     1      43.710 -19.853   2.876  1.00  0.00     0.004 A 
HETATM    9  C   UNL     1      44.327 -20.152   4.090  1.00  0.00     0.043 A 
HETATM   10  C   UNL     1      43.657 -20.860   1.886  1.00  0.00     0.014 A 
HETATM   11  C   UNL     1      44.883 -21.407   4.370  1.00  0.00     0.030 A 
HETATM   12  N   UNL     1      44.261 -19.018   4.864  1.00  0.00    -0.358 N 
HETATM   13  C   UNL     1      44.813 -22.385   3.375  1.00  0.00     0.002 A 
HETATM   14  C   UNL     1      44.210 -22.117   2.148  1.00  0.00     0.001 A 
HETATM   15  H   UNL     1      44.633 -18.950   5.800  1.00  0.00     0.166 HD
HETATM   16  C   UNL     1      43.622 -18.005   4.191  1.00  0.00     0.018 A 
HETATM   17  C   UNL     1      43.413 -16.676   4.825  1.00  0.00     0.069 C 
ENDBRANCH   6   7
ENDBRANCH   2   5
BRANCH   1  18
HETATM   18  C   UNL     1      40.886 -14.985  -1.121  1.00  0.00     0.280 C 
BRANCH  18  19
HETATM   19  O   UNL     1      40.389 -13.656  -0.999  1.00  0.00    -0.342 OA
BRANCH  19  20
HETATM   20  C   UNL     1      41.219 -12.691  -1.509  1.00  0.00     0.069 A 
HETATM   21  C   UNL     1      41.370 -12.405  -2.870  1.00  0.00     0.043 A 
HETATM   22  C   UNL     1      42.257 -11.405  -3.295  1.00  0.00    -0.059 A 
HETATM   23  C   UNL     1      42.404 -11.085  -4.754  1.00  0.00     0.048 C 
HETATM   24  C   UNL     1      42.965 -10.669  -2.338  1.00  0.00     0.007 A 
HETATM   25  C   UNL     1      42.799 -10.937  -0.980  1.00  0.00     0.003 A 
HETATM   26  C   UNL     1      41.923 -11.942  -0.568  1.00  0.00     0.037 A 
ENDBRANCH  19  20
ENDBRANCH  18  19
ENDBRANCH   1  18
TORSDOF 5
ENDMDL
MODEL 7
REMARK VINA RESULT:      -7.8      7.295     10.598
REMARK  5 active torsions:
REMARK  status: ('A' for Active; 'I' for Inactive)
REMARK    1  A    between atoms: C_4  and  O_5 
REMARK    2  A    between atoms: O_5  and  C_6 
REMARK    3  A    between atoms: C_6  and  C_7 
REMARK       I    between atoms: C_7  and  N_8 
REMARK    4  A    between atoms: N_8  and  N_9 
REMARK    5  A    between atoms: C_10  and  C_11 
ROOT
HETATM    1  C   UNL     1      40.842 -16.108   2.106  1.00  0.00     0.261 C 
HETATM    2  N   UNL     1      41.497 -15.857   0.904  1.00  0.00    -0.246 N 
HETATM    3  O   UNL     1      39.851 -15.518   2.531  1.00  0.00    -0.269 OA
HETATM    4  H   UNL     1      42.433 -16.247   0.805  1.00  0.00     0.192 HD
ENDROOT
BRANCH   2   5
HETATM    5  N   UNL     1      41.200 -14.867  -0.004  1.00  0.00    -0.184 NA
HETATM    6  C   UNL     1      41.285 -15.130  -1.269  1.00  0.00     0.153 C 
BRANCH   6   7
HETATM    7  C   UNL     1      40.947 -14.123  -2.263  1.00  0.00     0.018 A 
HETATM    8  C   UNL     1      41.581 -12.841  -2.386  1.00  0.00     0.004 A 
HETATM    9  C   UNL     1      40.969 -12.169  -3.443  1.00  0.00     0.043 A 
HETATM   10  C   UNL     1      42.633 -12.193  -1.700  1.00  0.00     0.014 A 
HETATM   11  C   UNL     1      41.344 -10.881  -3.843  1.00  0.00     0.030 A 
HETATM   12  N   UNL     1      40.003 -13.007  -3.945  1.00  0.00    -0.358 N 
HETATM   13  C   UNL     1      42.384 -10.261  -3.144  1.00  0.00     0.002 A 
HETATM   14  C   UNL     1      43.022 -10.907  -2.088  1.00  0.00     0.001 A 
HETATM   15  H   UNL     1      39.400 -12.776  -4.722  1.00  0.00     0.166 HD
HETATM   16  C   UNL     1      39.971 -14.190  -3.247  1.00  0.00     0.018 A 
HETATM   17  C   UNL     1      38.998 -15.260  -3.592  1.00  0.00     0.069 C 
ENDBRANCH   6   7
ENDBRANCH   2   5
BRANCH   1  18
HETATM   18  C   UNL     1      41.419 -17.307   2.851  1.00  0.00     0.280 C 
BRANCH  18  19
HETATM   19  O   UNL     1      42.841 -17.257   2.898  1.00  0.00    -0.342 OA
BRANCH  19  20
HETATM   20  C   UNL     1      43.445 -18.467   3.118  1.00  0.00     0.069 A 
HETATM   21  C   UNL     1      43.450 -19.534   2.213  1.00  0.00     0.043 A 
HETATM   22  C   UNL     1      44.085 -20.742   2.536  1.00  0.00    -0.059 A 
HETATM   23  C   UNL     1      44.107 -21.879   1.557  1.00  0.00     0.048 C 
HETATM   24  C   UNL     1      44.748 -20.857   3.764  1.00  0.00     0.007 A 
HETATM   25  C   UNL     1      44.765 -19.787   4.658  1.00  0.00     0.003 A 
HETATM   26  C   UNL     1      44.119 -18.594   4.332  1.00  0.00     0.037 A 
ENDBRANCH  19  20
ENDBRANCH  18  19
ENDBRANCH   1  18
TORSDOF 5
ENDMDL
MODEL 8
REMARK VINA RESULT:      -7.8      1.449      2.785
REMARK  5 active torsions:
REMARK  status: ('A' for Active; 'I' for Inactive)
REMARK    1  A    between atoms: C_4  and  O_5 
REMARK    2  A    between atoms: O_5  and  C_6 
REMARK    3  A    between atoms: C_6  and  C_7 
REMARK       I    between atoms: C_7  and  N_8 
REMARK    4  A    between atoms: N_8  and  N_9 
REMARK    5  A    between atoms: C_10  and  C_11 
ROOT
HETATM    1  C   UNL     1      44.946 -13.116   8.259  1.00  0.00     0.261 C 
HETATM    2  N   UNL     1      44.014 -13.883   7.567  1.00  0.00    -0.246 N 
HETATM    3  O   UNL     1      46.042 -12.749   7.839  1.00  0.00    -0.269 OA
HETATM    4  H   UNL     1      43.275 -14.312   8.122  1.00  0.00     0.192 HD
ENDROOT
BRANCH   2   5
HETATM    5  N   UNL     1      44.162 -14.425   6.312  1.00  0.00    -0.184 NA
HETATM    6  C   UNL     1      43.172 -15.073   5.787  1.00  0.00     0.153 C 
BRANCH   6   7
HETATM    7  C   UNL     1      43.274 -15.632   4.449  1.00  0.00     0.018 A 
HETATM    8  C   UNL     1      43.571 -17.005   4.149  1.00  0.00     0.004 A 
HETATM    9  C   UNL     1      43.593 -17.137   2.761  1.00  0.00     0.043 A 
HETATM   10  C   UNL     1      43.812 -18.154   4.934  1.00  0.00     0.014 A 
HETATM   11  C   UNL     1      43.854 -18.353   2.118  1.00  0.00     0.030 A 
HETATM   12  N   UNL     1      43.319 -15.897   2.236  1.00  0.00    -0.358 N 
HETATM   13  C   UNL     1      44.093 -19.473   2.919  1.00  0.00     0.002 A 
HETATM   14  C   UNL     1      44.071 -19.378   4.308  1.00  0.00     0.001 A 
HETATM   15  H   UNL     1      43.270 -15.699   1.246  1.00  0.00     0.166 HD
HETATM   16  C   UNL     1      43.125 -14.975   3.236  1.00  0.00     0.018 A 
HETATM   17  C   UNL     1      42.827 -13.552   2.921  1.00  0.00     0.069 C 
ENDBRANCH   6   7
ENDBRANCH   2   5
BRANCH   1  18
HETATM   18  C   UNL     1      44.436 -12.654   9.619  1.00  0.00     0.280 C 
BRANCH  18  19
HETATM   19  O   UNL     1      44.796 -11.300   9.879  1.00  0.00    -0.342 OA
BRANCH  19  20
HETATM   20  C   UNL     1      43.816 -10.558  10.485  1.00  0.00     0.069 A 
HETATM   21  C   UNL     1      42.631 -10.143   9.867  1.00  0.00     0.043 A 
HETATM   22  C   UNL     1      41.693  -9.372  10.568  1.00  0.00    -0.059 A 
HETATM   23  C   UNL     1      40.413  -8.944   9.911  1.00  0.00     0.048 C 
HETATM   24  C   UNL     1      41.938  -9.051  11.908  1.00  0.00     0.007 A 
HETATM   25  C   UNL     1      43.107  -9.483  12.533  1.00  0.00     0.003 A 
HETATM   26  C   UNL     1      44.040 -10.239  11.824  1.00  0.00     0.037 A 
ENDBRANCH  19  20
ENDBRANCH  18  19
ENDBRANCH   1  18
TORSDOF 5
ENDMDL
MODEL 9
REMARK VINA RESULT:      -7.6      2.570      3.472
REMARK  5 active torsions:
REMARK  status: ('A' for Active; 'I' for Inactive)
REMARK    1  A    between atoms: C_4  and  O_5 
REMARK    2  A    between atoms: O_5  and  C_6 
REMARK    3  A    between atoms: C_6  and  C_7 
REMARK       I    between atoms: C_7  and  N_8 
REMARK    4  A    between atoms: N_8  and  N_9 
REMARK    5  A    between atoms: C_10  and  C_11 
ROOT
HETATM    1  C   UNL     1      41.323 -11.757   6.194  1.00  0.00     0.261 C 
HETATM    2  N   UNL     1      41.525 -13.132   6.137  1.00  0.00    -0.246 N 
HETATM    3  O   UNL     1      41.098 -11.015   5.240  1.00  0.00    -0.269 OA
HETATM    4  H   UNL     1      41.942 -13.566   6.959  1.00  0.00     0.192 HD
ENDROOT
BRANCH   2   5
HETATM    5  N   UNL     1      41.571 -13.911   5.004  1.00  0.00    -0.184 NA
HETATM    6  C   UNL     1      41.491 -15.198   5.124  1.00  0.00     0.153 C 
BRANCH   6   7
HETATM    7  C   UNL     1      41.501 -16.056   3.951  1.00  0.00     0.018 A 
HETATM    8  C   UNL     1      42.392 -17.164   3.746  1.00  0.00     0.004 A 
HETATM    9  C   UNL     1      42.094 -17.719   2.503  1.00  0.00     0.043 A 
HETATM   10  C   UNL     1      43.420 -17.754   4.515  1.00  0.00     0.014 A 
HETATM   11  C   UNL     1      42.777 -18.825   1.982  1.00  0.00     0.030 A 
HETATM   12  N   UNL     1      41.063 -16.983   1.971  1.00  0.00    -0.358 N 
HETATM   13  C   UNL     1      43.792 -19.387   2.761  1.00  0.00     0.002 A 
HETATM   14  C   UNL     1      44.110 -18.862   4.011  1.00  0.00     0.001 A 
HETATM   15  H   UNL     1      40.643 -17.164   1.070  1.00  0.00     0.166 HD
HETATM   16  C   UNL     1      40.691 -15.974   2.826  1.00  0.00     0.018 A 
HETATM   17  C   UNL     1      39.601 -15.027   2.469  1.00  0.00     0.069 C 
ENDBRANCH   6   7
ENDBRANCH   2   5
BRANCH   1  18
HETATM   18  C   UNL     1      41.301 -11.223   7.623  1.00  0.00     0.280 C 
BRANCH  18  19
HETATM   19  O   UNL     1      42.431 -10.398   7.889  1.00  0.00    -0.342 OA
BRANCH  19  20
HETATM   20  C   UNL     1      43.116 -10.724   9.031  1.00  0.00     0.069 A 
HETATM   21  C   UNL     1      42.836 -10.215  10.303  1.00  0.00     0.043 A 
HETATM   22  C   UNL     1      43.605 -10.600  11.411  1.00  0.00    -0.059 A 
HETATM   23  C   UNL     1      43.291 -10.069  12.780  1.00  0.00     0.048 C 
HETATM   24  C   UNL     1      44.635 -11.531  11.237  1.00  0.00     0.007 A 
HETATM   25  C   UNL     1      44.901 -12.057   9.973  1.00  0.00     0.003 A 
HETATM   26  C   UNL     1      44.139 -11.659   8.875  1.00  0.00     0.037 A 
ENDBRANCH  19  20
ENDBRANCH  18  19
ENDBRANCH   1  18
TORSDOF 5
ENDMDL
MODEL 10
REMARK VINA RESULT:      -7.6      6.879      9.790
REMARK  5 active torsions:
REMARK  status: ('A' for Active; 'I' for Inactive)
REMARK    1  A    between atoms: C_4  and  O_5 
REMARK    2  A    between atoms: O_5  and  C_6 
REMARK    3  A    between atoms: C_6  and  C_7 
REMARK       I    between atoms: C_7  and  N_8 
REMARK    4  A    between atoms: N_8  and  N_9 
REMARK    5  A    between atoms: C_10  and  C_11 
ROOT
HETATM    1  C   UNL     1      40.909 -16.717   1.826  1.00  0.00     0.261 C 
HETATM    2  N   UNL     1      40.837 -15.347   1.594  1.00  0.00    -0.246 N 
HETATM    3  O   UNL     1      40.945 -17.598   0.970  1.00  0.00    -0.269 OA
HETATM    4  H   UNL     1      40.565 -14.765   2.385  1.00  0.00     0.192 HD
ENDROOT
BRANCH   2   5
HETATM    5  N   UNL     1      40.732 -14.723   0.373  1.00  0.00    -0.184 NA
HETATM    6  C   UNL     1      41.805 -14.525  -0.325  1.00  0.00     0.153 C 
BRANCH   6   7
HETATM    7  C   UNL     1      41.735 -13.901  -1.636  1.00  0.00     0.018 A 
HETATM    8  C   UNL     1      42.164 -12.564  -1.937  1.00  0.00     0.004 A 
HETATM    9  C   UNL     1      41.921 -12.339  -3.291  1.00  0.00     0.043 A 
HETATM   10  C   UNL     1      42.752 -11.525  -1.181  1.00  0.00     0.014 A 
HETATM   11  C   UNL     1      42.223 -11.127  -3.925  1.00  0.00     0.030 A 
HETATM   12  N   UNL     1      41.367 -13.491  -3.796  1.00  0.00    -0.358 N 
HETATM   13  C   UNL     1      42.799 -10.116  -3.153  1.00  0.00     0.002 A 
HETATM   14  C   UNL     1      43.063 -10.310  -1.799  1.00  0.00     0.001 A 
HETATM   15  H   UNL     1      41.089 -13.610  -4.760  1.00  0.00     0.166 HD
HETATM   16  C   UNL     1      41.244 -14.445  -2.815  1.00  0.00     0.018 A 
HETATM   17  C   UNL     1      40.658 -15.779  -3.110  1.00  0.00     0.069 C 
ENDBRANCH   6   7
ENDBRANCH   2   5
BRANCH   1  18
HETATM   18  C   UNL     1      41.050 -17.057   3.306  1.00  0.00     0.280 C 
BRANCH  18  19
HETATM   19  O   UNL     1      42.379 -16.835   3.768  1.00  0.00    -0.342 OA
BRANCH  19  20
HETATM   20  C   UNL     1      43.066 -17.977   4.090  1.00  0.00     0.069 A 
HETATM   21  C   UNL     1      43.064 -18.583   5.350  1.00  0.00     0.043 A 
HETATM   22  C   UNL     1      43.813 -19.745   5.585  1.00  0.00    -0.059 A 
HETATM   23  C   UNL     1      43.793 -20.406   6.932  1.00  0.00     0.048 C 
HETATM   24  C   UNL     1      44.536 -20.315   4.531  1.00  0.00     0.007 A 
HETATM   25  C   UNL     1      44.522 -19.726   3.268  1.00  0.00     0.003 A 
HETATM   26  C   UNL     1      43.784 -18.563   3.047  1.00  0.00     0.037 A 
ENDBRANCH  19  20
ENDBRANCH  18  19
ENDBRANCH   1  18
TORSDOF 5
ENDMDL
