MODEL 1
REMARK VINA RESULT:     -10.4      0.000      0.000
REMARK  5 active torsions:
REMARK  status: ('A' for Active; 'I' for Inactive)
REMARK    1  A    between atoms: C_4  and  C_5 
REMARK    2  A    between atoms: C_17  and  C_18 
REMARK    3  A    between atoms: C_18  and  N_19 
REMARK       I    between atoms: N_19  and  C_20 
REMARK    4  A    between atoms: C_20  and  C_21 
REMARK    5  A    between atoms: C_21  and  C_22 
ROOT
HETATM    1  C   UNL     1      44.612 -21.027   3.618  1.00  0.00     0.048 C 
HETATM    2  C   UNL     1      44.211 -19.645   4.045  1.00  0.00    -0.060 A 
HETATM    3  C   UNL     1      43.360 -18.863   3.236  1.00  0.00     0.024 A 
HETATM    4  C   UNL     1      42.975 -17.556   3.601  1.00  0.00     0.034 A 
HETATM    5  C   UNL     1      43.492 -17.068   4.795  1.00  0.00     0.088 A 
HETATM    6  C   UNL     1      44.341 -17.825   5.593  1.00  0.00    -0.021 A 
HETATM    7  C   UNL     1      44.810 -17.020   6.744  1.00  0.00     0.075 C 
HETATM    8  C   UNL     1      43.848 -15.830   6.637  1.00  0.00     0.151 C 
HETATM    9  O   UNL     1      43.297 -15.801   5.291  1.00  0.00    -0.342 OA
HETATM   10  C   UNL     1      44.709 -19.112   5.239  1.00  0.00     0.017 A 
ENDROOT
BRANCH   8  11
HETATM   11  C   UNL     1      44.525 -14.478   6.899  1.00  0.00     0.155 C 
BRANCH  11  12
HETATM   12  N   UNL     1      44.184 -13.845   8.160  1.00  0.00    -0.359 N 
HETATM   13  C   UNL     1      44.961 -12.855   8.718  1.00  0.00     0.219 C 
HETATM   14  O   UNL     1      45.961 -12.404   8.175  1.00  0.00    -0.274 OA
HETATM   15  H   UNL     1      43.419 -14.236   8.696  1.00  0.00     0.162 HD
BRANCH  13  16
HETATM   16  C   UNL     1      44.455 -12.399  10.074  1.00  0.00     0.128 C 
BRANCH  16  17
HETATM   17  C   UNL     1      44.100 -10.906  10.086  1.00  0.00     0.094 C 
HETATM   18  N   UNL     1      42.771 -10.686   9.532  1.00  0.00    -0.362 N 
HETATM   19  C   UNL     1      41.627 -10.709  10.256  1.00  0.00     0.168 C 
HETATM   20  H   UNL     1      42.670 -10.700   8.521  1.00  0.00     0.162 HD
HETATM   21  S   UNL     1      40.140 -10.719   9.522  1.00  0.00    -0.041 SA
HETATM   22  N   UNL     1      41.742 -10.698  11.607  1.00  0.00    -0.363 N 
HETATM   23  C   UNL     1      42.995 -10.839  12.330  1.00  0.00     0.081 C 
HETATM   24  H   UNL     1      40.868 -10.785  12.114  1.00  0.00     0.162 HD
HETATM   25  C   UNL     1      42.916 -10.131  13.678  1.00  0.00     0.032 C 
HETATM   26  C   UNL     1      44.160 -10.310  11.495  1.00  0.00     0.050 C 
ENDBRANCH  16  17
ENDBRANCH  13  16
ENDBRANCH  11  12
ENDBRANCH   8  11
BRANCH   4  27
HETATM   27  C   UNL     1      42.098 -16.797   2.699  1.00  0.00     0.112 A 
HETATM   28  S   UNL     1      42.606 -16.342   1.118  1.00  0.00    -0.067 SA
HETATM   29  C   UNL     1      41.112 -15.531   0.857  1.00  0.00     0.035 A 
HETATM   30  C   UNL     1      40.333 -15.640   2.007  1.00  0.00     0.075 A 
HETATM   31  C   UNL     1      40.664 -14.842  -0.282  1.00  0.00     0.021 A 
HETATM   32  N   UNL     1      40.909 -16.344   3.050  1.00  0.00    -0.239 NA
HETATM   33  C   UNL     1      39.057 -15.039   2.021  1.00  0.00     0.033 A 
HETATM   34  C   UNL     1      38.599 -14.352   0.892  1.00  0.00     0.002 A 
HETATM   35  C   UNL     1      39.394 -14.255  -0.245  1.00  0.00     0.002 A 
ENDBRANCH   4  27
TORSDOF 5
ENDMDL
MODEL 2
REMARK VINA RESULT:     -10.1      3.034      3.895
REMARK  5 active torsions:
REMARK  status: ('A' for Active; 'I' for Inactive)
REMARK    1  A    between atoms: C_4  and  C_5 
REMARK    2  A    between atoms: C_17  and  C_18 
REMARK    3  A    between atoms: C_18  and  N_19 
REMARK       I    between atoms: N_19  and  C_20 
REMARK    4  A    between atoms: C_20  and  C_21 
REMARK    5  A    between atoms: C_21  and  C_22 
ROOT
HETATM    1  C   UNL     1      44.694 -21.679   1.820  1.00  0.00     0.048 C 
HETATM    2  C   UNL     1      44.119 -20.583   2.669  1.00  0.00    -0.060 A 
HETATM    3  C   UNL     1      43.315 -19.576   2.093  1.00  0.00     0.024 A 
HETATM    4  C   UNL     1      42.772 -18.525   2.859  1.00  0.00     0.034 A 
HETATM    5  C   UNL     1      43.083 -18.519   4.214  1.00  0.00     0.088 A 
HETATM    6  C   UNL     1      43.884 -19.498   4.789  1.00  0.00    -0.021 A 
HETATM    7  C   UNL     1      44.126 -19.185   6.216  1.00  0.00     0.075 C 
HETATM    8  C   UNL     1      43.084 -18.078   6.418  1.00  0.00     0.151 C 
HETATM    9  O   UNL     1      42.713 -17.549   5.115  1.00  0.00    -0.342 OA
HETATM   10  C   UNL     1      44.408 -20.536   4.037  1.00  0.00     0.017 A 
ENDROOT
BRANCH   8  11
HETATM   11  C   UNL     1      43.599 -16.911   7.271  1.00  0.00     0.155 C 
BRANCH  11  12
HETATM   12  N   UNL     1      43.087 -15.602   6.908  1.00  0.00    -0.359 N 
HETATM   13  C   UNL     1      43.918 -14.537   6.638  1.00  0.00     0.219 C 
HETATM   14  O   UNL     1      45.139 -14.626   6.637  1.00  0.00    -0.274 OA
HETATM   15  H   UNL     1      42.088 -15.446   6.978  1.00  0.00     0.162 HD
BRANCH  13  16
HETATM   16  C   UNL     1      43.162 -13.252   6.361  1.00  0.00     0.128 C 
BRANCH  16  17
HETATM   17  C   UNL     1      41.714 -13.514   5.925  1.00  0.00     0.094 C 
HETATM   18  N   UNL     1      40.818 -12.505   6.471  1.00  0.00    -0.362 N 
HETATM   19  C   UNL     1      40.525 -11.331   5.861  1.00  0.00     0.168 C 
HETATM   20  H   UNL     1      40.540 -12.593   7.444  1.00  0.00     0.162 HD
HETATM   21  S   UNL     1      39.717 -10.122   6.658  1.00  0.00    -0.041 SA
HETATM   22  N   UNL     1      40.896 -11.192   4.564  1.00  0.00    -0.363 N 
HETATM   23  C   UNL     1      41.733 -12.133   3.839  1.00  0.00     0.081 C 
HETATM   24  H   UNL     1      40.721 -10.276   4.163  1.00  0.00     0.162 HD
HETATM   25  C   UNL     1      41.412 -12.092   2.348  1.00  0.00     0.032 C 
HETATM   26  C   UNL     1      41.566 -13.545   4.401  1.00  0.00     0.050 C 
ENDBRANCH  16  17
ENDBRANCH  13  16
ENDBRANCH  11  12
ENDBRANCH   8  11
BRANCH   4  27
HETATM   27  C   UNL     1      41.956 -17.504   2.186  1.00  0.00     0.112 A 
HETATM   28  S   UNL     1      42.475 -16.751   0.728  1.00  0.00    -0.067 SA
HETATM   29  C   UNL     1      41.064 -15.770   0.716  1.00  0.00     0.035 A 
HETATM   30  C   UNL     1      40.299 -16.065   1.843  1.00  0.00     0.075 A 
HETATM   31  C   UNL     1      40.663 -14.803  -0.222  1.00  0.00     0.021 A 
HETATM   32  N   UNL     1      40.824 -17.036   2.678  1.00  0.00    -0.239 NA
HETATM   33  C   UNL     1      39.090 -15.369   2.043  1.00  0.00     0.033 A 
HETATM   34  C   UNL     1      38.679 -14.405   1.116  1.00  0.00     0.002 A 
HETATM   35  C   UNL     1      39.458 -14.127  -0.002  1.00  0.00     0.002 A 
ENDBRANCH   4  27
TORSDOF 5
ENDMDL
MODEL 3
REMARK VINA RESULT:      -9.8      4.384      9.337
REMARK  5 active torsions:
REMARK  status: ('A' for Active; 'I' for Inactive)
REMARK    1  A    between atoms: C_4  and  C_5 
REMARK    2  A    between atoms: C_17  and  C_18 
REMARK    3  A    between atoms: C_18  and  N_19 
REMARK       I    between atoms: N_19  and  C_20 
REMARK    4  A    between atoms: C_20  and  C_21 
REMARK    5  A    between atoms: C_21  and  C_22 
ROOT
HETATM    1  C   UNL     1      45.103 -13.642   7.484  1.00  0.00     0.048 C 
HETATM    2  C   UNL     1      44.110 -14.326   6.590  1.00  0.00    -0.060 A 
HETATM    3  C   UNL     1      44.316 -15.660   6.178  1.00  0.00     0.024 A 
HETATM    4  C   UNL     1      43.411 -16.327   5.327  1.00  0.00     0.034 A 
HETATM    5  C   UNL     1      42.310 -15.596   4.897  1.00  0.00     0.088 A 
HETATM    6  C   UNL     1      42.104 -14.278   5.287  1.00  0.00    -0.021 A 
HETATM    7  C   UNL     1      40.913 -13.725   4.602  1.00  0.00     0.075 C 
HETATM    8  C   UNL     1      40.314 -15.020   4.038  1.00  0.00     0.151 C 
HETATM    9  O   UNL     1      41.353 -16.037   4.014  1.00  0.00    -0.342 OA
HETATM   10  C   UNL     1      42.988 -13.628   6.131  1.00  0.00     0.017 A 
ENDROOT
BRANCH   8  11
HETATM   11  C   UNL     1      39.773 -14.864   2.611  1.00  0.00     0.155 C 
BRANCH  11  12
HETATM   12  N   UNL     1      40.481 -13.909   1.778  1.00  0.00    -0.359 N 
HETATM   13  C   UNL     1      40.049 -13.574   0.514  1.00  0.00     0.219 C 
HETATM   14  O   UNL     1      39.018 -14.015   0.021  1.00  0.00    -0.274 OA
HETATM   15  H   UNL     1      41.384 -13.578   2.097  1.00  0.00     0.162 HD
BRANCH  13  16
HETATM   16  C   UNL     1      40.988 -12.619  -0.199  1.00  0.00     0.128 C 
BRANCH  16  17
HETATM   17  C   UNL     1      42.053 -13.361  -1.018  1.00  0.00     0.094 C 
HETATM   18  N   UNL     1      41.486 -14.539  -1.659  1.00  0.00    -0.362 N 
HETATM   19  C   UNL     1      40.903 -14.540  -2.882  1.00  0.00     0.168 C 
HETATM   20  H   UNL     1      41.347 -15.369  -1.089  1.00  0.00     0.162 HD
HETATM   21  S   UNL     1      40.044 -15.848  -3.429  1.00  0.00    -0.041 SA
HETATM   22  N   UNL     1      41.070 -13.437  -3.653  1.00  0.00    -0.363 N 
HETATM   23  C   UNL     1      41.676 -12.196  -3.199  1.00  0.00     0.081 C 
HETATM   24  H   UNL     1      40.564 -13.446  -4.532  1.00  0.00     0.162 HD
HETATM   25  C   UNL     1      42.325 -11.461  -4.367  1.00  0.00     0.032 C 
HETATM   26  C   UNL     1      42.687 -12.466  -2.086  1.00  0.00     0.050 C 
ENDBRANCH  16  17
ENDBRANCH  13  16
ENDBRANCH  11  12
ENDBRANCH   8  11
BRANCH   4  27
HETATM   27  C   UNL     1      43.700 -17.712   4.929  1.00  0.00     0.112 A 
HETATM   28  S   UNL     1      44.267 -18.876   6.063  1.00  0.00    -0.067 SA
HETATM   29  C   UNL     1      44.370 -20.059   4.819  1.00  0.00     0.035 A 
HETATM   30  C   UNL     1      43.988 -19.477   3.611  1.00  0.00     0.075 A 
HETATM   31  C   UNL     1      44.765 -21.404   4.903  1.00  0.00     0.021 A 
HETATM   32  N   UNL     1      43.628 -18.143   3.684  1.00  0.00    -0.239 NA
HETATM   33  C   UNL     1      44.001 -20.267   2.444  1.00  0.00     0.033 A 
HETATM   34  C   UNL     1      44.391 -21.608   2.516  1.00  0.00     0.002 A 
HETATM   35  C   UNL     1      44.769 -22.168   3.731  1.00  0.00     0.002 A 
ENDBRANCH   4  27
TORSDOF 5
ENDMDL
MODEL 4
REMARK VINA RESULT:      -9.5      1.566      4.391
REMARK  5 active torsions:
REMARK  status: ('A' for Active; 'I' for Inactive)
REMARK    1  A    between atoms: C_4  and  C_5 
REMARK    2  A    between atoms: C_17  and  C_18 
REMARK    3  A    between atoms: C_18  and  N_19 
REMARK       I    between atoms: N_19  and  C_20 
REMARK    4  A    between atoms: C_20  and  C_21 
REMARK    5  A    between atoms: C_21  and  C_22 
ROOT
HETATM    1  C   UNL     1      39.051 -14.196   2.542  1.00  0.00     0.048 C 
HETATM    2  C   UNL     1      40.367 -14.517   3.190  1.00  0.00    -0.060 A 
HETATM    3  C   UNL     1      40.973 -15.776   2.995  1.00  0.00     0.024 A 
HETATM    4  C   UNL     1      42.201 -16.116   3.600  1.00  0.00     0.034 A 
HETATM    5  C   UNL     1      42.778 -15.150   4.416  1.00  0.00     0.088 A 
HETATM    6  C   UNL     1      42.183 -13.911   4.624  1.00  0.00    -0.021 A 
HETATM    7  C   UNL     1      42.967 -13.130   5.609  1.00  0.00     0.075 C 
HETATM    8  C   UNL     1      44.241 -13.983   5.662  1.00  0.00     0.151 C 
HETATM    9  O   UNL     1      43.931 -15.308   5.148  1.00  0.00    -0.342 OA
HETATM   10  C   UNL     1      40.984 -13.576   4.021  1.00  0.00     0.017 A 
ENDROOT
BRANCH   8  11
HETATM   11  C   UNL     1      44.800 -14.147   7.082  1.00  0.00     0.155 C 
BRANCH  11  12
HETATM   12  N   UNL     1      44.081 -13.429   8.119  1.00  0.00    -0.359 N 
HETATM   13  C   UNL     1      44.730 -12.744   9.122  1.00  0.00     0.219 C 
HETATM   14  O   UNL     1      45.949 -12.649   9.187  1.00  0.00    -0.274 OA
HETATM   15  H   UNL     1      43.076 -13.545   8.168  1.00  0.00     0.162 HD
BRANCH  13  16
HETATM   16  C   UNL     1      43.778 -12.141  10.138  1.00  0.00     0.128 C 
BRANCH  16  17
HETATM   17  C   UNL     1      43.759 -10.607  10.072  1.00  0.00     0.094 C 
HETATM   18  N   UNL     1      42.446 -10.123   9.670  1.00  0.00    -0.362 N 
HETATM   19  C   UNL     1      41.435  -9.850  10.529  1.00  0.00     0.168 C 
HETATM   20  H   UNL     1      42.204 -10.168   8.684  1.00  0.00     0.162 HD
HETATM   21  S   UNL     1      39.894  -9.565   9.987  1.00  0.00    -0.041 SA
HETATM   22  N   UNL     1      41.736  -9.795  11.850  1.00  0.00    -0.363 N 
HETATM   23  C   UNL     1      43.016 -10.177  12.422  1.00  0.00     0.081 C 
HETATM   24  H   UNL     1      40.942  -9.656  12.467  1.00  0.00     0.162 HD
HETATM   25  C   UNL     1      43.279  -9.398  13.707  1.00  0.00     0.032 C 
HETATM   26  C   UNL     1      44.141  -9.967  11.409  1.00  0.00     0.050 C 
ENDBRANCH  16  17
ENDBRANCH  13  16
ENDBRANCH  11  12
ENDBRANCH   8  11
BRANCH   4  27
HETATM   27  C   UNL     1      42.764 -17.453   3.362  1.00  0.00     0.112 A 
HETATM   28  S   UNL     1      42.491 -18.297   1.887  1.00  0.00    -0.067 SA
HETATM   29  C   UNL     1      43.386 -19.642   2.475  1.00  0.00     0.035 A 
HETATM   30  C   UNL     1      43.813 -19.367   3.773  1.00  0.00     0.075 A 
HETATM   31  C   UNL     1      43.685 -20.857   1.836  1.00  0.00     0.021 A 
HETATM   32  N   UNL     1      43.439 -18.131   4.271  1.00  0.00    -0.239 NA
HETATM   33  C   UNL     1      44.567 -20.340   4.459  1.00  0.00     0.033 A 
HETATM   34  C   UNL     1      44.872 -21.553   3.833  1.00  0.00     0.002 A 
HETATM   35  C   UNL     1      44.435 -21.806   2.537  1.00  0.00     0.002 A 
ENDBRANCH   4  27
TORSDOF 5
ENDMDL
MODEL 5
REMARK VINA RESULT:      -9.4      4.585      9.862
REMARK  5 active torsions:
REMARK  status: ('A' for Active; 'I' for Inactive)
REMARK    1  A    between atoms: C_4  and  C_5 
REMARK    2  A    between atoms: C_17  and  C_18 
REMARK    3  A    between atoms: C_18  and  N_19 
REMARK       I    between atoms: N_19  and  C_20 
REMARK    4  A    between atoms: C_20  and  C_21 
REMARK    5  A    between atoms: C_21  and  C_22 
ROOT
HETATM    1  C   UNL     1      44.472 -13.837   7.478  1.00  0.00     0.048 C 
HETATM    2  C   UNL     1      43.863 -14.511   6.284  1.00  0.00    -0.060 A 
HETATM    3  C   UNL     1      44.066 -15.888   6.055  1.00  0.00     0.024 A 
HETATM    4  C   UNL     1      43.521 -16.549   4.935  1.00  0.00     0.034 A 
HETATM    5  C   UNL     1      42.782 -15.768   4.054  1.00  0.00     0.088 A 
HETATM    6  C   UNL     1      42.585 -14.408   4.263  1.00  0.00    -0.021 A 
HETATM    7  C   UNL     1      41.850 -13.820   3.120  1.00  0.00     0.075 C 
HETATM    8  C   UNL     1      41.392 -15.104   2.417  1.00  0.00     0.151 C 
HETATM    9  O   UNL     1      42.228 -16.203   2.873  1.00  0.00    -0.342 OA
HETATM   10  C   UNL     1      43.113 -13.763   5.368  1.00  0.00     0.017 A 
ENDROOT
BRANCH   8  11
HETATM   11  C   UNL     1      41.505 -15.029   0.888  1.00  0.00     0.155 C 
BRANCH  11  12
HETATM   12  N   UNL     1      40.244 -14.919   0.176  1.00  0.00    -0.359 N 
HETATM   13  C   UNL     1      39.615 -13.710  -0.021  1.00  0.00     0.219 C 
HETATM   14  O   UNL     1      40.090 -12.642   0.344  1.00  0.00    -0.274 OA
HETATM   15  H   UNL     1      39.761 -15.775  -0.070  1.00  0.00     0.162 HD
BRANCH  13  16
HETATM   16  C   UNL     1      38.274 -13.847  -0.717  1.00  0.00     0.128 C 
BRANCH  16  17
HETATM   17  C   UNL     1      38.295 -13.254  -2.133  1.00  0.00     0.094 C 
HETATM   18  N   UNL     1      39.597 -12.677  -2.433  1.00  0.00    -0.362 N 
HETATM   19  C   UNL     1      40.632 -13.363  -2.974  1.00  0.00     0.168 C 
HETATM   20  H   UNL     1      39.811 -11.761  -2.047  1.00  0.00     0.162 HD
HETATM   21  S   UNL     1      42.158 -12.717  -3.037  1.00  0.00    -0.041 SA
HETATM   22  N   UNL     1      40.367 -14.591  -3.486  1.00  0.00    -0.363 N 
HETATM   23  C   UNL     1      39.102 -15.290  -3.340  1.00  0.00     0.081 C 
HETATM   24  H   UNL     1      41.178 -15.101  -3.820  1.00  0.00     0.162 HD
HETATM   25  C   UNL     1      38.876 -16.234  -4.518  1.00  0.00     0.032 C 
HETATM   26  C   UNL     1      37.950 -14.296  -3.200  1.00  0.00     0.050 C 
ENDBRANCH  16  17
ENDBRANCH  13  16
ENDBRANCH  11  12
ENDBRANCH   8  11
BRANCH   4  27
HETATM   27  C   UNL     1      43.789 -17.983   4.757  1.00  0.00     0.112 A 
HETATM   28  S   UNL     1      44.118 -19.012   6.096  1.00  0.00    -0.067 SA
HETATM   29  C   UNL     1      44.338 -20.347   5.034  1.00  0.00     0.035 A 
HETATM   30  C   UNL     1      44.170 -19.911   3.722  1.00  0.00     0.075 A 
HETATM   31  C   UNL     1      44.642 -21.684   5.340  1.00  0.00     0.021 A 
HETATM   32  N   UNL     1      43.877 -18.566   3.576  1.00  0.00    -0.239 NA
HETATM   33  C   UNL     1      44.311 -20.843   2.674  1.00  0.00     0.033 A 
HETATM   34  C   UNL     1      44.613 -22.178   2.966  1.00  0.00     0.002 A 
HETATM   35  C   UNL     1      44.776 -22.591   4.284  1.00  0.00     0.002 A 
ENDBRANCH   4  27
TORSDOF 5
ENDMDL
MODEL 6
REMARK VINA RESULT:      -9.2      3.039      5.656
REMARK  5 active torsions:
REMARK  status: ('A' for Active; 'I' for Inactive)
REMARK    1  A    between atoms: C_4  and  C_5 
REMARK    2  A    between atoms: C_17  and  C_18 
REMARK    3  A    between atoms: C_18  and  N_19 
REMARK       I    between atoms: N_19  and  C_20 
REMARK    4  A    between atoms: C_20  and  C_21 
REMARK    5  A    between atoms: C_21  and  C_22 
ROOT
HETATM    1  C   UNL     1      40.900 -15.125  -1.671  1.00  0.00     0.048 C 
HETATM    2  C   UNL     1      41.103 -15.250  -0.190  1.00  0.00    -0.060 A 
HETATM    3  C   UNL     1      41.748 -16.381   0.354  1.00  0.00     0.024 A 
HETATM    4  C   UNL     1      41.942 -16.536   1.742  1.00  0.00     0.034 A 
HETATM    5  C   UNL     1      41.449 -15.522   2.554  1.00  0.00     0.088 A 
HETATM    6  C   UNL     1      40.801 -14.409   2.030  1.00  0.00    -0.021 A 
HETATM    7  C   UNL     1      40.299 -13.549   3.127  1.00  0.00     0.075 C 
HETATM    8  C   UNL     1      41.044 -14.179   4.311  1.00  0.00     0.151 C 
HETATM    9  O   UNL     1      41.474 -15.515   3.928  1.00  0.00    -0.342 OA
HETATM   10  C   UNL     1      40.621 -14.253   0.667  1.00  0.00     0.017 A 
ENDROOT
BRANCH   8  11
HETATM   11  C   UNL     1      40.178 -14.306   5.572  1.00  0.00     0.155 C 
BRANCH  11  12
HETATM   12  N   UNL     1      40.411 -13.298   6.590  1.00  0.00    -0.359 N 
HETATM   13  C   UNL     1      39.676 -12.135   6.654  1.00  0.00     0.219 C 
HETATM   14  O   UNL     1      38.748 -11.888   5.894  1.00  0.00    -0.274 OA
HETATM   15  H   UNL     1      41.220 -13.406   7.190  1.00  0.00     0.162 HD
BRANCH  13  16
HETATM   16  C   UNL     1      40.148 -11.196   7.748  1.00  0.00     0.128 C 
BRANCH  16  17
HETATM   17  C   UNL     1      39.214 -11.212   8.966  1.00  0.00     0.094 C 
HETATM   18  N   UNL     1      39.950 -11.547  10.177  1.00  0.00    -0.362 N 
HETATM   19  C   UNL     1      40.566 -10.642  10.974  1.00  0.00     0.168 C 
HETATM   20  H   UNL     1      40.178 -12.524  10.339  1.00  0.00     0.162 HD
HETATM   21  S   UNL     1      41.605 -11.115  12.177  1.00  0.00    -0.041 SA
HETATM   22  N   UNL     1      40.282  -9.332  10.767  1.00  0.00    -0.363 N 
HETATM   23  C   UNL     1      39.506  -8.823   9.648  1.00  0.00     0.081 C 
HETATM   24  H   UNL     1      40.812  -8.681  11.336  1.00  0.00     0.162 HD
HETATM   25  C   UNL     1      38.804  -7.524  10.033  1.00  0.00     0.032 C 
HETATM   26  C   UNL     1      38.503  -9.871   9.167  1.00  0.00     0.050 C 
ENDBRANCH  16  17
ENDBRANCH  13  16
ENDBRANCH  11  12
ENDBRANCH   8  11
BRANCH   4  27
HETATM   27  C   UNL     1      42.610 -17.749   2.234  1.00  0.00     0.112 A 
HETATM   28  S   UNL     1      43.475 -17.762   3.722  1.00  0.00    -0.067 SA
HETATM   29  C   UNL     1      43.911 -19.406   3.471  1.00  0.00     0.035 A 
HETATM   30  C   UNL     1      43.387 -19.830   2.251  1.00  0.00     0.075 A 
HETATM   31  C   UNL     1      44.667 -20.259   4.292  1.00  0.00     0.021 A 
HETATM   32  N   UNL     1      42.667 -18.877   1.552  1.00  0.00    -0.239 NA
HETATM   33  C   UNL     1      43.626 -21.155   1.834  1.00  0.00     0.033 A 
HETATM   34  C   UNL     1      44.376 -22.014   2.644  1.00  0.00     0.002 A 
HETATM   35  C   UNL     1      44.890 -21.570   3.857  1.00  0.00     0.002 A 
ENDBRANCH   4  27
TORSDOF 5
ENDMDL
MODEL 7
REMARK VINA RESULT:      -9.0      4.034      8.511
REMARK  5 active torsions:
REMARK  status: ('A' for Active; 'I' for Inactive)
REMARK    1  A    between atoms: C_4  and  C_5 
REMARK    2  A    between atoms: C_17  and  C_18 
REMARK    3  A    between atoms: C_18  and  N_19 
REMARK       I    between atoms: N_19  and  C_20 
REMARK    4  A    between atoms: C_20  and  C_21 
REMARK    5  A    between atoms: C_21  and  C_22 
ROOT
HETATM    1  C   UNL     1      43.655 -20.301   7.554  1.00  0.00     0.048 C 
HETATM    2  C   UNL     1      43.620 -19.394   6.359  1.00  0.00    -0.060 A 
HETATM    3  C   UNL     1      43.091 -18.089   6.462  1.00  0.00     0.024 A 
HETATM    4  C   UNL     1      43.031 -17.217   5.356  1.00  0.00     0.034 A 
HETATM    5  C   UNL     1      43.504 -17.715   4.148  1.00  0.00     0.088 A 
HETATM    6  C   UNL     1      44.016 -19.002   4.032  1.00  0.00    -0.021 A 
HETATM    7  C   UNL     1      44.350 -19.291   2.618  1.00  0.00     0.075 C 
HETATM    8  C   UNL     1      44.254 -17.875   2.035  1.00  0.00     0.151 C 
HETATM    9  O   UNL     1      43.470 -17.054   2.943  1.00  0.00    -0.342 OA
HETATM   10  C   UNL     1      44.084 -19.853   5.121  1.00  0.00     0.017 A 
ENDROOT
BRANCH   8  11
HETATM   11  C   UNL     1      43.578 -17.833   0.658  1.00  0.00     0.155 C 
BRANCH  11  12
HETATM   12  N   UNL     1      42.737 -16.675   0.413  1.00  0.00    -0.359 N 
HETATM   13  C   UNL     1      41.373 -16.706   0.599  1.00  0.00     0.219 C 
HETATM   14  O   UNL     1      40.778 -17.688   1.025  1.00  0.00    -0.274 OA
HETATM   15  H   UNL     1      43.160 -15.865  -0.023  1.00  0.00     0.162 HD
BRANCH  13  16
HETATM   16  C   UNL     1      40.692 -15.409   0.204  1.00  0.00     0.128 C 
BRANCH  16  17
HETATM   17  C   UNL     1      41.227 -14.855  -1.123  1.00  0.00     0.094 C 
HETATM   18  N   UNL     1      40.454 -15.367  -2.246  1.00  0.00    -0.362 N 
HETATM   19  C   UNL     1      39.337 -14.778  -2.738  1.00  0.00     0.168 C 
HETATM   20  H   UNL     1      40.646 -16.313  -2.564  1.00  0.00     0.162 HD
HETATM   21  S   UNL     1      38.363 -15.553  -3.832  1.00  0.00    -0.041 SA
HETATM   22  N   UNL     1      39.060 -13.519  -2.319  1.00  0.00    -0.363 N 
HETATM   23  C   UNL     1      39.771 -12.826  -1.257  1.00  0.00     0.081 C 
HETATM   24  H   UNL     1      38.182 -13.137  -2.655  1.00  0.00     0.162 HD
HETATM   25  C   UNL     1      39.723 -11.318  -1.478  1.00  0.00     0.032 C 
HETATM   26  C   UNL     1      41.212 -13.325  -1.160  1.00  0.00     0.050 C 
ENDBRANCH  16  17
ENDBRANCH  13  16
ENDBRANCH  11  12
ENDBRANCH   8  11
BRANCH   4  27
HETATM   27  C   UNL     1      42.453 -15.878   5.539  1.00  0.00     0.112 A 
HETATM   28  S   UNL     1      43.441 -14.505   5.855  1.00  0.00    -0.067 SA
HETATM   29  C   UNL     1      42.044 -13.508   5.965  1.00  0.00     0.035 A 
HETATM   30  C   UNL     1      40.911 -14.298   5.777  1.00  0.00     0.075 A 
HETATM   31  C   UNL     1      41.956 -12.127   6.205  1.00  0.00     0.021 A 
HETATM   32  N   UNL     1      41.154 -15.641   5.555  1.00  0.00    -0.239 NA
HETATM   33  C   UNL     1      39.642 -13.686   5.832  1.00  0.00     0.033 A 
HETATM   34  C   UNL     1      39.542 -12.311   6.069  1.00  0.00     0.002 A 
HETATM   35  C   UNL     1      40.686 -11.543   6.253  1.00  0.00     0.002 A 
ENDBRANCH   4  27
TORSDOF 5
ENDMDL
MODEL 8
REMARK VINA RESULT:      -8.9      3.123      8.324
REMARK  5 active torsions:
REMARK  status: ('A' for Active; 'I' for Inactive)
REMARK    1  A    between atoms: C_4  and  C_5 
REMARK    2  A    between atoms: C_17  and  C_18 
REMARK    3  A    between atoms: C_18  and  N_19 
REMARK       I    between atoms: N_19  and  C_20 
REMARK    4  A    between atoms: C_20  and  C_21 
REMARK    5  A    between atoms: C_21  and  C_22 
ROOT
HETATM    1  C   UNL     1      41.274  -9.639  13.698  1.00  0.00     0.048 C 
HETATM    2  C   UNL     1      42.010  -9.896  12.416  1.00  0.00    -0.060 A 
HETATM    3  C   UNL     1      41.410  -9.606  11.173  1.00  0.00     0.024 A 
HETATM    4  C   UNL     1      42.068  -9.848   9.950  1.00  0.00     0.034 A 
HETATM    5  C   UNL     1      43.338 -10.407  10.029  1.00  0.00     0.088 A 
HETATM    6  C   UNL     1      43.934 -10.708  11.248  1.00  0.00    -0.021 A 
HETATM    7  C   UNL     1      45.235 -11.379  11.025  1.00  0.00     0.075 C 
HETATM    8  C   UNL     1      45.413 -11.110   9.526  1.00  0.00     0.151 C 
HETATM    9  O   UNL     1      44.114 -10.783   8.959  1.00  0.00    -0.342 OA
HETATM   10  C   UNL     1      43.291 -10.460  12.448  1.00  0.00     0.017 A 
ENDROOT
BRANCH   8  11
HETATM   11  C   UNL     1      45.973 -12.314   8.757  1.00  0.00     0.155 C 
BRANCH  11  12
HETATM   12  N   UNL     1      44.980 -13.159   8.117  1.00  0.00    -0.359 N 
HETATM   13  C   UNL     1      45.158 -13.672   6.851  1.00  0.00     0.219 C 
HETATM   14  O   UNL     1      46.178 -13.495   6.196  1.00  0.00    -0.274 OA
HETATM   15  H   UNL     1      44.083 -13.267   8.574  1.00  0.00     0.162 HD
BRANCH  13  16
HETATM   16  C   UNL     1      43.959 -14.457   6.357  1.00  0.00     0.128 C 
BRANCH  16  17
HETATM   17  C   UNL     1      43.394 -13.887   5.049  1.00  0.00     0.094 C 
HETATM   18  N   UNL     1      42.905 -14.954   4.187  1.00  0.00    -0.362 N 
HETATM   19  C   UNL     1      41.646 -15.451   4.223  1.00  0.00     0.168 C 
HETATM   20  H   UNL     1      43.589 -15.488   3.658  1.00  0.00     0.162 HD
HETATM   21  S   UNL     1      41.241 -16.838   3.408  1.00  0.00    -0.041 SA
HETATM   22  N   UNL     1      40.721 -14.757   4.931  1.00  0.00    -0.363 N 
HETATM   23  C   UNL     1      41.019 -13.624   5.791  1.00  0.00     0.081 C 
HETATM   24  H   UNL     1      39.808 -15.195   4.991  1.00  0.00     0.162 HD
HETATM   25  C   UNL     1      39.819 -12.688   5.875  1.00  0.00     0.032 C 
HETATM   26  C   UNL     1      42.262 -12.886   5.296  1.00  0.00     0.050 C 
ENDBRANCH  16  17
ENDBRANCH  13  16
ENDBRANCH  11  12
ENDBRANCH   8  11
BRANCH   4  27
HETATM   27  C   UNL     1      41.371  -9.533   8.694  1.00  0.00     0.112 A 
HETATM   28  S   UNL     1      39.674  -9.252   8.650  1.00  0.00    -0.067 SA
HETATM   29  C   UNL     1      39.739  -9.041   6.945  1.00  0.00     0.035 A 
HETATM   30  C   UNL     1      41.053  -9.225   6.518  1.00  0.00     0.075 A 
HETATM   31  C   UNL     1      38.701  -8.739   6.048  1.00  0.00     0.021 A 
HETATM   32  N   UNL     1      41.965  -9.521   7.515  1.00  0.00    -0.239 NA
HETATM   33  C   UNL     1      41.342  -9.104   5.143  1.00  0.00     0.033 A 
HETATM   34  C   UNL     1      40.317  -8.802   4.240  1.00  0.00     0.002 A 
HETATM   35  C   UNL     1      39.013  -8.623   4.689  1.00  0.00     0.002 A 
ENDBRANCH   4  27
TORSDOF 5
ENDMDL
MODEL 9
REMARK VINA RESULT:      -8.9      2.717      5.627
REMARK  5 active torsions:
REMARK  status: ('A' for Active; 'I' for Inactive)
REMARK    1  A    between atoms: C_4  and  C_5 
REMARK    2  A    between atoms: C_17  and  C_18 
REMARK    3  A    between atoms: C_18  and  N_19 
REMARK       I    between atoms: N_19  and  C_20 
REMARK    4  A    between atoms: C_20  and  C_21 
REMARK    5  A    between atoms: C_21  and  C_22 
ROOT
HETATM    1  C   UNL     1      39.117 -14.021   0.247  1.00  0.00     0.048 C 
HETATM    2  C   UNL     1      39.587 -13.846   1.661  1.00  0.00    -0.060 A 
HETATM    3  C   UNL     1      40.504 -14.754   2.230  1.00  0.00     0.024 A 
HETATM    4  C   UNL     1      40.954 -14.627   3.560  1.00  0.00     0.034 A 
HETATM    5  C   UNL     1      40.434 -13.567   4.293  1.00  0.00     0.088 A 
HETATM    6  C   UNL     1      39.520 -12.673   3.746  1.00  0.00    -0.021 A 
HETATM    7  C   UNL     1      39.068 -11.713   4.779  1.00  0.00     0.075 C 
HETATM    8  C   UNL     1      40.101 -12.005   5.875  1.00  0.00     0.151 C 
HETATM    9  O   UNL     1      40.689 -13.310   5.619  1.00  0.00    -0.342 OA
HETATM   10  C   UNL     1      39.087 -12.793   2.437  1.00  0.00     0.017 A 
ENDROOT
BRANCH   8  11
HETATM   11  C   UNL     1      39.497 -12.028   7.285  1.00  0.00     0.155 C 
BRANCH  11  12
HETATM   12  N   UNL     1      40.323 -11.442   8.325  1.00  0.00    -0.359 N 
HETATM   13  C   UNL     1      39.807 -10.608   9.291  1.00  0.00     0.219 C 
HETATM   14  O   UNL     1      38.615 -10.338   9.373  1.00  0.00    -0.274 OA
HETATM   15  H   UNL     1      41.327 -11.559   8.256  1.00  0.00     0.162 HD
BRANCH  13  16
HETATM   16  C   UNL     1      40.867 -10.052  10.222  1.00  0.00     0.128 C 
BRANCH  16  17
HETATM   17  C   UNL     1      41.391 -11.112  11.201  1.00  0.00     0.094 C 
HETATM   18  N   UNL     1      42.643 -11.683  10.725  1.00  0.00    -0.362 N 
HETATM   19  C   UNL     1      43.869 -11.179  11.005  1.00  0.00     0.168 C 
HETATM   20  H   UNL     1      42.597 -12.384   9.991  1.00  0.00     0.162 HD
HETATM   21  S   UNL     1      45.224 -11.716  10.214  1.00  0.00    -0.041 SA
HETATM   22  N   UNL     1      43.949 -10.236  11.976  1.00  0.00    -0.363 N 
HETATM   23  C   UNL     1      42.804  -9.605  12.610  1.00  0.00     0.081 C 
HETATM   24  H   UNL     1      44.871  -9.835  12.110  1.00  0.00     0.162 HD
HETATM   25  C   UNL     1      43.156  -9.164  14.028  1.00  0.00     0.032 C 
HETATM   26  C   UNL     1      41.600 -10.547  12.608  1.00  0.00     0.050 C 
ENDBRANCH  16  17
ENDBRANCH  13  16
ENDBRANCH  11  12
ENDBRANCH   8  11
BRANCH   4  27
HETATM   27  C   UNL     1      41.900 -15.622   4.088  1.00  0.00     0.112 A 
HETATM   28  S   UNL     1      42.034 -17.193   3.398  1.00  0.00    -0.067 SA
HETATM   29  C   UNL     1      43.214 -17.623   4.573  1.00  0.00     0.035 A 
HETATM   30  C   UNL     1      43.408 -16.543   5.432  1.00  0.00     0.075 A 
HETATM   31  C   UNL     1      43.913 -18.831   4.727  1.00  0.00     0.021 A 
HETATM   32  N   UNL     1      42.645 -15.422   5.158  1.00  0.00    -0.239 NA
HETATM   33  C   UNL     1      44.336 -16.674   6.486  1.00  0.00     0.033 A 
HETATM   34  C   UNL     1      45.040 -17.872   6.648  1.00  0.00     0.002 A 
HETATM   35  C   UNL     1      44.829 -18.936   5.779  1.00  0.00     0.002 A 
ENDBRANCH   4  27
TORSDOF 5
ENDMDL
MODEL 10
REMARK VINA RESULT:      -8.6      4.257      7.323
REMARK  5 active torsions:
REMARK  status: ('A' for Active; 'I' for Inactive)
REMARK    1  A    between atoms: C_4  and  C_5 
REMARK    2  A    between atoms: C_17  and  C_18 
REMARK    3  A    between atoms: C_18  and  N_19 
REMARK       I    between atoms: N_19  and  C_20 
REMARK    4  A    between atoms: C_20  and  C_21 
REMARK    5  A    between atoms: C_21  and  C_22 
ROOT
HETATM    1  C   UNL     1      39.151 -16.107  -4.259  1.00  0.00     0.048 C 
HETATM    2  C   UNL     1      39.974 -15.366  -3.245  1.00  0.00    -0.060 A 
HETATM    3  C   UNL     1      40.370 -15.994  -2.045  1.00  0.00     0.024 A 
HETATM    4  C   UNL     1      41.131 -15.322  -1.066  1.00  0.00     0.034 A 
HETATM    5  C   UNL     1      41.458 -13.999  -1.335  1.00  0.00     0.088 A 
HETATM    6  C   UNL     1      41.062 -13.367  -2.508  1.00  0.00    -0.021 A 
HETATM    7  C   UNL     1      41.464 -11.942  -2.479  1.00  0.00     0.075 C 
HETATM    8  C   UNL     1      42.415 -11.965  -1.275  1.00  0.00     0.151 C 
HETATM    9  O   UNL     1      42.129 -13.153  -0.484  1.00  0.00    -0.342 OA
HETATM   10  C   UNL     1      40.325 -14.031  -3.473  1.00  0.00     0.017 A 
ENDROOT
BRANCH   8  11
HETATM   11  C   UNL     1      42.262 -10.743  -0.360  1.00  0.00     0.155 C 
BRANCH  11  12
HETATM   12  N   UNL     1      42.163 -11.036   1.059  1.00  0.00    -0.359 N 
HETATM   13  C   UNL     1      40.952 -11.112   1.710  1.00  0.00     0.219 C 
HETATM   14  O   UNL     1      39.876 -10.987   1.138  1.00  0.00    -0.274 OA
HETATM   15  H   UNL     1      43.019 -11.062   1.599  1.00  0.00     0.162 HD
BRANCH  13  16
HETATM   16  C   UNL     1      41.096 -11.349   3.201  1.00  0.00     0.128 C 
BRANCH  16  17
HETATM   17  C   UNL     1      40.549 -12.719   3.625  1.00  0.00     0.094 C 
HETATM   18  N   UNL     1      41.632 -13.609   4.020  1.00  0.00    -0.362 N 
HETATM   19  C   UNL     1      42.129 -13.698   5.276  1.00  0.00     0.168 C 
HETATM   20  H   UNL     1      42.174 -14.053   3.284  1.00  0.00     0.162 HD
HETATM   21  S   UNL     1      43.530 -14.526   5.594  1.00  0.00    -0.041 SA
HETATM   22  N   UNL     1      41.424 -13.103   6.270  1.00  0.00    -0.363 N 
HETATM   23  C   UNL     1      40.276 -12.236   6.064  1.00  0.00     0.081 C 
HETATM   24  H   UNL     1      41.862 -13.133   7.185  1.00  0.00     0.162 HD
HETATM   25  C   UNL     1      39.339 -12.296   7.266  1.00  0.00     0.032 C 
HETATM   26  C   UNL     1      39.545 -12.610   4.775  1.00  0.00     0.050 C 
ENDBRANCH  16  17
ENDBRANCH  13  16
ENDBRANCH  11  12
ENDBRANCH   8  11
BRANCH   4  27
HETATM   27  C   UNL     1      41.493 -16.038   0.165  1.00  0.00     0.112 A 
HETATM   28  S   UNL     1      40.502 -15.974   1.571  1.00  0.00    -0.067 SA
HETATM   29  C   UNL     1      41.627 -16.953   2.426  1.00  0.00     0.035 A 
HETATM   30  C   UNL     1      42.701 -17.244   1.587  1.00  0.00     0.075 A 
HETATM   31  C   UNL     1      41.566 -17.427   3.747  1.00  0.00     0.021 A 
HETATM   32  N   UNL     1      42.622 -16.705   0.315  1.00  0.00    -0.239 NA
HETATM   33  C   UNL     1      43.755 -18.037   2.084  1.00  0.00     0.033 A 
HETATM   34  C   UNL     1      43.705 -18.516   3.398  1.00  0.00     0.002 A 
HETATM   35  C   UNL     1      42.624 -18.213   4.218  1.00  0.00     0.002 A 
ENDBRANCH   4  27
TORSDOF 5
ENDMDL
