MODEL 1
REMARK VINA RESULT:      -8.0      0.000      0.000
REMARK  6 active torsions:
REMARK  status: ('A' for Active; 'I' for Inactive)
REMARK    1  A    between atoms: C_6  and  C_7 
REMARK       I    between atoms: C_7  and  N_8 
REMARK    2  A    between atoms: N_8  and  C_9 
REMARK    3  A    between atoms: C_9  and  C_10 
REMARK    4  A    between atoms: C_10  and  O_11 
REMARK    5  A    between atoms: C_10  and  C_12 
REMARK    6  A    between atoms: C_15  and  O_16 
ROOT
HETATM    1  C   UNL     1      41.409 -16.922   5.775  1.00  0.00     0.258 C 
HETATM    2  N   UNL     1      42.693 -17.385   5.914  1.00  0.00    -0.350 N 
HETATM    3  O   UNL     1      40.541 -17.098   6.623  1.00  0.00    -0.267 OA
HETATM    4  H   UNL     1      43.380 -17.118   5.210  1.00  0.00     0.163 HD
ENDROOT
BRANCH   2   5
HETATM    5  C   UNL     1      43.172 -18.118   7.081  1.00  0.00     0.114 C 
HETATM    6  C   UNL     1      43.232 -17.166   8.277  1.00  0.00     0.035 C 
BRANCH   5   7
HETATM    7  C   UNL     1      44.561 -18.764   6.815  1.00  0.00     0.173 C 
BRANCH   7   8
HETATM    8  O   UNL     1      45.537 -17.754   6.522  1.00  0.00    -0.389 OA
HETATM    9  H   UNL     1      45.856 -17.417   7.377  1.00  0.00     0.210 HD
ENDBRANCH   7   8
BRANCH   7  10
HETATM   10  C   UNL     1      44.545 -19.808   5.712  1.00  0.00    -0.028 A 
HETATM   11  C   UNL     1      44.690 -19.419   4.375  1.00  0.00     0.012 A 
HETATM   12  C   UNL     1      44.694 -20.375   3.354  1.00  0.00     0.037 A 
HETATM   13  C   UNL     1      44.565 -21.734   3.648  1.00  0.00     0.068 A 
HETATM   14  C   UNL     1      44.412 -22.130   4.975  1.00  0.00     0.037 A 
HETATM   15  C   UNL     1      44.400 -21.175   5.997  1.00  0.00     0.012 A 
BRANCH  13  16
HETATM   16  O   UNL     1      44.597 -22.562   2.560  1.00  0.00    -0.356 OA
HETATM   17  C   UNL     1      43.994 -22.071   1.368  1.00  0.00     0.210 C 
ENDBRANCH  13  16
ENDBRANCH   7  10
ENDBRANCH   5   7
ENDBRANCH   2   5
BRANCH   1  18
HETATM   18  C   UNL     1      41.149 -16.209   4.534  1.00  0.00     0.105 A 
HETATM   19  C   UNL     1      40.514 -14.949   4.369  1.00  0.00     0.071 A 
HETATM   20  C   UNL     1      39.964 -14.064   5.429  1.00  0.00     0.073 C 
HETATM   21  N   UNL     1      40.432 -14.581   3.086  1.00  0.00    -0.170 NA
HETATM   22  N   UNL     1      41.011 -15.588   2.400  1.00  0.00    -0.225 N 
HETATM   23  C   UNL     1      41.457 -16.610   3.245  1.00  0.00     0.168 A 
HETATM   24  C   UNL     1      41.185 -15.683   1.024  1.00  0.00     0.122 A 
HETATM   25  N   UNL     1      42.070 -17.739   2.753  1.00  0.00    -0.240 NA
HETATM   26  C   UNL     1      42.218 -17.789   1.463  1.00  0.00     0.120 A 
HETATM   27  C   UNL     1      41.782 -16.755   0.485  1.00  0.00     0.038 A 
ENDBRANCH   1  18
TORSDOF 6
ENDMDL
MODEL 2
REMARK VINA RESULT:      -7.7      3.116      6.833
REMARK  6 active torsions:
REMARK  status: ('A' for Active; 'I' for Inactive)
REMARK    1  A    between atoms: C_6  and  C_7 
REMARK       I    between atoms: C_7  and  N_8 
REMARK    2  A    between atoms: N_8  and  C_9 
REMARK    3  A    between atoms: C_9  and  C_10 
REMARK    4  A    between atoms: C_10  and  O_11 
REMARK    5  A    between atoms: C_10  and  C_12 
REMARK    6  A    between atoms: C_15  and  O_16 
ROOT
HETATM    1  C   UNL     1      43.358 -17.056   3.281  1.00  0.00     0.258 C 
HETATM    2  N   UNL     1      42.165 -16.623   3.800  1.00  0.00    -0.350 N 
HETATM    3  O   UNL     1      43.961 -16.451   2.400  1.00  0.00    -0.267 OA
HETATM    4  H   UNL     1      41.773 -17.128   4.593  1.00  0.00     0.163 HD
ENDROOT
BRANCH   2   5
HETATM    5  C   UNL     1      41.490 -15.399   3.380  1.00  0.00     0.114 C 
HETATM    6  C   UNL     1      41.110 -14.590   4.621  1.00  0.00     0.035 C 
BRANCH   5   7
HETATM    7  C   UNL     1      40.238 -15.709   2.513  1.00  0.00     0.173 C 
BRANCH   7   8
HETATM    8  O   UNL     1      39.856 -17.084   2.656  1.00  0.00    -0.389 OA
HETATM    9  H   UNL     1      38.901 -17.091   2.844  1.00  0.00     0.210 HD
ENDBRANCH   7   8
BRANCH   7  10
HETATM   10  C   UNL     1      40.416 -15.367   1.044  1.00  0.00    -0.028 A 
HETATM   11  C   UNL     1      41.191 -16.194   0.220  1.00  0.00     0.012 A 
HETATM   12  C   UNL     1      41.346 -15.897  -1.138  1.00  0.00     0.037 A 
HETATM   13  C   UNL     1      40.725 -14.781  -1.700  1.00  0.00     0.068 A 
HETATM   14  C   UNL     1      39.959 -13.948  -0.887  1.00  0.00     0.037 A 
HETATM   15  C   UNL     1      39.809 -14.238   0.473  1.00  0.00     0.012 A 
BRANCH  13  16
HETATM   16  O   UNL     1      40.949 -14.613  -3.039  1.00  0.00    -0.356 OA
HETATM   17  C   UNL     1      41.017 -13.273  -3.511  1.00  0.00     0.210 C 
ENDBRANCH  13  16
ENDBRANCH   7  10
ENDBRANCH   5   7
ENDBRANCH   2   5
BRANCH   1  18
HETATM   18  C   UNL     1      43.856 -18.298   3.850  1.00  0.00     0.105 A 
HETATM   19  C   UNL     1      44.382 -18.511   5.153  1.00  0.00     0.071 A 
HETATM   20  C   UNL     1      44.548 -17.512   6.240  1.00  0.00     0.073 C 
HETATM   21  N   UNL     1      44.755 -19.780   5.353  1.00  0.00    -0.170 NA
HETATM   22  N   UNL     1      44.476 -20.409   4.192  1.00  0.00    -0.225 N 
HETATM   23  C   UNL     1      43.933 -19.539   3.241  1.00  0.00     0.168 A 
HETATM   24  C   UNL     1      44.674 -21.752   3.889  1.00  0.00     0.122 A 
HETATM   25  N   UNL     1      43.584 -19.970   1.982  1.00  0.00    -0.240 NA
HETATM   26  C   UNL     1      43.780 -21.232   1.739  1.00  0.00     0.120 A 
HETATM   27  C   UNL     1      44.346 -22.234   2.683  1.00  0.00     0.038 A 
ENDBRANCH   1  18
TORSDOF 6
ENDMDL
MODEL 3
REMARK VINA RESULT:      -7.4      2.583      5.187
REMARK  6 active torsions:
REMARK  status: ('A' for Active; 'I' for Inactive)
REMARK    1  A    between atoms: C_6  and  C_7 
REMARK       I    between atoms: C_7  and  N_8 
REMARK    2  A    between atoms: N_8  and  C_9 
REMARK    3  A    between atoms: C_9  and  C_10 
REMARK    4  A    between atoms: C_10  and  O_11 
REMARK    5  A    between atoms: C_10  and  C_12 
REMARK    6  A    between atoms: C_15  and  O_16 
ROOT
HETATM    1  C   UNL     1      43.229 -14.541   4.497  1.00  0.00     0.258 C 
HETATM    2  N   UNL     1      42.086 -14.964   3.868  1.00  0.00    -0.350 N 
HETATM    3  O   UNL     1      43.910 -13.607   4.088  1.00  0.00    -0.267 OA
HETATM    4  H   UNL     1      41.525 -15.684   4.321  1.00  0.00     0.163 HD
ENDROOT
BRANCH   2   5
HETATM    5  C   UNL     1      41.546 -14.347   2.661  1.00  0.00     0.114 C 
HETATM    6  C   UNL     1      40.021 -14.468   2.680  1.00  0.00     0.035 C 
BRANCH   5   7
HETATM    7  C   UNL     1      42.138 -14.995   1.378  1.00  0.00     0.173 C 
BRANCH   7   8
HETATM    8  O   UNL     1      41.217 -14.875   0.285  1.00  0.00    -0.389 OA
HETATM    9  H   UNL     1      40.325 -14.845   0.672  1.00  0.00     0.210 HD
ENDBRANCH   7   8
BRANCH   7  10
HETATM   10  C   UNL     1      42.543 -16.447   1.562  1.00  0.00    -0.028 A 
HETATM   11  C   UNL     1      41.562 -17.441   1.668  1.00  0.00     0.012 A 
HETATM   12  C   UNL     1      41.925 -18.783   1.819  1.00  0.00     0.037 A 
HETATM   13  C   UNL     1      43.269 -19.159   1.855  1.00  0.00     0.068 A 
HETATM   14  C   UNL     1      44.252 -18.177   1.759  1.00  0.00     0.037 A 
HETATM   15  C   UNL     1      43.891 -16.832   1.615  1.00  0.00     0.012 A 
BRANCH  13  16
HETATM   16  O   UNL     1      43.486 -20.503   1.995  1.00  0.00    -0.356 OA
HETATM   17  C   UNL     1      44.640 -20.889   2.730  1.00  0.00     0.210 C 
ENDBRANCH  13  16
ENDBRANCH   7  10
ENDBRANCH   5   7
ENDBRANCH   2   5
BRANCH   1  18
HETATM   18  C   UNL     1      43.582 -15.293   5.691  1.00  0.00     0.105 A 
HETATM   19  C   UNL     1      44.087 -14.791   6.921  1.00  0.00     0.071 A 
HETATM   20  C   UNL     1      44.374 -13.376   7.275  1.00  0.00     0.073 C 
HETATM   21  N   UNL     1      44.310 -15.759   7.817  1.00  0.00    -0.170 NA
HETATM   22  N   UNL     1      43.953 -16.899   7.188  1.00  0.00    -0.225 N 
HETATM   23  C   UNL     1      43.510 -16.663   5.883  1.00  0.00     0.168 A 
HETATM   24  C   UNL     1      43.991 -18.193   7.698  1.00  0.00     0.122 A 
HETATM   25  N   UNL     1      43.106 -17.688   5.059  1.00  0.00    -0.240 NA
HETATM   26  C   UNL     1      43.152 -18.881   5.573  1.00  0.00     0.120 A 
HETATM   27  C   UNL     1      43.603 -19.232   6.947  1.00  0.00     0.038 A 
ENDBRANCH   1  18
TORSDOF 6
ENDMDL
MODEL 4
REMARK VINA RESULT:      -7.3      2.872      3.929
REMARK  6 active torsions:
REMARK  status: ('A' for Active; 'I' for Inactive)
REMARK    1  A    between atoms: C_6  and  C_7 
REMARK       I    between atoms: C_7  and  N_8 
REMARK    2  A    between atoms: N_8  and  C_9 
REMARK    3  A    between atoms: C_9  and  C_10 
REMARK    4  A    between atoms: C_10  and  O_11 
REMARK    5  A    between atoms: C_10  and  C_12 
REMARK    6  A    between atoms: C_15  and  O_16 
ROOT
HETATM    1  C   UNL     1      40.325 -15.501   1.745  1.00  0.00     0.258 C 
HETATM    2  N   UNL     1      41.119 -14.962   2.724  1.00  0.00    -0.350 N 
HETATM    3  O   UNL     1      39.928 -16.662   1.770  1.00  0.00    -0.267 OA
HETATM    4  H   UNL     1      41.329 -13.966   2.680  1.00  0.00     0.163 HD
ENDROOT
BRANCH   2   5
HETATM    5  C   UNL     1      41.567 -15.694   3.904  1.00  0.00     0.114 C 
HETATM    6  C   UNL     1      41.138 -14.930   5.157  1.00  0.00     0.035 C 
BRANCH   5   7
HETATM    7  C   UNL     1      43.106 -15.915   3.887  1.00  0.00     0.173 C 
BRANCH   7   8
HETATM    8  O   UNL     1      43.723 -15.065   2.910  1.00  0.00    -0.389 OA
HETATM    9  H   UNL     1      44.264 -15.640   2.341  1.00  0.00     0.210 HD
ENDBRANCH   7   8
BRANCH   7  10
HETATM   10  C   UNL     1      43.510 -17.360   3.651  1.00  0.00    -0.028 A 
HETATM   11  C   UNL     1      43.416 -17.915   2.369  1.00  0.00     0.012 A 
HETATM   12  C   UNL     1      43.803 -19.239   2.139  1.00  0.00     0.037 A 
HETATM   13  C   UNL     1      44.300 -20.028   3.178  1.00  0.00     0.068 A 
HETATM   14  C   UNL     1      44.390 -19.487   4.459  1.00  0.00     0.037 A 
HETATM   15  C   UNL     1      43.996 -18.165   4.692  1.00  0.00     0.012 A 
BRANCH  13  16
HETATM   16  O   UNL     1      44.653 -21.299   2.815  1.00  0.00    -0.356 OA
HETATM   17  C   UNL     1      44.011 -21.834   1.664  1.00  0.00     0.210 C 
ENDBRANCH  13  16
ENDBRANCH   7  10
ENDBRANCH   5   7
ENDBRANCH   2   5
BRANCH   1  18
HETATM   18  C   UNL     1      39.990 -14.591   0.661  1.00  0.00     0.105 A 
HETATM   19  C   UNL     1      39.247 -13.381   0.735  1.00  0.00     0.071 A 
HETATM   20  C   UNL     1      38.636 -12.764   1.941  1.00  0.00     0.073 C 
HETATM   21  N   UNL     1      39.119 -12.785  -0.455  1.00  0.00    -0.170 NA
HETATM   22  N   UNL     1      39.776 -13.591  -1.317  1.00  0.00    -0.225 N 
HETATM   23  C   UNL     1      40.316 -14.711  -0.680  1.00  0.00     0.168 A 
HETATM   24  C   UNL     1      39.941 -13.407  -2.686  1.00  0.00     0.122 A 
HETATM   25  N   UNL     1      41.019 -15.670  -1.374  1.00  0.00    -0.240 NA
HETATM   26  C   UNL     1      41.155 -15.461  -2.649  1.00  0.00     0.120 A 
HETATM   27  C   UNL     1      40.621 -14.301  -3.414  1.00  0.00     0.038 A 
ENDBRANCH   1  18
TORSDOF 6
ENDMDL
MODEL 5
REMARK VINA RESULT:      -7.2      2.718      7.399
REMARK  6 active torsions:
REMARK  status: ('A' for Active; 'I' for Inactive)
REMARK    1  A    between atoms: C_6  and  C_7 
REMARK       I    between atoms: C_7  and  N_8 
REMARK    2  A    between atoms: N_8  and  C_9 
REMARK    3  A    between atoms: C_9  and  C_10 
REMARK    4  A    between atoms: C_10  and  O_11 
REMARK    5  A    between atoms: C_10  and  C_12 
REMARK    6  A    between atoms: C_15  and  O_16 
ROOT
HETATM    1  C   UNL     1      42.210 -16.560   3.881  1.00  0.00     0.258 C 
HETATM    2  N   UNL     1      42.464 -15.927   2.691  1.00  0.00    -0.350 N 
HETATM    3  O   UNL     1      41.269 -16.260   4.609  1.00  0.00    -0.267 OA
HETATM    4  H   UNL     1      43.207 -16.295   2.098  1.00  0.00     0.163 HD
ENDROOT
BRANCH   2   5
HETATM    5  C   UNL     1      41.645 -14.847   2.152  1.00  0.00     0.114 C 
HETATM    6  C   UNL     1      41.613 -14.959   0.627  1.00  0.00     0.035 C 
BRANCH   5   7
HETATM    7  C   UNL     1      42.176 -13.455   2.596  1.00  0.00     0.173 C 
BRANCH   7   8
HETATM    8  O   UNL     1      43.542 -13.552   3.024  1.00  0.00    -0.389 OA
HETATM    9  H   UNL     1      43.524 -13.680   3.988  1.00  0.00     0.210 HD
ENDBRANCH   7   8
BRANCH   7  10
HETATM   10  C   UNL     1      41.336 -12.801   3.679  1.00  0.00    -0.028 A 
HETATM   11  C   UNL     1      41.923 -12.431   4.896  1.00  0.00     0.012 A 
HETATM   12  C   UNL     1      41.161 -11.812   5.892  1.00  0.00     0.037 A 
HETATM   13  C   UNL     1      39.807 -11.541   5.689  1.00  0.00     0.068 A 
HETATM   14  C   UNL     1      39.212 -11.911   4.486  1.00  0.00     0.037 A 
HETATM   15  C   UNL     1      39.971 -12.538   3.490  1.00  0.00     0.012 A 
BRANCH  13  16
HETATM   16  O   UNL     1      39.183 -10.922   6.738  1.00  0.00    -0.356 OA
HETATM   17  C   UNL     1      39.458 -11.435   8.036  1.00  0.00     0.210 C 
ENDBRANCH  13  16
ENDBRANCH   7  10
ENDBRANCH   5   7
ENDBRANCH   2   5
BRANCH   1  18
HETATM   18  C   UNL     1      43.150 -17.616   4.223  1.00  0.00     0.105 A 
HETATM   19  C   UNL     1      43.990 -17.699   5.366  1.00  0.00     0.071 A 
HETATM   20  C   UNL     1      44.106 -16.723   6.481  1.00  0.00     0.073 C 
HETATM   21  N   UNL     1      44.739 -18.808   5.372  1.00  0.00    -0.170 NA
HETATM   22  N   UNL     1      44.397 -19.461   4.241  1.00  0.00    -0.225 N 
HETATM   23  C   UNL     1      43.435 -18.764   3.503  1.00  0.00     0.168 A 
HETATM   24  C   UNL     1      44.891 -20.678   3.785  1.00  0.00     0.122 A 
HETATM   25  N   UNL     1      42.951 -19.246   2.308  1.00  0.00    -0.240 NA
HETATM   26  C   UNL     1      43.434 -20.388   1.919  1.00  0.00     0.120 A 
HETATM   27  C   UNL     1      44.453 -21.203   2.634  1.00  0.00     0.038 A 
ENDBRANCH   1  18
TORSDOF 6
ENDMDL
MODEL 6
REMARK VINA RESULT:      -7.2      3.345      7.513
REMARK  6 active torsions:
REMARK  status: ('A' for Active; 'I' for Inactive)
REMARK    1  A    between atoms: C_6  and  C_7 
REMARK       I    between atoms: C_7  and  N_8 
REMARK    2  A    between atoms: N_8  and  C_9 
REMARK    3  A    between atoms: C_9  and  C_10 
REMARK    4  A    between atoms: C_10  and  O_11 
REMARK    5  A    between atoms: C_10  and  C_12 
REMARK    6  A    between atoms: C_15  and  O_16 
ROOT
HETATM    1  C   UNL     1      42.550 -16.269   3.394  1.00  0.00     0.258 C 
HETATM    2  N   UNL     1      41.266 -15.946   3.754  1.00  0.00    -0.350 N 
HETATM    3  O   UNL     1      43.194 -15.627   2.571  1.00  0.00    -0.267 OA
HETATM    4  H   UNL     1      40.832 -16.472   4.512  1.00  0.00     0.163 HD
ENDROOT
BRANCH   2   5
HETATM    5  C   UNL     1      40.533 -14.804   3.219  1.00  0.00     0.114 C 
HETATM    6  C   UNL     1      39.979 -13.979   4.381  1.00  0.00     0.035 C 
BRANCH   5   7
HETATM    7  C   UNL     1      39.392 -15.258   2.265  1.00  0.00     0.173 C 
BRANCH   7   8
HETATM    8  O   UNL     1      39.379 -16.687   2.142  1.00  0.00    -0.389 OA
HETATM    9  H   UNL     1      40.202 -17.010   2.547  1.00  0.00     0.210 HD
ENDBRANCH   7   8
BRANCH   7  10
HETATM   10  C   UNL     1      39.460 -14.617   0.889  1.00  0.00    -0.028 A 
HETATM   11  C   UNL     1      40.645 -14.675   0.145  1.00  0.00     0.012 A 
HETATM   12  C   UNL     1      40.711 -14.104  -1.130  1.00  0.00     0.037 A 
HETATM   13  C   UNL     1      39.597 -13.476  -1.689  1.00  0.00     0.068 A 
HETATM   14  C   UNL     1      38.416 -13.406  -0.954  1.00  0.00     0.037 A 
HETATM   15  C   UNL     1      38.350 -13.971   0.325  1.00  0.00     0.012 A 
BRANCH  13  16
HETATM   16  O   UNL     1      39.793 -12.971  -2.945  1.00  0.00    -0.356 OA
HETATM   17  C   UNL     1      40.991 -13.358  -3.608  1.00  0.00     0.210 C 
ENDBRANCH  13  16
ENDBRANCH   7  10
ENDBRANCH   5   7
ENDBRANCH   2   5
BRANCH   1  18
HETATM   18  C   UNL     1      43.092 -17.444   4.058  1.00  0.00     0.105 A 
HETATM   19  C   UNL     1      43.606 -18.626   3.458  1.00  0.00     0.071 A 
HETATM   20  C   UNL     1      43.707 -18.938   2.008  1.00  0.00     0.073 C 
HETATM   21  N   UNL     1      44.025 -19.518   4.362  1.00  0.00    -0.170 NA
HETATM   22  N   UNL     1      43.795 -18.933   5.556  1.00  0.00    -0.225 N 
HETATM   23  C   UNL     1      43.217 -17.668   5.419  1.00  0.00     0.168 A 
HETATM   24  C   UNL     1      44.064 -19.454   6.818  1.00  0.00     0.122 A 
HETATM   25  N   UNL     1      42.890 -16.899   6.512  1.00  0.00    -0.240 NA
HETATM   26  C   UNL     1      43.161 -17.417   7.672  1.00  0.00     0.120 A 
HETATM   27  C   UNL     1      43.776 -18.750   7.920  1.00  0.00     0.038 A 
ENDBRANCH   1  18
TORSDOF 6
ENDMDL
MODEL 7
REMARK VINA RESULT:      -7.2      3.566      7.326
REMARK  6 active torsions:
REMARK  status: ('A' for Active; 'I' for Inactive)
REMARK    1  A    between atoms: C_6  and  C_7 
REMARK       I    between atoms: C_7  and  N_8 
REMARK    2  A    between atoms: N_8  and  C_9 
REMARK    3  A    between atoms: C_9  and  C_10 
REMARK    4  A    between atoms: C_10  and  O_11 
REMARK    5  A    between atoms: C_10  and  C_12 
REMARK    6  A    between atoms: C_15  and  O_16 
ROOT
HETATM    1  C   UNL     1      42.472 -16.585   3.818  1.00  0.00     0.258 C 
HETATM    2  N   UNL     1      41.849 -17.001   2.669  1.00  0.00    -0.350 N 
HETATM    3  O   UNL     1      42.616 -15.402   4.109  1.00  0.00    -0.267 OA
HETATM    4  H   UNL     1      41.684 -17.999   2.544  1.00  0.00     0.163 HD
ENDROOT
BRANCH   2   5
HETATM    5  C   UNL     1      41.277 -16.094   1.680  1.00  0.00     0.114 C 
HETATM    6  C   UNL     1      39.765 -16.014   1.891  1.00  0.00     0.035 C 
BRANCH   5   7
HETATM    7  C   UNL     1      41.612 -16.549   0.231  1.00  0.00     0.173 C 
BRANCH   7   8
HETATM    8  O   UNL     1      42.952 -17.057   0.162  1.00  0.00    -0.389 OA
HETATM    9  H   UNL     1      42.978 -17.679  -0.586  1.00  0.00     0.210 HD
ENDBRANCH   7   8
BRANCH   7  10
HETATM   10  C   UNL     1      41.414 -15.460  -0.809  1.00  0.00    -0.028 A 
HETATM   11  C   UNL     1      41.721 -14.129  -0.500  1.00  0.00     0.012 A 
HETATM   12  C   UNL     1      41.558 -13.123  -1.457  1.00  0.00     0.037 A 
HETATM   13  C   UNL     1      41.098 -13.426  -2.740  1.00  0.00     0.068 A 
HETATM   14  C   UNL     1      40.783 -14.745  -3.055  1.00  0.00     0.037 A 
HETATM   15  C   UNL     1      40.938 -15.753  -2.096  1.00  0.00     0.012 A 
BRANCH  13  16
HETATM   16  O   UNL     1      40.996 -12.351  -3.581  1.00  0.00    -0.356 OA
HETATM   17  C   UNL     1      42.137 -11.508  -3.680  1.00  0.00     0.210 C 
ENDBRANCH  13  16
ENDBRANCH   7  10
ENDBRANCH   5   7
ENDBRANCH   2   5
BRANCH   1  18
HETATM   18  C   UNL     1      42.960 -17.659   4.670  1.00  0.00     0.105 A 
HETATM   19  C   UNL     1      42.851 -17.770   6.082  1.00  0.00     0.071 A 
HETATM   20  C   UNL     1      42.212 -16.812   7.022  1.00  0.00     0.073 C 
HETATM   21  N   UNL     1      43.414 -18.889   6.553  1.00  0.00    -0.170 NA
HETATM   22  N   UNL     1      43.892 -19.520   5.460  1.00  0.00    -0.225 N 
HETATM   23  C   UNL     1      43.646 -18.800   4.287  1.00  0.00     0.168 A 
HETATM   24  C   UNL     1      44.563 -20.738   5.413  1.00  0.00     0.122 A 
HETATM   25  N   UNL     1      44.057 -19.257   3.057  1.00  0.00    -0.240 NA
HETATM   26  C   UNL     1      44.677 -20.400   3.054  1.00  0.00     0.120 A 
HETATM   27  C   UNL     1      44.982 -21.239   4.244  1.00  0.00     0.038 A 
ENDBRANCH   1  18
TORSDOF 6
ENDMDL
MODEL 8
REMARK VINA RESULT:      -7.2      3.433      4.909
REMARK  6 active torsions:
REMARK  status: ('A' for Active; 'I' for Inactive)
REMARK    1  A    between atoms: C_6  and  C_7 
REMARK       I    between atoms: C_7  and  N_8 
REMARK    2  A    between atoms: N_8  and  C_9 
REMARK    3  A    between atoms: C_9  and  C_10 
REMARK    4  A    between atoms: C_10  and  O_11 
REMARK    5  A    between atoms: C_10  and  C_12 
REMARK    6  A    between atoms: C_15  and  O_16 
ROOT
HETATM    1  C   UNL     1      40.831 -14.879   0.916  1.00  0.00     0.258 C 
HETATM    2  N   UNL     1      40.534 -16.215   1.011  1.00  0.00    -0.350 N 
HETATM    3  O   UNL     1      41.628 -14.317   1.660  1.00  0.00    -0.267 OA
HETATM    4  H   UNL     1      39.934 -16.627   0.298  1.00  0.00     0.163 HD
ENDROOT
BRANCH   2   5
HETATM    5  C   UNL     1      41.138 -17.115   1.988  1.00  0.00     0.114 C 
HETATM    6  C   UNL     1      40.789 -16.630   3.396  1.00  0.00     0.035 C 
BRANCH   5   7
HETATM    7  C   UNL     1      42.679 -17.208   1.798  1.00  0.00     0.173 C 
BRANCH   7   8
HETATM    8  O   UNL     1      43.022 -17.081   0.412  1.00  0.00    -0.389 OA
HETATM    9  H   UNL     1      43.537 -16.260   0.325  1.00  0.00     0.210 HD
ENDBRANCH   7   8
BRANCH   7  10
HETATM   10  C   UNL     1      43.285 -18.478   2.371  1.00  0.00    -0.028 A 
HETATM   11  C   UNL     1      43.247 -19.669   1.634  1.00  0.00     0.012 A 
HETATM   12  C   UNL     1      43.818 -20.838   2.145  1.00  0.00     0.037 A 
HETATM   13  C   UNL     1      44.447 -20.839   3.392  1.00  0.00     0.068 A 
HETATM   14  C   UNL     1      44.484 -19.662   4.136  1.00  0.00     0.037 A 
HETATM   15  C   UNL     1      43.905 -18.492   3.629  1.00  0.00     0.012 A 
BRANCH  13  16
HETATM   16  O   UNL     1      44.974 -22.045   3.767  1.00  0.00    -0.356 OA
HETATM   17  C   UNL     1      45.072 -22.289   5.165  1.00  0.00     0.210 C 
ENDBRANCH  13  16
ENDBRANCH   7  10
ENDBRANCH   5   7
ENDBRANCH   2   5
BRANCH   1  18
HETATM   18  C   UNL     1      40.119 -14.170  -0.136  1.00  0.00     0.105 A 
HETATM   19  C   UNL     1      38.737 -13.842  -0.185  1.00  0.00     0.071 A 
HETATM   20  C   UNL     1      37.694 -14.150   0.828  1.00  0.00     0.073 C 
HETATM   21  N   UNL     1      38.406 -13.185  -1.302  1.00  0.00    -0.170 NA
HETATM   22  N   UNL     1      39.561 -13.074  -1.991  1.00  0.00    -0.225 N 
HETATM   23  C   UNL     1      40.633 -13.670  -1.320  1.00  0.00     0.168 A 
HETATM   24  C   UNL     1      39.753 -12.461  -3.225  1.00  0.00     0.122 A 
HETATM   25  N   UNL     1      41.903 -13.680  -1.849  1.00  0.00    -0.240 NA
HETATM   26  C   UNL     1      42.043 -13.093  -3.001  1.00  0.00     0.120 A 
HETATM   27  C   UNL     1      40.968 -12.431  -3.789  1.00  0.00     0.038 A 
ENDBRANCH   1  18
TORSDOF 6
ENDMDL
MODEL 9
REMARK VINA RESULT:      -7.1      3.861      5.553
REMARK  6 active torsions:
REMARK  status: ('A' for Active; 'I' for Inactive)
REMARK    1  A    between atoms: C_6  and  C_7 
REMARK       I    between atoms: C_7  and  N_8 
REMARK    2  A    between atoms: N_8  and  C_9 
REMARK    3  A    between atoms: C_9  and  C_10 
REMARK    4  A    between atoms: C_10  and  O_11 
REMARK    5  A    between atoms: C_10  and  C_12 
REMARK    6  A    between atoms: C_15  and  O_16 
ROOT
HETATM    1  C   UNL     1      41.049 -14.237   0.390  1.00  0.00     0.258 C 
HETATM    2  N   UNL     1      41.914 -14.217   1.454  1.00  0.00    -0.350 N 
HETATM    3  O   UNL     1      39.966 -14.812   0.421  1.00  0.00    -0.267 OA
HETATM    4  H   UNL     1      42.752 -13.640   1.383  1.00  0.00     0.163 HD
ENDROOT
BRANCH   2   5
HETATM    5  C   UNL     1      41.643 -14.857   2.736  1.00  0.00     0.114 C 
HETATM    6  C   UNL     1      40.773 -13.927   3.583  1.00  0.00     0.035 C 
BRANCH   5   7
HETATM    7  C   UNL     1      42.958 -15.218   3.482  1.00  0.00     0.173 C 
BRANCH   7   8
HETATM    8  O   UNL     1      44.022 -14.347   3.073  1.00  0.00    -0.389 OA
HETATM    9  H   UNL     1      44.335 -14.672   2.211  1.00  0.00     0.210 HD
ENDBRANCH   7   8
BRANCH   7  10
HETATM   10  C   UNL     1      43.377 -16.668   3.308  1.00  0.00    -0.028 A 
HETATM   11  C   UNL     1      43.710 -17.156   2.039  1.00  0.00     0.012 A 
HETATM   12  C   UNL     1      44.114 -18.484   1.872  1.00  0.00     0.037 A 
HETATM   13  C   UNL     1      44.203 -19.345   2.967  1.00  0.00     0.068 A 
HETATM   14  C   UNL     1      43.866 -18.872   4.233  1.00  0.00     0.037 A 
HETATM   15  C   UNL     1      43.455 -17.545   4.401  1.00  0.00     0.012 A 
BRANCH  13  16
HETATM   16  O   UNL     1      44.621 -20.613   2.668  1.00  0.00    -0.356 OA
HETATM   17  C   UNL     1      43.747 -21.400   1.868  1.00  0.00     0.210 C 
ENDBRANCH  13  16
ENDBRANCH   7  10
ENDBRANCH   5   7
ENDBRANCH   2   5
BRANCH   1  18
HETATM   18  C   UNL     1      41.517 -13.527  -0.790  1.00  0.00     0.105 A 
HETATM   19  C   UNL     1      41.500 -13.973  -2.140  1.00  0.00     0.071 A 
HETATM   20  C   UNL     1      41.000 -15.272  -2.661  1.00  0.00     0.073 C 
HETATM   21  N   UNL     1      42.011 -13.070  -2.983  1.00  0.00    -0.170 NA
HETATM   22  N   UNL     1      42.364 -12.028  -2.201  1.00  0.00    -0.225 N 
HETATM   23  C   UNL     1      42.089 -12.267  -0.852  1.00  0.00     0.168 A 
HETATM   24  C   UNL     1      42.940 -10.827  -2.602  1.00  0.00     0.122 A 
HETATM   25  N   UNL     1      42.378 -11.339   0.122  1.00  0.00    -0.240 NA
HETATM   26  C   UNL     1      42.911 -10.229  -0.293  1.00  0.00     0.120 A 
HETATM   27  C   UNL     1      43.238  -9.881  -1.702  1.00  0.00     0.038 A 
ENDBRANCH   1  18
TORSDOF 6
ENDMDL
MODEL 10
REMARK VINA RESULT:      -7.1      2.925      6.360
REMARK  6 active torsions:
REMARK  status: ('A' for Active; 'I' for Inactive)
REMARK    1  A    between atoms: C_6  and  C_7 
REMARK       I    between atoms: C_7  and  N_8 
REMARK    2  A    between atoms: N_8  and  C_9 
REMARK    3  A    between atoms: C_9  and  C_10 
REMARK    4  A    between atoms: C_10  and  O_11 
REMARK    5  A    between atoms: C_10  and  C_12 
REMARK    6  A    between atoms: C_15  and  O_16 
ROOT
HETATM    1  C   UNL     1      43.553 -16.816   5.297  1.00  0.00     0.258 C 
HETATM    2  N   UNL     1      42.736 -16.408   4.273  1.00  0.00    -0.350 N 
HETATM    3  O   UNL     1      43.976 -16.052   6.158  1.00  0.00    -0.267 OA
HETATM    4  H   UNL     1      42.350 -17.118   3.652  1.00  0.00     0.163 HD
ENDROOT
BRANCH   2   5
HETATM    5  C   UNL     1      42.269 -15.036   4.102  1.00  0.00     0.114 C 
HETATM    6  C   UNL     1      40.746 -15.043   3.959  1.00  0.00     0.035 C 
BRANCH   5   7
HETATM    7  C   UNL     1      42.939 -14.356   2.875  1.00  0.00     0.173 C 
BRANCH   7   8
HETATM    8  O   UNL     1      43.130 -12.956   3.120  1.00  0.00    -0.389 OA
HETATM    9  H   UNL     1      44.054 -12.755   2.888  1.00  0.00     0.210 HD
ENDBRANCH   7   8
BRANCH   7  10
HETATM   10  C   UNL     1      42.176 -14.558   1.577  1.00  0.00    -0.028 A 
HETATM   11  C   UNL     1      41.546 -13.472   0.957  1.00  0.00     0.012 A 
HETATM   12  C   UNL     1      40.856 -13.645  -0.248  1.00  0.00     0.037 A 
HETATM   13  C   UNL     1      40.793 -14.898  -0.860  1.00  0.00     0.068 A 
HETATM   14  C   UNL     1      41.410 -15.986  -0.247  1.00  0.00     0.037 A 
HETATM   15  C   UNL     1      42.094 -15.817   0.962  1.00  0.00     0.012 A 
BRANCH  13  16
HETATM   16  O   UNL     1      40.099 -14.927  -2.039  1.00  0.00    -0.356 OA
HETATM   17  C   UNL     1      40.652 -15.715  -3.085  1.00  0.00     0.210 C 
ENDBRANCH  13  16
ENDBRANCH   7  10
ENDBRANCH   5   7
ENDBRANCH   2   5
BRANCH   1  18
HETATM   18  C   UNL     1      43.890 -18.231   5.281  1.00  0.00     0.105 A 
HETATM   19  C   UNL     1      44.128 -19.083   6.394  1.00  0.00     0.071 A 
HETATM   20  C   UNL     1      44.090 -18.726   7.836  1.00  0.00     0.073 C 
HETATM   21  N   UNL     1      44.418 -20.335   6.025  1.00  0.00    -0.170 NA
HETATM   22  N   UNL     1      44.371 -20.319   4.677  1.00  0.00    -0.225 N 
HETATM   23  C   UNL     1      44.060 -19.050   4.178  1.00  0.00     0.168 A 
HETATM   24  C   UNL     1      44.593 -21.384   3.810  1.00  0.00     0.122 A 
HETATM   25  N   UNL     1      43.970 -18.806   2.827  1.00  0.00    -0.240 NA
HETATM   26  C   UNL     1      44.179 -19.827   2.050  1.00  0.00     0.120 A 
HETATM   27  C   UNL     1      44.511 -21.211   2.484  1.00  0.00     0.038 A 
ENDBRANCH   1  18
TORSDOF 6
ENDMDL
