MODEL 1
REMARK VINA RESULT:      -9.3      0.000      0.000
REMARK  7 active torsions:
REMARK  status: ('A' for Active; 'I' for Inactive)
REMARK    1  A    between atoms: C_2  and  C_3 
REMARK       I    between atoms: C_3  and  N_4 
REMARK    2  A    between atoms: N_4  and  N_5 
REMARK       I    between atoms: N_5  and  C_6 
REMARK    3  A    between atoms: C_6  and  C_7 
REMARK    4  A    between atoms: C_7  and  C_8 
REMARK    5  A    between atoms: C_8  and  C_9 
REMARK       I    between atoms: C_9  and  N_10 
REMARK    6  A    between atoms: N_10  and  C_11 
REMARK    7  A    between atoms: C_11  and  C_12 
ROOT
HETATM    1  C   UNL     1      45.210 -13.113   7.492  1.00  0.00     0.114 C 
ENDROOT
BRANCH   1   2
HETATM    2  C   UNL     1      45.070 -12.539   8.881  1.00  0.00     0.236 C 
HETATM    3  N   UNL     1      44.024 -13.043   9.617  1.00  0.00    -0.267 N 
HETATM    4  H   UNL     1      43.261 -13.583   9.208  1.00  0.00     0.190 HD
HETATM    5  O   UNL     1      45.808 -11.644   9.293  1.00  0.00    -0.272 OA
BRANCH   3   6
HETATM    6  N   UNL     1      43.758 -12.458  10.861  1.00  0.00    -0.263 N 
HETATM    7  C   UNL     1      42.836 -11.432  10.909  1.00  0.00     0.270 C 
HETATM    8  O   UNL     1      42.224 -11.050   9.915  1.00  0.00    -0.266 OA
HETATM    9  H   UNL     1      44.451 -12.622  11.590  1.00  0.00     0.190 HD
BRANCH   7  10
HETATM   10  C   UNL     1      42.625 -10.787  12.236  1.00  0.00     0.033 A 
HETATM   11  C   UNL     1      43.569  -9.849  12.678  1.00  0.00     0.018 A 
HETATM   12  C   UNL     1      43.398  -9.200  13.905  1.00  0.00     0.020 A 
HETATM   13  C   UNL     1      42.280  -9.483  14.686  1.00  0.00     0.011 A 
HETATM   14  C   UNL     1      41.328 -10.405  14.251  1.00  0.00     0.020 A 
HETATM   15 BR   UNL     1      42.040  -8.597  16.338  1.00  0.00    -0.051 Br
HETATM   16  C   UNL     1      41.498 -11.056  13.025  1.00  0.00     0.018 A 
ENDBRANCH   7  10
ENDBRANCH   3   6
ENDBRANCH   1   2
BRANCH   1  17
HETATM   17  C   UNL     1      44.359 -14.367   7.358  1.00  0.00     0.112 C 
BRANCH  17  18
HETATM   18  C   UNL     1      43.941 -14.635   5.925  1.00  0.00     0.218 C 
HETATM   19  N   UNL     1      43.642 -15.945   5.651  1.00  0.00    -0.357 N 
HETATM   20  H   UNL     1      43.423 -16.580   6.417  1.00  0.00     0.162 HD
HETATM   21  O   UNL     1      43.929 -13.746   5.080  1.00  0.00    -0.274 OA
BRANCH  19  22
HETATM   22  C   UNL     1      43.244 -16.374   4.331  1.00  0.00     0.161 C 
BRANCH  22  23
HETATM   23  C   UNL     1      43.685 -17.796   4.093  1.00  0.00    -0.038 A 
HETATM   24  C   UNL     1      43.415 -18.437   2.875  1.00  0.00     0.048 A 
HETATM   25  C   UNL     1      43.820 -19.748   2.729  1.00  0.00     0.105 A 
HETATM   26  C   UNL     1      44.469 -20.425   3.735  1.00  0.00     0.105 A 
HETATM   27  O   UNL     1      43.635 -20.517   1.622  1.00  0.00    -0.323 OA
HETATM   28  O   UNL     1      44.773 -21.705   3.388  1.00  0.00    -0.323 OA
HETATM   29  C   UNL     1      44.755 -19.831   4.942  1.00  0.00     0.040 A 
HETATM   30  C   UNL     1      44.248 -21.753   2.045  1.00  0.00     0.352 A 
HETATM   31  C   UNL     1      44.359 -18.502   5.120  1.00  0.00     0.012 A 
ENDBRANCH  22  23
ENDBRANCH  19  22
ENDBRANCH  17  18
ENDBRANCH   1  17
TORSDOF 7
ENDMDL
MODEL 2
REMARK VINA RESULT:      -9.3      4.229     11.191
REMARK  7 active torsions:
REMARK  status: ('A' for Active; 'I' for Inactive)
REMARK    1  A    between atoms: C_2  and  C_3 
REMARK       I    between atoms: C_3  and  N_4 
REMARK    2  A    between atoms: N_4  and  N_5 
REMARK       I    between atoms: N_5  and  C_6 
REMARK    3  A    between atoms: C_6  and  C_7 
REMARK    4  A    between atoms: C_7  and  C_8 
REMARK    5  A    between atoms: C_8  and  C_9 
REMARK       I    between atoms: C_9  and  N_10 
REMARK    6  A    between atoms: N_10  and  C_11 
REMARK    7  A    between atoms: C_11  and  C_12 
ROOT
HETATM    1  C   UNL     1      44.131 -13.316   7.601  1.00  0.00     0.114 C 
ENDROOT
BRANCH   1   2
HETATM    2  C   UNL     1      43.930 -14.303   6.476  1.00  0.00     0.236 C 
HETATM    3  N   UNL     1      43.489 -15.546   6.863  1.00  0.00    -0.267 N 
HETATM    4  H   UNL     1      43.509 -15.871   7.830  1.00  0.00     0.190 HD
HETATM    5  O   UNL     1      44.202 -14.022   5.308  1.00  0.00    -0.272 OA
BRANCH   3   6
HETATM    6  N   UNL     1      43.411 -16.546   5.885  1.00  0.00    -0.263 N 
HETATM    7  C   UNL     1      44.361 -17.547   5.908  1.00  0.00     0.270 C 
HETATM    8  O   UNL     1      45.234 -17.607   6.770  1.00  0.00    -0.266 OA
HETATM    9  H   UNL     1      42.850 -16.326   5.064  1.00  0.00     0.190 HD
BRANCH   7  10
HETATM   10  C   UNL     1      44.290 -18.558   4.815  1.00  0.00     0.033 A 
HETATM   11  C   UNL     1      44.905 -19.802   5.017  1.00  0.00     0.018 A 
HETATM   12  C   UNL     1      44.842 -20.790   4.030  1.00  0.00     0.020 A 
HETATM   13  C   UNL     1      44.156 -20.538   2.844  1.00  0.00     0.011 A 
HETATM   14  C   UNL     1      43.530 -19.309   2.636  1.00  0.00     0.020 A 
HETATM   15 BR   UNL     1      44.058 -21.876   1.512  1.00  0.00    -0.051 Br
HETATM   16  C   UNL     1      43.593 -18.319   3.622  1.00  0.00     0.018 A 
ENDBRANCH   7  10
ENDBRANCH   3   6
ENDBRANCH   1   2
BRANCH   1  17
HETATM   17  C   UNL     1      45.610 -13.004   7.762  1.00  0.00     0.112 C 
BRANCH  17  18
HETATM   18  C   UNL     1      45.867 -11.912   8.782  1.00  0.00     0.218 C 
HETATM   19  N   UNL     1      45.138 -12.023   9.938  1.00  0.00    -0.357 N 
HETATM   20  H   UNL     1      44.726 -12.921  10.185  1.00  0.00     0.162 HD
HETATM   21  O   UNL     1      46.631 -10.979   8.549  1.00  0.00    -0.274 OA
BRANCH  19  22
HETATM   22  C   UNL     1      45.250 -11.055  11.003  1.00  0.00     0.161 C 
BRANCH  22  23
HETATM   23  C   UNL     1      43.879 -10.658  11.488  1.00  0.00    -0.038 A 
HETATM   24  C   UNL     1      42.731 -11.009  10.762  1.00  0.00     0.048 A 
HETATM   25  C   UNL     1      41.507 -10.592  11.243  1.00  0.00     0.105 A 
HETATM   26  C   UNL     1      41.393  -9.853  12.397  1.00  0.00     0.105 A 
HETATM   27  O   UNL     1      40.301 -10.839  10.664  1.00  0.00    -0.323 OA
HETATM   28  O   UNL     1      40.102  -9.540  12.689  1.00  0.00    -0.323 OA
HETATM   29  C   UNL     1      42.494  -9.491  13.139  1.00  0.00     0.040 A 
HETATM   30  C   UNL     1      39.415 -10.175  11.590  1.00  0.00     0.352 A 
HETATM   31  C   UNL     1      43.748  -9.901  12.678  1.00  0.00     0.012 A 
ENDBRANCH  22  23
ENDBRANCH  19  22
ENDBRANCH  17  18
ENDBRANCH   1  17
TORSDOF 7
ENDMDL
MODEL 3
REMARK VINA RESULT:      -9.0      1.940      2.944
REMARK  7 active torsions:
REMARK  status: ('A' for Active; 'I' for Inactive)
REMARK    1  A    between atoms: C_2  and  C_3 
REMARK       I    between atoms: C_3  and  N_4 
REMARK    2  A    between atoms: N_4  and  N_5 
REMARK       I    between atoms: N_5  and  C_6 
REMARK    3  A    between atoms: C_6  and  C_7 
REMARK    4  A    between atoms: C_7  and  C_8 
REMARK    5  A    between atoms: C_8  and  C_9 
REMARK       I    between atoms: C_9  and  N_10 
REMARK    6  A    between atoms: N_10  and  C_11 
REMARK    7  A    between atoms: C_11  and  C_12 
ROOT
HETATM    1  C   UNL     1      43.587 -14.713   5.408  1.00  0.00     0.114 C 
ENDROOT
BRANCH   1   2
HETATM    2  C   UNL     1      43.178 -13.491   6.194  1.00  0.00     0.236 C 
HETATM    3  N   UNL     1      43.881 -13.284   7.357  1.00  0.00    -0.267 N 
HETATM    4  H   UNL     1      44.469 -13.996   7.790  1.00  0.00     0.190 HD
HETATM    5  O   UNL     1      42.242 -12.773   5.840  1.00  0.00    -0.272 OA
BRANCH   3   6
HETATM    6  N   UNL     1      43.462 -12.245   8.198  1.00  0.00    -0.263 N 
HETATM    7  C   UNL     1      44.066 -12.131   9.434  1.00  0.00     0.270 C 
HETATM    8  O   UNL     1      44.972 -12.878   9.796  1.00  0.00    -0.266 OA
HETATM    9  H   UNL     1      42.562 -11.823   7.974  1.00  0.00     0.190 HD
BRANCH   7  10
HETATM   10  C   UNL     1      43.551 -11.058  10.331  1.00  0.00     0.033 A 
HETATM   11  C   UNL     1      44.167 -10.879  11.579  1.00  0.00     0.018 A 
HETATM   12  C   UNL     1      43.735  -9.869  12.441  1.00  0.00     0.020 A 
HETATM   13  C   UNL     1      42.693  -9.029  12.054  1.00  0.00     0.011 A 
HETATM   14  C   UNL     1      42.080  -9.189  10.811  1.00  0.00     0.020 A 
HETATM   15 BR   UNL     1      42.115  -7.653  13.213  1.00  0.00    -0.051 Br
HETATM   16  C   UNL     1      42.510 -10.201   9.947  1.00  0.00     0.018 A 
ENDBRANCH   7  10
ENDBRANCH   3   6
ENDBRANCH   1   2
BRANCH   1  17
HETATM   17  C   UNL     1      42.512 -15.783   5.511  1.00  0.00     0.112 C 
BRANCH  17  18
HETATM   18  C   UNL     1      42.363 -16.584   4.233  1.00  0.00     0.218 C 
HETATM   19  N   UNL     1      43.544 -16.888   3.605  1.00  0.00    -0.357 N 
HETATM   20  H   UNL     1      44.416 -16.846   4.131  1.00  0.00     0.162 HD
HETATM   21  O   UNL     1      41.260 -16.882   3.783  1.00  0.00    -0.274 OA
BRANCH  19  22
HETATM   22  C   UNL     1      43.579 -17.630   2.367  1.00  0.00     0.161 C 
BRANCH  22  23
HETATM   23  C   UNL     1      43.842 -19.088   2.645  1.00  0.00    -0.038 A 
HETATM   24  C   UNL     1      44.361 -19.501   3.881  1.00  0.00     0.048 A 
HETATM   25  C   UNL     1      44.607 -20.846   4.065  1.00  0.00     0.105 A 
HETATM   26  C   UNL     1      44.358 -21.771   3.078  1.00  0.00     0.105 A 
HETATM   27  O   UNL     1      45.110 -21.415   5.193  1.00  0.00    -0.323 OA
HETATM   28  O   UNL     1      44.677 -23.038   3.460  1.00  0.00    -0.323 OA
HETATM   29  C   UNL     1      43.848 -21.407   1.853  1.00  0.00     0.040 A 
HETATM   30  C   UNL     1      45.145 -22.804   4.805  1.00  0.00     0.352 A 
HETATM   31  C   UNL     1      43.586 -20.051   1.638  1.00  0.00     0.012 A 
ENDBRANCH  22  23
ENDBRANCH  19  22
ENDBRANCH  17  18
ENDBRANCH   1  17
TORSDOF 7
ENDMDL
MODEL 4
REMARK VINA RESULT:      -8.9      6.380      9.704
REMARK  7 active torsions:
REMARK  status: ('A' for Active; 'I' for Inactive)
REMARK    1  A    between atoms: C_2  and  C_3 
REMARK       I    between atoms: C_3  and  N_4 
REMARK    2  A    between atoms: N_4  and  N_5 
REMARK       I    between atoms: N_5  and  C_6 
REMARK    3  A    between atoms: C_6  and  C_7 
REMARK    4  A    between atoms: C_7  and  C_8 
REMARK    5  A    between atoms: C_8  and  C_9 
REMARK       I    between atoms: C_9  and  N_10 
REMARK    6  A    between atoms: N_10  and  C_11 
REMARK    7  A    between atoms: C_11  and  C_12 
ROOT
HETATM    1  C   UNL     1      40.805 -14.306  -0.185  1.00  0.00     0.114 C 
ENDROOT
BRANCH   1   2
HETATM    2  C   UNL     1      41.155 -15.509   0.658  1.00  0.00     0.236 C 
HETATM    3  N   UNL     1      42.421 -16.008   0.465  1.00  0.00    -0.267 N 
HETATM    4  H   UNL     1      43.007 -15.755  -0.331  1.00  0.00     0.190 HD
HETATM    5  O   UNL     1      40.337 -16.031   1.417  1.00  0.00    -0.272 OA
BRANCH   3   6
HETATM    6  N   UNL     1      42.760 -17.201   1.117  1.00  0.00    -0.263 N 
HETATM    7  C   UNL     1      43.483 -17.113   2.289  1.00  0.00     0.270 C 
HETATM    8  O   UNL     1      43.800 -16.035   2.788  1.00  0.00    -0.266 OA
HETATM    9  H   UNL     1      42.705 -18.049   0.555  1.00  0.00     0.190 HD
BRANCH   7  10
HETATM   10  C   UNL     1      43.885 -18.401   2.923  1.00  0.00     0.033 A 
HETATM   11  C   UNL     1      44.121 -18.418   4.305  1.00  0.00     0.018 A 
HETATM   12  C   UNL     1      44.475 -19.608   4.946  1.00  0.00     0.020 A 
HETATM   13  C   UNL     1      44.583 -20.785   4.207  1.00  0.00     0.011 A 
HETATM   14  C   UNL     1      44.339 -20.782   2.834  1.00  0.00     0.020 A 
HETATM   15 BR   UNL     1      45.049 -22.399   5.073  1.00  0.00    -0.051 Br
HETATM   16  C   UNL     1      43.987 -19.592   2.190  1.00  0.00     0.018 A 
ENDBRANCH   7  10
ENDBRANCH   3   6
ENDBRANCH   1   2
BRANCH   1  17
HETATM   17  C   UNL     1      41.708 -13.137   0.177  1.00  0.00     0.112 C 
BRANCH  17  18
HETATM   18  C   UNL     1      41.467 -12.631   1.586  1.00  0.00     0.218 C 
HETATM   19  N   UNL     1      42.384 -13.056   2.513  1.00  0.00    -0.357 N 
HETATM   20  H   UNL     1      43.289 -13.403   2.199  1.00  0.00     0.162 HD
HETATM   21  O   UNL     1      40.491 -11.940   1.865  1.00  0.00    -0.274 OA
BRANCH  19  22
HETATM   22  C   UNL     1      42.290 -12.680   3.903  1.00  0.00     0.161 C 
BRANCH  22  23
HETATM   23  C   UNL     1      42.184 -13.912   4.767  1.00  0.00    -0.038 A 
HETATM   24  C   UNL     1      43.192 -14.230   5.690  1.00  0.00     0.048 A 
HETATM   25  C   UNL     1      43.051 -15.385   6.431  1.00  0.00     0.105 A 
HETATM   26  C   UNL     1      41.964 -16.214   6.285  1.00  0.00     0.105 A 
HETATM   27  O   UNL     1      43.931 -15.843   7.362  1.00  0.00    -0.323 OA
HETATM   28  O   UNL     1      42.024 -17.300   7.102  1.00  0.00    -0.323 OA
HETATM   29  C   UNL     1      40.953 -15.936   5.393  1.00  0.00     0.040 A 
HETATM   30  C   UNL     1      43.270 -17.053   7.787  1.00  0.00     0.352 A 
HETATM   31  C   UNL     1      41.067 -14.771   4.629  1.00  0.00     0.012 A 
ENDBRANCH  22  23
ENDBRANCH  19  22
ENDBRANCH  17  18
ENDBRANCH   1  17
TORSDOF 7
ENDMDL
MODEL 5
REMARK VINA RESULT:      -8.7      1.756      2.179
REMARK  7 active torsions:
REMARK  status: ('A' for Active; 'I' for Inactive)
REMARK    1  A    between atoms: C_2  and  C_3 
REMARK       I    between atoms: C_3  and  N_4 
REMARK    2  A    between atoms: N_4  and  N_5 
REMARK       I    between atoms: N_5  and  C_6 
REMARK    3  A    between atoms: C_6  and  C_7 
REMARK    4  A    between atoms: C_7  and  C_8 
REMARK    5  A    between atoms: C_8  and  C_9 
REMARK       I    between atoms: C_9  and  N_10 
REMARK    6  A    between atoms: N_10  and  C_11 
REMARK    7  A    between atoms: C_11  and  C_12 
ROOT
HETATM    1  C   UNL     1      41.843 -12.347   5.247  1.00  0.00     0.114 C 
ENDROOT
BRANCH   1   2
HETATM    2  C   UNL     1      41.447 -11.788   6.593  1.00  0.00     0.236 C 
HETATM    3  N   UNL     1      42.464 -11.712   7.514  1.00  0.00    -0.267 N 
HETATM    4  H   UNL     1      43.356 -12.193   7.404  1.00  0.00     0.190 HD
HETATM    5  O   UNL     1      40.283 -11.482   6.852  1.00  0.00    -0.272 OA
BRANCH   3   6
HETATM    6  N   UNL     1      42.135 -11.328   8.820  1.00  0.00    -0.263 N 
HETATM    7  C   UNL     1      43.164 -10.959   9.664  1.00  0.00     0.270 C 
HETATM    8  O   UNL     1      44.335 -10.920   9.295  1.00  0.00    -0.266 OA
HETATM    9  H   UNL     1      41.214 -11.612   9.152  1.00  0.00     0.190 HD
BRANCH   7  10
HETATM   10  C   UNL     1      42.787 -10.620  11.065  1.00  0.00     0.033 A 
HETATM   11  C   UNL     1      43.750 -10.013  11.886  1.00  0.00     0.018 A 
HETATM   12  C   UNL     1      43.433  -9.655  13.199  1.00  0.00     0.020 A 
HETATM   13  C   UNL     1      42.151  -9.894  13.691  1.00  0.00     0.011 A 
HETATM   14  C   UNL     1      41.183 -10.486  12.881  1.00  0.00     0.020 A 
HETATM   15 BR   UNL     1      41.717  -9.399  15.462  1.00  0.00    -0.051 Br
HETATM   16  C   UNL     1      41.498 -10.847  11.567  1.00  0.00     0.018 A 
ENDBRANCH   7  10
ENDBRANCH   3   6
ENDBRANCH   1   2
BRANCH   1  17
HETATM   17  C   UNL     1      42.557 -13.678   5.426  1.00  0.00     0.112 C 
BRANCH  17  18
HETATM   18  C   UNL     1      43.119 -14.216   4.125  1.00  0.00     0.218 C 
HETATM   19  N   UNL     1      42.662 -15.460   3.773  1.00  0.00    -0.357 N 
HETATM   20  H   UNL     1      41.802 -15.814   4.189  1.00  0.00     0.162 HD
HETATM   21  O   UNL     1      43.958 -13.595   3.479  1.00  0.00    -0.274 OA
BRANCH  19  22
HETATM   22  C   UNL     1      43.111 -16.124   2.572  1.00  0.00     0.161 C 
BRANCH  22  23
HETATM   23  C   UNL     1      43.544 -17.533   2.890  1.00  0.00    -0.038 A 
HETATM   24  C   UNL     1      43.424 -18.553   1.935  1.00  0.00     0.048 A 
HETATM   25  C   UNL     1      43.811 -19.827   2.296  1.00  0.00     0.105 A 
HETATM   26  C   UNL     1      44.302 -20.111   3.549  1.00  0.00     0.105 A 
HETATM   27  O   UNL     1      43.759 -20.929   1.499  1.00  0.00    -0.323 OA
HETATM   28  O   UNL     1      44.616 -21.426   3.700  1.00  0.00    -0.323 OA
HETATM   29  C   UNL     1      44.437 -19.138   4.513  1.00  0.00     0.040 A 
HETATM   30  C   UNL     1      44.276 -21.936   2.393  1.00  0.00     0.352 A 
HETATM   31  C   UNL     1      44.055 -17.836   4.176  1.00  0.00     0.012 A 
ENDBRANCH  22  23
ENDBRANCH  19  22
ENDBRANCH  17  18
ENDBRANCH   1  17
TORSDOF 7
ENDMDL
MODEL 6
REMARK VINA RESULT:      -8.6      2.420      3.168
REMARK  7 active torsions:
REMARK  status: ('A' for Active; 'I' for Inactive)
REMARK    1  A    between atoms: C_2  and  C_3 
REMARK       I    between atoms: C_3  and  N_4 
REMARK    2  A    between atoms: N_4  and  N_5 
REMARK       I    between atoms: N_5  and  C_6 
REMARK    3  A    between atoms: C_6  and  C_7 
REMARK    4  A    between atoms: C_7  and  C_8 
REMARK    5  A    between atoms: C_8  and  C_9 
REMARK       I    between atoms: C_9  and  N_10 
REMARK    6  A    between atoms: N_10  and  C_11 
REMARK    7  A    between atoms: C_11  and  C_12 
ROOT
HETATM    1  C   UNL     1      40.396 -11.967   5.696  1.00  0.00     0.114 C 
ENDROOT
BRANCH   1   2
HETATM    2  C   UNL     1      40.262 -11.429   7.101  1.00  0.00     0.236 C 
HETATM    3  N   UNL     1      41.435 -11.370   7.816  1.00  0.00    -0.267 N 
HETATM    4  H   UNL     1      42.288 -11.853   7.533  1.00  0.00     0.190 HD
HETATM    5  O   UNL     1      39.169 -11.123   7.579  1.00  0.00    -0.272 OA
BRANCH   3   6
HETATM    6  N   UNL     1      41.359 -11.007   9.167  1.00  0.00    -0.263 N 
HETATM    7  C   UNL     1      42.526 -10.629   9.800  1.00  0.00     0.270 C 
HETATM    8  O   UNL     1      43.603 -10.566   9.213  1.00  0.00    -0.266 OA
HETATM    9  H   UNL     1      40.524 -11.310   9.666  1.00  0.00     0.190 HD
BRANCH   7  10
HETATM   10  C   UNL     1      42.423 -10.312  11.253  1.00  0.00     0.033 A 
HETATM   11  C   UNL     1      41.207 -10.566  11.905  1.00  0.00     0.018 A 
HETATM   12  C   UNL     1      41.072 -10.308  13.272  1.00  0.00     0.020 A 
HETATM   13  C   UNL     1      42.156  -9.806  13.991  1.00  0.00     0.011 A 
HETATM   14  C   UNL     1      43.373  -9.561  13.356  1.00  0.00     0.020 A 
HETATM   15 BR   UNL     1      41.980  -9.469  15.842  1.00  0.00    -0.051 Br
HETATM   16  C   UNL     1      43.509  -9.817  11.987  1.00  0.00     0.018 A 
ENDBRANCH   7  10
ENDBRANCH   3   6
ENDBRANCH   1   2
BRANCH   1  17
HETATM   17  C   UNL     1      41.450 -13.062   5.657  1.00  0.00     0.112 C 
BRANCH  17  18
HETATM   18  C   UNL     1      40.844 -14.452   5.651  1.00  0.00     0.218 C 
HETATM   19  N   UNL     1      41.590 -15.407   6.292  1.00  0.00    -0.357 N 
HETATM   20  H   UNL     1      42.302 -15.119   6.962  1.00  0.00     0.162 HD
HETATM   21  O   UNL     1      39.792 -14.695   5.065  1.00  0.00    -0.274 OA
BRANCH  19  22
HETATM   22  C   UNL     1      41.165 -16.785   6.362  1.00  0.00     0.161 C 
BRANCH  22  23
HETATM   23  C   UNL     1      42.028 -17.640   5.469  1.00  0.00    -0.038 A 
HETATM   24  C   UNL     1      42.969 -18.525   6.014  1.00  0.00     0.048 A 
HETATM   25  C   UNL     1      43.748 -19.259   5.144  1.00  0.00     0.105 A 
HETATM   26  C   UNL     1      43.622 -19.142   3.779  1.00  0.00     0.105 A 
HETATM   27  O   UNL     1      44.708 -20.156   5.500  1.00  0.00    -0.323 OA
HETATM   28  O   UNL     1      44.487 -19.947   3.105  1.00  0.00    -0.323 OA
HETATM   29  C   UNL     1      42.709 -18.287   3.206  1.00  0.00     0.040 A 
HETATM   30  C   UNL     1      45.167 -20.592   4.203  1.00  0.00     0.352 A 
HETATM   31  C   UNL     1      41.904 -17.531   4.062  1.00  0.00     0.012 A 
ENDBRANCH  22  23
ENDBRANCH  19  22
ENDBRANCH  17  18
ENDBRANCH   1  17
TORSDOF 7
ENDMDL
MODEL 7
REMARK VINA RESULT:      -8.3      6.675     10.264
REMARK  7 active torsions:
REMARK  status: ('A' for Active; 'I' for Inactive)
REMARK    1  A    between atoms: C_2  and  C_3 
REMARK       I    between atoms: C_3  and  N_4 
REMARK    2  A    between atoms: N_4  and  N_5 
REMARK       I    between atoms: N_5  and  C_6 
REMARK    3  A    between atoms: C_6  and  C_7 
REMARK    4  A    between atoms: C_7  and  C_8 
REMARK    5  A    between atoms: C_8  and  C_9 
REMARK       I    between atoms: C_9  and  N_10 
REMARK    6  A    between atoms: N_10  and  C_11 
REMARK    7  A    between atoms: C_11  and  C_12 
ROOT
HETATM    1  C   UNL     1      39.889 -13.731  -2.145  1.00  0.00     0.114 C 
ENDROOT
BRANCH   1   2
HETATM    2  C   UNL     1      40.914 -14.510  -1.356  1.00  0.00     0.236 C 
HETATM    3  N   UNL     1      40.525 -15.777  -0.988  1.00  0.00    -0.267 N 
HETATM    4  H   UNL     1      39.559 -16.100  -1.029  1.00  0.00     0.190 HD
HETATM    5  O   UNL     1      41.991 -14.016  -1.023  1.00  0.00    -0.272 OA
BRANCH   3   6
HETATM    6  N   UNL     1      41.375 -16.501  -0.142  1.00  0.00    -0.263 N 
HETATM    7  C   UNL     1      40.990 -16.667   1.173  1.00  0.00     0.270 C 
HETATM    8  O   UNL     1      39.922 -16.239   1.605  1.00  0.00    -0.266 OA
HETATM    9  H   UNL     1      42.336 -16.612  -0.462  1.00  0.00     0.190 HD
BRANCH   7  10
HETATM   10  C   UNL     1      41.947 -17.385   2.062  1.00  0.00     0.033 A 
HETATM   11  C   UNL     1      41.646 -17.476   3.429  1.00  0.00     0.018 A 
HETATM   12  C   UNL     1      42.501 -18.162   4.296  1.00  0.00     0.020 A 
HETATM   13  C   UNL     1      43.654 -18.765   3.795  1.00  0.00     0.011 A 
HETATM   14  C   UNL     1      43.957 -18.691   2.436  1.00  0.00     0.020 A 
HETATM   15 BR   UNL     1      44.806 -19.704   4.963  1.00  0.00    -0.051 Br
HETATM   16  C   UNL     1      43.103 -18.004   1.567  1.00  0.00     0.018 A 
ENDBRANCH   7  10
ENDBRANCH   3   6
ENDBRANCH   1   2
BRANCH   1  17
HETATM   17  C   UNL     1      38.624 -13.551  -1.320  1.00  0.00     0.112 C 
BRANCH  17  18
HETATM   18  C   UNL     1      38.856 -12.723  -0.071  1.00  0.00     0.218 C 
HETATM   19  N   UNL     1      38.775 -13.423   1.105  1.00  0.00    -0.357 N 
HETATM   20  H   UNL     1      38.868 -14.438   1.091  1.00  0.00     0.162 HD
HETATM   21  O   UNL     1      39.047 -11.512  -0.127  1.00  0.00    -0.274 OA
BRANCH  19  22
HETATM   22  C   UNL     1      38.953 -12.781   2.386  1.00  0.00     0.161 C 
BRANCH  22  23
HETATM   23  C   UNL     1      40.247 -13.231   3.015  1.00  0.00    -0.038 A 
HETATM   24  C   UNL     1      40.257 -13.838   4.280  1.00  0.00     0.048 A 
HETATM   25  C   UNL     1      41.476 -14.202   4.815  1.00  0.00     0.105 A 
HETATM   26  C   UNL     1      42.657 -13.986   4.145  1.00  0.00     0.105 A 
HETATM   27  O   UNL     1      41.667 -14.793   6.025  1.00  0.00    -0.323 OA
HETATM   28  O   UNL     1      43.740 -14.411   4.849  1.00  0.00    -0.323 OA
HETATM   29  C   UNL     1      42.689 -13.397   2.901  1.00  0.00     0.040 A 
HETATM   30  C   UNL     1      43.104 -14.928   6.036  1.00  0.00     0.352 A 
HETATM   31  C   UNL     1      41.469 -13.019   2.333  1.00  0.00     0.012 A 
ENDBRANCH  22  23
ENDBRANCH  19  22
ENDBRANCH  17  18
ENDBRANCH   1  17
TORSDOF 7
ENDMDL
MODEL 8
REMARK VINA RESULT:      -8.2      6.254      9.524
REMARK  7 active torsions:
REMARK  status: ('A' for Active; 'I' for Inactive)
REMARK    1  A    between atoms: C_2  and  C_3 
REMARK       I    between atoms: C_3  and  N_4 
REMARK    2  A    between atoms: N_4  and  N_5 
REMARK       I    between atoms: N_5  and  C_6 
REMARK    3  A    between atoms: C_6  and  C_7 
REMARK    4  A    between atoms: C_7  and  C_8 
REMARK    5  A    between atoms: C_8  and  C_9 
REMARK       I    between atoms: C_9  and  N_10 
REMARK    6  A    between atoms: N_10  and  C_11 
REMARK    7  A    between atoms: C_11  and  C_12 
ROOT
HETATM    1  C   UNL     1      44.845 -20.244   3.428  1.00  0.00     0.114 C 
ENDROOT
BRANCH   1   2
HETATM    2  C   UNL     1      43.673 -19.474   2.868  1.00  0.00     0.236 C 
HETATM    3  N   UNL     1      43.537 -18.192   3.343  1.00  0.00    -0.267 N 
HETATM    4  H   UNL     1      44.028 -17.846   4.168  1.00  0.00     0.190 HD
HETATM    5  O   UNL     1      42.871 -19.989   2.088  1.00  0.00    -0.272 OA
BRANCH   3   6
HETATM    6  N   UNL     1      42.396 -17.473   2.965  1.00  0.00    -0.263 N 
HETATM    7  C   UNL     1      42.506 -16.599   1.902  1.00  0.00     0.270 C 
HETATM    8  O   UNL     1      43.548 -16.465   1.265  1.00  0.00    -0.266 OA
HETATM    9  H   UNL     1      41.650 -17.421   3.657  1.00  0.00     0.190 HD
BRANCH   7  10
HETATM   10  C   UNL     1      41.293 -15.800   1.568  1.00  0.00     0.033 A 
HETATM   11  C   UNL     1      41.379 -14.860   0.530  1.00  0.00     0.018 A 
HETATM   12  C   UNL     1      40.260 -14.107   0.165  1.00  0.00     0.020 A 
HETATM   13  C   UNL     1      39.051 -14.300   0.831  1.00  0.00     0.011 A 
HETATM   14  C   UNL     1      38.950 -15.240   1.856  1.00  0.00     0.020 A 
HETATM   15 BR   UNL     1      37.532 -13.292   0.331  1.00  0.00    -0.051 Br
HETATM   16  C   UNL     1      40.069 -15.993   2.224  1.00  0.00     0.018 A 
ENDBRANCH   7  10
ENDBRANCH   3   6
ENDBRANCH   1   2
BRANCH   1  17
HETATM   17  C   UNL     1      44.584 -20.605   4.882  1.00  0.00     0.112 C 
BRANCH  17  18
HETATM   18  C   UNL     1      44.588 -19.393   5.793  1.00  0.00     0.218 C 
HETATM   19  N   UNL     1      43.454 -19.239   6.549  1.00  0.00    -0.357 N 
HETATM   20  H   UNL     1      42.840 -20.038   6.699  1.00  0.00     0.162 HD
HETATM   21  O   UNL     1      45.519 -18.593   5.797  1.00  0.00    -0.274 OA
BRANCH  19  22
HETATM   22  C   UNL     1      43.290 -18.127   7.455  1.00  0.00     0.161 C 
BRANCH  22  23
HETATM   23  C   UNL     1      42.689 -16.951   6.728  1.00  0.00    -0.038 A 
HETATM   24  C   UNL     1      43.498 -15.895   6.281  1.00  0.00     0.048 A 
HETATM   25  C   UNL     1      42.886 -14.834   5.646  1.00  0.00     0.105 A 
HETATM   26  C   UNL     1      41.526 -14.792   5.448  1.00  0.00     0.105 A 
HETATM   27  O   UNL     1      43.515 -13.732   5.156  1.00  0.00    -0.323 OA
HETATM   28  O   UNL     1      41.127 -13.658   4.812  1.00  0.00    -0.323 OA
HETATM   29  C   UNL     1      40.699 -15.808   5.869  1.00  0.00     0.040 A 
HETATM   30  C   UNL     1      42.395 -12.994   4.623  1.00  0.00     0.352 A 
HETATM   31  C   UNL     1      41.290 -16.899   6.513  1.00  0.00     0.012 A 
ENDBRANCH  22  23
ENDBRANCH  19  22
ENDBRANCH  17  18
ENDBRANCH   1  17
TORSDOF 7
ENDMDL
MODEL 9
REMARK VINA RESULT:      -8.1      6.185      9.737
REMARK  7 active torsions:
REMARK  status: ('A' for Active; 'I' for Inactive)
REMARK    1  A    between atoms: C_2  and  C_3 
REMARK       I    between atoms: C_3  and  N_4 
REMARK    2  A    between atoms: N_4  and  N_5 
REMARK       I    between atoms: N_5  and  C_6 
REMARK    3  A    between atoms: C_6  and  C_7 
REMARK    4  A    between atoms: C_7  and  C_8 
REMARK    5  A    between atoms: C_8  and  C_9 
REMARK       I    between atoms: C_9  and  N_10 
REMARK    6  A    between atoms: N_10  and  C_11 
REMARK    7  A    between atoms: C_11  and  C_12 
ROOT
HETATM    1  C   UNL     1      40.466 -14.358   0.650  1.00  0.00     0.114 C 
ENDROOT
BRANCH   1   2
HETATM    2  C   UNL     1      40.892 -15.445   1.608  1.00  0.00     0.236 C 
HETATM    3  N   UNL     1      42.250 -15.624   1.719  1.00  0.00    -0.267 N 
HETATM    4  H   UNL     1      42.922 -15.234   1.058  1.00  0.00     0.190 HD
HETATM    5  O   UNL     1      40.072 -16.151   2.196  1.00  0.00    -0.272 OA
BRANCH   3   6
HETATM    6  N   UNL     1      42.706 -16.703   2.487  1.00  0.00    -0.263 N 
HETATM    7  C   UNL     1      43.404 -17.706   1.844  1.00  0.00     0.270 C 
HETATM    8  O   UNL     1      43.665 -17.660   0.644  1.00  0.00    -0.266 OA
HETATM    9  H   UNL     1      42.261 -16.826   3.395  1.00  0.00     0.190 HD
BRANCH   7  10
HETATM   10  C   UNL     1      43.817 -18.870   2.676  1.00  0.00     0.033 A 
HETATM   11  C   UNL     1      43.991 -20.112   2.046  1.00  0.00     0.018 A 
HETATM   12  C   UNL     1      44.403 -21.226   2.783  1.00  0.00     0.020 A 
HETATM   13  C   UNL     1      44.649 -21.098   4.148  1.00  0.00     0.011 A 
HETATM   14  C   UNL     1      44.491 -19.866   4.784  1.00  0.00     0.020 A 
HETATM   15 BR   UNL     1      45.219 -22.600   5.145  1.00  0.00    -0.051 Br
HETATM   16  C   UNL     1      44.078 -18.751   4.049  1.00  0.00     0.018 A 
ENDBRANCH   7  10
ENDBRANCH   3   6
ENDBRANCH   1   2
BRANCH   1  17
HETATM   17  C   UNL     1      41.116 -13.039   1.039  1.00  0.00     0.112 C 
BRANCH  17  18
HETATM   18  C   UNL     1      40.959 -12.724   2.514  1.00  0.00     0.218 C 
HETATM   19  N   UNL     1      42.134 -12.678   3.219  1.00  0.00    -0.357 N 
HETATM   20  H   UNL     1      43.013 -12.552   2.720  1.00  0.00     0.162 HD
HETATM   21  O   UNL     1      39.853 -12.580   3.028  1.00  0.00    -0.274 OA
BRANCH  19  22
HETATM   22  C   UNL     1      42.159 -12.409   4.637  1.00  0.00     0.161 C 
BRANCH  22  23
HETATM   23  C   UNL     1      42.638 -13.626   5.387  1.00  0.00    -0.038 A 
HETATM   24  C   UNL     1      41.801 -14.739   5.559  1.00  0.00     0.048 A 
HETATM   25  C   UNL     1      42.287 -15.811   6.278  1.00  0.00     0.105 A 
HETATM   26  C   UNL     1      43.551 -15.809   6.820  1.00  0.00     0.105 A 
HETATM   27  O   UNL     1      41.612 -16.962   6.543  1.00  0.00    -0.323 OA
HETATM   28  O   UNL     1      43.829 -16.957   7.495  1.00  0.00    -0.323 OA
HETATM   29  C   UNL     1      44.403 -14.739   6.672  1.00  0.00     0.040 A 
HETATM   30  C   UNL     1      42.597 -17.685   7.308  1.00  0.00     0.352 A 
HETATM   31  C   UNL     1      43.940 -13.639   5.945  1.00  0.00     0.012 A 
ENDBRANCH  22  23
ENDBRANCH  19  22
ENDBRANCH  17  18
ENDBRANCH   1  17
TORSDOF 7
ENDMDL
MODEL 10
REMARK VINA RESULT:      -8.1      4.697     11.123
REMARK  7 active torsions:
REMARK  status: ('A' for Active; 'I' for Inactive)
REMARK    1  A    between atoms: C_2  and  C_3 
REMARK       I    between atoms: C_3  and  N_4 
REMARK    2  A    between atoms: N_4  and  N_5 
REMARK       I    between atoms: N_5  and  C_6 
REMARK    3  A    between atoms: C_6  and  C_7 
REMARK    4  A    between atoms: C_7  and  C_8 
REMARK    5  A    between atoms: C_8  and  C_9 
REMARK       I    between atoms: C_9  and  N_10 
REMARK    6  A    between atoms: N_10  and  C_11 
REMARK    7  A    between atoms: C_11  and  C_12 
ROOT
HETATM    1  C   UNL     1      39.197 -12.602   5.129  1.00  0.00     0.114 C 
ENDROOT
BRANCH   1   2
HETATM    2  C   UNL     1      39.784 -13.774   4.380  1.00  0.00     0.236 C 
HETATM    3  N   UNL     1      39.850 -14.947   5.093  1.00  0.00    -0.267 N 
HETATM    4  H   UNL     1      39.736 -14.994   6.106  1.00  0.00     0.190 HD
HETATM    5  O   UNL     1      40.222 -13.660   3.235  1.00  0.00    -0.272 OA
BRANCH   3   6
HETATM    6  N   UNL     1      40.506 -16.035   4.503  1.00  0.00    -0.263 N 
HETATM    7  C   UNL     1      41.716 -16.429   5.038  1.00  0.00     0.270 C 
HETATM    8  O   UNL     1      42.207 -15.886   6.025  1.00  0.00    -0.266 OA
HETATM    9  H   UNL     1      40.203 -16.283   3.562  1.00  0.00     0.190 HD
BRANCH   7  10
HETATM   10  C   UNL     1      42.419 -17.546   4.346  1.00  0.00     0.033 A 
HETATM   11  C   UNL     1      43.238 -18.391   5.108  1.00  0.00     0.018 A 
HETATM   12  C   UNL     1      43.896 -19.468   4.507  1.00  0.00     0.020 A 
HETATM   13  C   UNL     1      43.729 -19.705   3.144  1.00  0.00     0.011 A 
HETATM   14  C   UNL     1      42.907 -18.879   2.378  1.00  0.00     0.020 A 
HETATM   15 BR   UNL     1      44.607 -21.167   2.330  1.00  0.00    -0.051 Br
HETATM   16  C   UNL     1      42.249 -17.801   2.978  1.00  0.00     0.018 A 
ENDBRANCH   7  10
ENDBRANCH   3   6
ENDBRANCH   1   2
BRANCH   1  17
HETATM   17  C   UNL     1      39.507 -12.725   6.613  1.00  0.00     0.112 C 
BRANCH  17  18
HETATM   18  C   UNL     1      39.955 -11.411   7.224  1.00  0.00     0.218 C 
HETATM   19  N   UNL     1      41.296 -11.335   7.500  1.00  0.00    -0.357 N 
HETATM   20  H   UNL     1      41.940 -11.975   7.039  1.00  0.00     0.162 HD
HETATM   21  O   UNL     1      39.156 -10.519   7.493  1.00  0.00    -0.274 OA
BRANCH  19  22
HETATM   22  C   UNL     1      41.883 -10.160   8.101  1.00  0.00     0.161 C 
BRANCH  22  23
HETATM   23  C   UNL     1      42.122 -10.394   9.571  1.00  0.00    -0.038 A 
HETATM   24  C   UNL     1      41.156 -10.031  10.521  1.00  0.00     0.048 A 
HETATM   25  C   UNL     1      41.444 -10.245  11.853  1.00  0.00     0.105 A 
HETATM   26  C   UNL     1      42.637 -10.795  12.259  1.00  0.00     0.105 A 
HETATM   27  O   UNL     1      40.627  -9.949  12.900  1.00  0.00    -0.323 OA
HETATM   28  O   UNL     1      42.723 -10.913  13.612  1.00  0.00    -0.323 OA
HETATM   29  C   UNL     1      43.609 -11.167  11.358  1.00  0.00     0.040 A 
HETATM   30  C   UNL     1      41.442 -10.381  14.010  1.00  0.00     0.352 A 
HETATM   31  C   UNL     1      43.344 -10.965  10.001  1.00  0.00     0.012 A 
ENDBRANCH  22  23
ENDBRANCH  19  22
ENDBRANCH  17  18
ENDBRANCH   1  17
TORSDOF 7
ENDMDL
