MODEL 1
REMARK VINA RESULT:      -8.9      0.000      0.000
REMARK  5 active torsions:
REMARK  status: ('A' for Active; 'I' for Inactive)
REMARK    1  A    between atoms: C_3  and  O_4 
REMARK    2  A    between atoms: C_6  and  N_7 
REMARK       I    between atoms: N_7  and  C_8 
REMARK    3  A    between atoms: C_8  and  C_9 
REMARK    4  A    between atoms: C_14  and  C_15 
REMARK    5  A    between atoms: C_23  and  C_24 
ROOT
HETATM    1  C   UNL     1      40.346 -14.628   1.215  1.00  0.00     0.148 A 
HETATM    2  N   UNL     1      41.039 -14.011   2.201  1.00  0.00    -0.165 NA
HETATM    3  N   UNL     1      41.167 -14.970   3.138  1.00  0.00    -0.240 N 
HETATM    4  C   UNL     1      40.511 -16.130   2.839  1.00  0.00     0.123 A 
HETATM    5  N   UNL     1      40.469 -17.169   3.699  1.00  0.00    -0.366 N 
HETATM    6  C   UNL     1      41.209 -17.179   4.954  1.00  0.00     0.118 C 
HETATM    7  C   UNL     1      41.463 -15.744   5.454  1.00  0.00     0.066 C 
HETATM    8  C   UNL     1      41.905 -14.746   4.367  1.00  0.00     0.221 C 
HETATM    9  C   UNL     1      39.988 -15.952   1.587  1.00  0.00     0.089 A 
HETATM   10  H   UNL     1      40.071 -18.064   3.419  1.00  0.00     0.161 HD
ENDROOT
BRANCH   1  11
HETATM   11  C   UNL     1      40.026 -13.960  -0.061  1.00  0.00     0.276 C 
HETATM   12  N   UNL     1      38.763 -14.290  -0.511  1.00  0.00    -0.322 N 
HETATM   13  H   UNL     1      38.281 -14.954   0.089  1.00  0.00     0.169 HD
HETATM   14  O   UNL     1      40.832 -13.218  -0.608  1.00  0.00    -0.266 OA
BRANCH  12  15
HETATM   15  C   UNL     1      38.098 -13.828  -1.660  1.00  0.00     0.037 A 
HETATM   16  C   UNL     1      37.888 -14.602  -2.804  1.00  0.00     0.066 A 
HETATM   17  C   UNL     1      37.230 -14.055  -3.904  1.00  0.00     0.067 A 
HETATM   18  C   UNL     1      36.765 -12.744  -3.886  1.00  0.00     0.036 A 
HETATM   19  C   UNL     1      36.968 -11.967  -2.748  1.00  0.00     0.005 A 
HETATM   20  C   UNL     1      37.635 -12.506  -1.642  1.00  0.00     0.029 A 
BRANCH  17  21
HETATM   21  O   UNL     1      37.062 -14.848  -5.002  1.00  0.00    -0.361 OA
HETATM   22  H   UNL     1      37.714 -15.566  -4.973  1.00  0.00     0.217 HD
ENDBRANCH  17  21
ENDBRANCH  12  15
ENDBRANCH   1  11
BRANCH   8  23
HETATM   23  C   UNL     1      43.392 -14.760   4.093  1.00  0.00     0.409 C 
HETATM   24  F   UNL     1      43.751 -15.548   3.063  1.00  0.00    -0.169 F 
HETATM   25  F   UNL     1      43.868 -13.518   3.837  1.00  0.00    -0.169 F 
HETATM   26  F   UNL     1      44.064 -15.202   5.188  1.00  0.00    -0.169 F 
ENDBRANCH   8  23
BRANCH   6  27
HETATM   27  C   UNL     1      42.435 -18.076   4.905  1.00  0.00    -0.035 A 
HETATM   28  C   UNL     1      43.201 -18.388   6.043  1.00  0.00     0.012 A 
HETATM   29  C   UNL     1      44.337 -19.195   5.946  1.00  0.00     0.043 A 
HETATM   30  C   UNL     1      44.722 -19.690   4.708  1.00  0.00     0.116 A 
HETATM   31  F   UNL     1      45.816 -20.457   4.613  1.00  0.00    -0.206 F 
HETATM   32  C   UNL     1      43.992 -19.395   3.566  1.00  0.00     0.043 A 
HETATM   33  C   UNL     1      42.852 -18.593   3.662  1.00  0.00     0.012 A 
ENDBRANCH   6  27
TORSDOF 5
ENDMDL
MODEL 2
REMARK VINA RESULT:      -8.7      4.011      9.131
REMARK  5 active torsions:
REMARK  status: ('A' for Active; 'I' for Inactive)
REMARK    1  A    between atoms: C_3  and  O_4 
REMARK    2  A    between atoms: C_6  and  N_7 
REMARK       I    between atoms: N_7  and  C_8 
REMARK    3  A    between atoms: C_8  and  C_9 
REMARK    4  A    between atoms: C_14  and  C_15 
REMARK    5  A    between atoms: C_23  and  C_24 
ROOT
HETATM    1  C   UNL     1      41.258 -16.080   1.133  1.00  0.00     0.148 A 
HETATM    2  N   UNL     1      40.640 -14.928   1.487  1.00  0.00    -0.165 NA
HETATM    3  N   UNL     1      40.421 -14.317   0.306  1.00  0.00    -0.240 N 
HETATM    4  C   UNL     1      40.950 -14.976  -0.766  1.00  0.00     0.123 A 
HETATM    5  N   UNL     1      40.892 -14.469  -2.016  1.00  0.00    -0.366 N 
HETATM    6  C   UNL     1      40.165 -13.247  -2.333  1.00  0.00     0.118 C 
HETATM    7  C   UNL     1      40.066 -12.330  -1.099  1.00  0.00     0.066 C 
HETATM    8  C   UNL     1      39.720 -13.051   0.218  1.00  0.00     0.221 C 
HETATM    9  C   UNL     1      41.479 -16.137  -0.270  1.00  0.00     0.089 A 
HETATM   10  H   UNL     1      41.193 -15.021  -2.818  1.00  0.00     0.161 HD
ENDROOT
BRANCH   1  11
HETATM   11  C   UNL     1      41.635 -17.109   2.121  1.00  0.00     0.276 C 
HETATM   12  N   UNL     1      42.722 -17.850   1.701  1.00  0.00    -0.322 N 
HETATM   13  H   UNL     1      43.059 -17.587   0.779  1.00  0.00     0.169 HD
HETATM   14  O   UNL     1      41.013 -17.243   3.167  1.00  0.00    -0.266 OA
BRANCH  12  15
HETATM   15  C   UNL     1      43.386 -18.886   2.381  1.00  0.00     0.037 A 
HETATM   16  C   UNL     1      43.566 -20.170   1.862  1.00  0.00     0.066 A 
HETATM   17  C   UNL     1      44.226 -21.139   2.615  1.00  0.00     0.067 A 
HETATM   18  C   UNL     1      44.723 -20.852   3.882  1.00  0.00     0.036 A 
HETATM   19  C   UNL     1      44.551 -19.572   4.405  1.00  0.00     0.005 A 
HETATM   20  C   UNL     1      43.882 -18.596   3.659  1.00  0.00     0.029 A 
BRANCH  17  21
HETATM   21  O   UNL     1      44.364 -22.382   2.069  1.00  0.00    -0.361 OA
HETATM   22  H   UNL     1      45.240 -22.448   1.656  1.00  0.00     0.217 HD
ENDBRANCH  17  21
ENDBRANCH  12  15
ENDBRANCH   1  11
BRANCH   8  23
HETATM   23  C   UNL     1      38.238 -13.259   0.431  1.00  0.00     0.409 C 
HETATM   24  F   UNL     1      37.777 -14.434  -0.034  1.00  0.00    -0.169 F 
HETATM   25  F   UNL     1      37.902 -13.183   1.742  1.00  0.00    -0.169 F 
HETATM   26  F   UNL     1      37.535 -12.278  -0.193  1.00  0.00    -0.169 F 
ENDBRANCH   8  23
BRANCH   6  27
HETATM   27  C   UNL     1      38.852 -13.516  -3.051  1.00  0.00    -0.035 A 
HETATM   28  C   UNL     1      37.976 -12.491  -3.451  1.00  0.00     0.012 A 
HETATM   29  C   UNL     1      36.766 -12.785  -4.083  1.00  0.00     0.043 A 
HETATM   30  C   UNL     1      36.417 -14.108  -4.313  1.00  0.00     0.116 A 
HETATM   31  F   UNL     1      35.253 -14.392  -4.913  1.00  0.00    -0.206 F 
HETATM   32  C   UNL     1      37.257 -15.143  -3.926  1.00  0.00     0.043 A 
HETATM   33  C   UNL     1      38.470 -14.849  -3.298  1.00  0.00     0.012 A 
ENDBRANCH   6  27
TORSDOF 5
ENDMDL
MODEL 3
REMARK VINA RESULT:      -8.7      5.084      8.309
REMARK  5 active torsions:
REMARK  status: ('A' for Active; 'I' for Inactive)
REMARK    1  A    between atoms: C_3  and  O_4 
REMARK    2  A    between atoms: C_6  and  N_7 
REMARK       I    between atoms: N_7  and  C_8 
REMARK    3  A    between atoms: C_8  and  C_9 
REMARK    4  A    between atoms: C_14  and  C_15 
REMARK    5  A    between atoms: C_23  and  C_24 
ROOT
HETATM    1  C   UNL     1      42.615 -13.458   5.817  1.00  0.00     0.148 A 
HETATM    2  N   UNL     1      41.525 -14.256   5.720  1.00  0.00    -0.165 NA
HETATM    3  N   UNL     1      41.896 -15.179   4.811  1.00  0.00    -0.240 N 
HETATM    4  C   UNL     1      43.125 -14.952   4.259  1.00  0.00     0.123 A 
HETATM    5  N   UNL     1      43.622 -15.733   3.277  1.00  0.00    -0.366 N 
HETATM    6  C   UNL     1      42.944 -16.936   2.812  1.00  0.00     0.118 C 
HETATM    7  C   UNL     1      41.427 -16.842   3.061  1.00  0.00     0.066 C 
HETATM    8  C   UNL     1      41.028 -16.279   4.438  1.00  0.00     0.221 C 
HETATM    9  C   UNL     1      43.631 -13.858   4.907  1.00  0.00     0.089 A 
HETATM   10  H   UNL     1      44.581 -15.619   2.953  1.00  0.00     0.161 HD
ENDROOT
BRANCH   1  11
HETATM   11  C   UNL     1      42.683 -12.327   6.763  1.00  0.00     0.276 C 
HETATM   12  N   UNL     1      43.515 -12.599   7.830  1.00  0.00    -0.322 N 
HETATM   13  H   UNL     1      43.914 -13.534   7.803  1.00  0.00     0.169 HD
HETATM   14  O   UNL     1      42.047 -11.299   6.569  1.00  0.00    -0.266 OA
BRANCH  12  15
HETATM   15  C   UNL     1      43.858 -11.761   8.905  1.00  0.00     0.037 A 
HETATM   16  C   UNL     1      42.938 -10.979   9.607  1.00  0.00     0.066 A 
HETATM   17  C   UNL     1      43.371 -10.164  10.652  1.00  0.00     0.067 A 
HETATM   18  C   UNL     1      44.711 -10.118  11.021  1.00  0.00     0.036 A 
HETATM   19  C   UNL     1      45.634 -10.898  10.328  1.00  0.00     0.005 A 
HETATM   20  C   UNL     1      45.209 -11.712   9.273  1.00  0.00     0.029 A 
BRANCH  17  21
HETATM   21  O   UNL     1      42.436  -9.409  11.298  1.00  0.00    -0.361 OA
HETATM   22  H   UNL     1      41.555  -9.770  11.106  1.00  0.00     0.217 HD
ENDBRANCH  17  21
ENDBRANCH  12  15
ENDBRANCH   1  11
BRANCH   8  23
HETATM   23  C   UNL     1      40.999 -17.316   5.538  1.00  0.00     0.409 C 
HETATM   24  F   UNL     1      42.084 -17.301   6.334  1.00  0.00    -0.169 F 
HETATM   25  F   UNL     1      39.912 -17.175   6.334  1.00  0.00    -0.169 F 
HETATM   26  F   UNL     1      40.913 -18.561   5.002  1.00  0.00    -0.169 F 
ENDBRANCH   8  23
BRANCH   6  27
HETATM   27  C   UNL     1      43.606 -18.211   3.308  1.00  0.00    -0.035 A 
HETATM   28  C   UNL     1      44.252 -18.302   4.555  1.00  0.00     0.012 A 
HETATM   29  C   UNL     1      44.872 -19.487   4.958  1.00  0.00     0.043 A 
HETATM   30  C   UNL     1      44.860 -20.588   4.115  1.00  0.00     0.116 A 
HETATM   31  F   UNL     1      45.461 -21.722   4.498  1.00  0.00    -0.206 F 
HETATM   32  C   UNL     1      44.236 -20.529   2.877  1.00  0.00     0.043 A 
HETATM   33  C   UNL     1      43.611 -19.346   2.475  1.00  0.00     0.012 A 
ENDBRANCH   6  27
TORSDOF 5
ENDMDL
MODEL 4
REMARK VINA RESULT:      -8.6      3.047      3.422
REMARK  5 active torsions:
REMARK  status: ('A' for Active; 'I' for Inactive)
REMARK    1  A    between atoms: C_3  and  O_4 
REMARK    2  A    between atoms: C_6  and  N_7 
REMARK       I    between atoms: N_7  and  C_8 
REMARK    3  A    between atoms: C_8  and  C_9 
REMARK    4  A    between atoms: C_14  and  C_15 
REMARK    5  A    between atoms: C_23  and  C_24 
ROOT
HETATM    1  C   UNL     1      41.596 -14.499  -0.511  1.00  0.00     0.148 A 
HETATM    2  N   UNL     1      41.823 -13.968   0.713  1.00  0.00    -0.165 NA
HETATM    3  N   UNL     1      41.658 -15.017   1.543  1.00  0.00    -0.240 N 
HETATM    4  C   UNL     1      41.245 -16.159   0.918  1.00  0.00     0.123 A 
HETATM    5  N   UNL     1      40.957 -17.284   1.604  1.00  0.00    -0.366 N 
HETATM    6  C   UNL     1      41.171 -17.404   3.040  1.00  0.00     0.118 C 
HETATM    7  C   UNL     1      41.116 -16.023   3.721  1.00  0.00     0.066 C 
HETATM    8  C   UNL     1      41.863 -14.901   2.974  1.00  0.00     0.221 C 
HETATM    9  C   UNL     1      41.219 -15.866  -0.419  1.00  0.00     0.089 A 
HETATM   10  H   UNL     1      40.757 -18.157   1.118  1.00  0.00     0.161 HD
ENDROOT
BRANCH   1  11
HETATM   11  C   UNL     1      41.732 -13.711  -1.751  1.00  0.00     0.276 C 
HETATM   12  N   UNL     1      41.951 -12.373  -1.489  1.00  0.00    -0.322 N 
HETATM   13  H   UNL     1      41.952 -12.151  -0.496  1.00  0.00     0.169 HD
HETATM   14  O   UNL     1      41.644 -14.240  -2.852  1.00  0.00    -0.266 OA
BRANCH  12  15
HETATM   15  C   UNL     1      42.165 -11.328  -2.404  1.00  0.00     0.037 A 
HETATM   16  C   UNL     1      42.199 -11.500  -3.790  1.00  0.00     0.066 A 
HETATM   17  C   UNL     1      42.432 -10.407  -4.622  1.00  0.00     0.067 A 
HETATM   18  C   UNL     1      42.625  -9.132  -4.099  1.00  0.00     0.036 A 
HETATM   19  C   UNL     1      42.589  -8.952  -2.718  1.00  0.00     0.005 A 
HETATM   20  C   UNL     1      42.364 -10.046  -1.875  1.00  0.00     0.029 A 
BRANCH  17  21
HETATM   21  O   UNL     1      42.470 -10.630  -5.967  1.00  0.00    -0.361 OA
HETATM   22  H   UNL     1      43.221 -11.210  -6.168  1.00  0.00     0.217 HD
ENDBRANCH  17  21
ENDBRANCH  12  15
ENDBRANCH   1  11
BRANCH   8  23
HETATM   23  C   UNL     1      43.341 -14.837   3.285  1.00  0.00     0.409 C 
HETATM   24  F   UNL     1      44.103 -15.604   2.484  1.00  0.00    -0.169 F 
HETATM   25  F   UNL     1      43.818 -13.572   3.206  1.00  0.00    -0.169 F 
HETATM   26  F   UNL     1      43.566 -15.244   4.562  1.00  0.00    -0.169 F 
ENDBRANCH   8  23
BRANCH   6  27
HETATM   27  C   UNL     1      42.386 -18.250   3.384  1.00  0.00    -0.035 A 
HETATM   28  C   UNL     1      43.135 -18.942   2.414  1.00  0.00     0.012 A 
HETATM   29  C   UNL     1      44.228 -19.731   2.778  1.00  0.00     0.043 A 
HETATM   30  C   UNL     1      44.577 -19.842   4.116  1.00  0.00     0.116 A 
HETATM   31  F   UNL     1      45.621 -20.606   4.467  1.00  0.00    -0.206 F 
HETATM   32  C   UNL     1      43.855 -19.178   5.097  1.00  0.00     0.043 A 
HETATM   33  C   UNL     1      42.765 -18.384   4.734  1.00  0.00     0.012 A 
ENDBRANCH   6  27
TORSDOF 5
ENDMDL
MODEL 5
REMARK VINA RESULT:      -8.6      2.593      3.020
REMARK  5 active torsions:
REMARK  status: ('A' for Active; 'I' for Inactive)
REMARK    1  A    between atoms: C_3  and  O_4 
REMARK    2  A    between atoms: C_6  and  N_7 
REMARK       I    between atoms: N_7  and  C_8 
REMARK    3  A    between atoms: C_8  and  C_9 
REMARK    4  A    between atoms: C_14  and  C_15 
REMARK    5  A    between atoms: C_23  and  C_24 
ROOT
HETATM    1  C   UNL     1      40.867 -14.023   1.714  1.00  0.00     0.148 A 
HETATM    2  N   UNL     1      41.399 -13.664   2.906  1.00  0.00    -0.165 NA
HETATM    3  N   UNL     1      41.390 -14.814   3.609  1.00  0.00    -0.240 N 
HETATM    4  C   UNL     1      40.793 -15.857   2.960  1.00  0.00     0.123 A 
HETATM    5  N   UNL     1      40.627 -17.061   3.545  1.00  0.00    -0.366 N 
HETATM    6  C   UNL     1      41.169 -17.375   4.861  1.00  0.00     0.118 C 
HETATM    7  C   UNL     1      41.336 -16.098   5.706  1.00  0.00     0.066 C 
HETATM    8  C   UNL     1      41.932 -14.894   4.952  1.00  0.00     0.221 C 
HETATM    9  C   UNL     1      40.465 -15.387   1.717  1.00  0.00     0.089 A 
HETATM   10  H   UNL     1      40.282 -17.858   3.013  1.00  0.00     0.161 HD
ENDROOT
BRANCH   1  11
HETATM   11  C   UNL     1      40.740 -13.076   0.589  1.00  0.00     0.276 C 
HETATM   12  N   UNL     1      41.972 -12.700   0.092  1.00  0.00    -0.322 N 
HETATM   13  H   UNL     1      42.753 -13.109   0.597  1.00  0.00     0.169 HD
HETATM   14  O   UNL     1      39.642 -12.704   0.195  1.00  0.00    -0.266 OA
BRANCH  12  15
HETATM   15  C   UNL     1      42.252 -11.849  -0.991  1.00  0.00     0.037 A 
HETATM   16  C   UNL     1      42.225 -12.254  -2.327  1.00  0.00     0.066 A 
HETATM   17  C   UNL     1      42.533 -11.343  -3.337  1.00  0.00     0.067 A 
HETATM   18  C   UNL     1      42.861 -10.024  -3.041  1.00  0.00     0.036 A 
HETATM   19  C   UNL     1      42.886  -9.613  -1.711  1.00  0.00     0.005 A 
HETATM   20  C   UNL     1      42.588 -10.522  -0.691  1.00  0.00     0.029 A 
BRANCH  17  21
HETATM   21  O   UNL     1      42.505 -11.791  -4.626  1.00  0.00    -0.361 OA
HETATM   22  H   UNL     1      43.178 -12.483  -4.731  1.00  0.00     0.217 HD
ENDBRANCH  17  21
ENDBRANCH  12  15
ENDBRANCH   1  11
BRANCH   8  23
HETATM   23  C   UNL     1      43.443 -14.889   4.905  1.00  0.00     0.409 C 
HETATM   24  F   UNL     1      44.025 -15.557   5.917  1.00  0.00    -0.169 F 
HETATM   25  F   UNL     1      43.913 -15.416   3.749  1.00  0.00    -0.169 F 
HETATM   26  F   UNL     1      43.906 -13.612   4.951  1.00  0.00    -0.169 F 
ENDBRANCH   8  23
BRANCH   6  27
HETATM   27  C   UNL     1      42.394 -18.273   4.791  1.00  0.00    -0.035 A 
HETATM   28  C   UNL     1      43.045 -18.768   5.936  1.00  0.00     0.012 A 
HETATM   29  C   UNL     1      44.184 -19.568   5.825  1.00  0.00     0.043 A 
HETATM   30  C   UNL     1      44.689 -19.872   4.569  1.00  0.00     0.116 A 
HETATM   31  F   UNL     1      45.786 -20.633   4.462  1.00  0.00    -0.206 F 
HETATM   32  C   UNL     1      44.073 -19.395   3.421  1.00  0.00     0.043 A 
HETATM   33  C   UNL     1      42.930 -18.599   3.530  1.00  0.00     0.012 A 
ENDBRANCH   6  27
TORSDOF 5
ENDMDL
MODEL 6
REMARK VINA RESULT:      -8.4      4.248      8.502
REMARK  5 active torsions:
REMARK  status: ('A' for Active; 'I' for Inactive)
REMARK    1  A    between atoms: C_3  and  O_4 
REMARK    2  A    between atoms: C_6  and  N_7 
REMARK       I    between atoms: N_7  and  C_8 
REMARK    3  A    between atoms: C_8  and  C_9 
REMARK    4  A    between atoms: C_14  and  C_15 
REMARK    5  A    between atoms: C_23  and  C_24 
ROOT
HETATM    1  C   UNL     1      43.269 -15.948   3.049  1.00  0.00     0.148 A 
HETATM    2  N   UNL     1      42.652 -15.844   4.250  1.00  0.00    -0.165 NA
HETATM    3  N   UNL     1      42.256 -14.556   4.285  1.00  0.00    -0.240 N 
HETATM    4  C   UNL     1      42.671 -13.818   3.214  1.00  0.00     0.123 A 
HETATM    5  N   UNL     1      42.431 -12.494   3.123  1.00  0.00    -0.366 N 
HETATM    6  C   UNL     1      41.615 -11.776   4.094  1.00  0.00     0.118 C 
HETATM    7  C   UNL     1      41.635 -12.487   5.460  1.00  0.00     0.066 C 
HETATM    8  C   UNL     1      41.494 -14.020   5.397  1.00  0.00     0.221 C 
HETATM    9  C   UNL     1      43.310 -14.695   2.380  1.00  0.00     0.089 A 
HETATM   10  H   UNL     1      42.649 -11.980   2.271  1.00  0.00     0.161 HD
ENDROOT
BRANCH   1  11
HETATM   11  C   UNL     1      43.815 -17.225   2.551  1.00  0.00     0.276 C 
HETATM   12  N   UNL     1      43.569 -18.265   3.425  1.00  0.00    -0.322 N 
HETATM   13  H   UNL     1      43.085 -17.976   4.270  1.00  0.00     0.169 HD
HETATM   14  O   UNL     1      44.411 -17.286   1.483  1.00  0.00    -0.266 OA
BRANCH  12  15
HETATM   15  C   UNL     1      43.900 -19.623   3.279  1.00  0.00     0.037 A 
HETATM   16  C   UNL     1      44.508 -20.389   4.276  1.00  0.00     0.066 A 
HETATM   17  C   UNL     1      44.814 -21.728   4.038  1.00  0.00     0.067 A 
HETATM   18  C   UNL     1      44.517 -22.328   2.818  1.00  0.00     0.036 A 
HETATM   19  C   UNL     1      43.907 -21.572   1.820  1.00  0.00     0.005 A 
HETATM   20  C   UNL     1      43.604 -20.225   2.048  1.00  0.00     0.029 A 
BRANCH  17  21
HETATM   21  O   UNL     1      45.421 -22.429   5.039  1.00  0.00    -0.361 OA
HETATM   22  H   UNL     1      46.347 -22.144   5.105  1.00  0.00     0.217 HD
ENDBRANCH  17  21
ENDBRANCH  12  15
ENDBRANCH   1  11
BRANCH   8  23
HETATM   23  C   UNL     1      40.062 -14.500   5.328  1.00  0.00     0.409 C 
HETATM   24  F   UNL     1      39.609 -14.696   4.076  1.00  0.00    -0.169 F 
HETATM   25  F   UNL     1      39.887 -15.659   6.007  1.00  0.00    -0.169 F 
HETATM   26  F   UNL     1      39.238 -13.594   5.915  1.00  0.00    -0.169 F 
ENDBRANCH   8  23
BRANCH   6  27
HETATM   27  C   UNL     1      40.234 -11.432   3.560  1.00  0.00    -0.035 A 
HETATM   28  C   UNL     1      39.757 -11.894   2.320  1.00  0.00     0.012 A 
HETATM   29  C   UNL     1      38.491 -11.530   1.856  1.00  0.00     0.043 A 
HETATM   30  C   UNL     1      37.694 -10.692   2.624  1.00  0.00     0.116 A 
HETATM   31  F   UNL     1      36.483 -10.336   2.176  1.00  0.00    -0.206 F 
HETATM   32  C   UNL     1      38.139 -10.215   3.849  1.00  0.00     0.043 A 
HETATM   33  C   UNL     1      39.402 -10.583   4.316  1.00  0.00     0.012 A 
ENDBRANCH   6  27
TORSDOF 5
ENDMDL
MODEL 7
REMARK VINA RESULT:      -8.4      4.574      7.252
REMARK  5 active torsions:
REMARK  status: ('A' for Active; 'I' for Inactive)
REMARK    1  A    between atoms: C_3  and  O_4 
REMARK    2  A    between atoms: C_6  and  N_7 
REMARK       I    between atoms: N_7  and  C_8 
REMARK    3  A    between atoms: C_8  and  C_9 
REMARK    4  A    between atoms: C_14  and  C_15 
REMARK    5  A    between atoms: C_23  and  C_24 
ROOT
HETATM    1  C   UNL     1      40.521 -13.301   4.996  1.00  0.00     0.148 A 
HETATM    2  N   UNL     1      40.066 -13.749   3.802  1.00  0.00    -0.165 NA
HETATM    3  N   UNL     1      41.124 -14.411   3.294  1.00  0.00    -0.240 N 
HETATM    4  C   UNL     1      42.252 -14.325   4.059  1.00  0.00     0.123 A 
HETATM    5  N   UNL     1      43.425 -14.864   3.666  1.00  0.00    -0.366 N 
HETATM    6  C   UNL     1      43.551 -15.671   2.460  1.00  0.00     0.118 C 
HETATM    7  C   UNL     1      42.464 -15.301   1.434  1.00  0.00     0.066 C 
HETATM    8  C   UNL     1      41.054 -15.107   2.024  1.00  0.00     0.221 C 
HETATM    9  C   UNL     1      41.891 -13.633   5.184  1.00  0.00     0.089 A 
HETATM   10  H   UNL     1      44.226 -14.887   4.294  1.00  0.00     0.161 HD
ENDROOT
BRANCH   1  11
HETATM   11  C   UNL     1      39.663 -12.562   5.941  1.00  0.00     0.276 C 
HETATM   12  N   UNL     1      40.405 -11.808   6.829  1.00  0.00    -0.322 N 
HETATM   13  H   UNL     1      41.409 -11.910   6.704  1.00  0.00     0.169 HD
HETATM   14  O   UNL     1      38.442 -12.654   5.895  1.00  0.00    -0.266 OA
BRANCH  12  15
HETATM   15  C   UNL     1      39.945 -10.951   7.843  1.00  0.00     0.037 A 
HETATM   16  C   UNL     1      39.953 -11.275   9.201  1.00  0.00     0.066 A 
HETATM   17  C   UNL     1      39.462 -10.366  10.137  1.00  0.00     0.067 A 
HETATM   18  C   UNL     1      38.966  -9.127   9.746  1.00  0.00     0.036 A 
HETATM   19  C   UNL     1      38.958  -8.795   8.393  1.00  0.00     0.005 A 
HETATM   20  C   UNL     1      39.441  -9.704   7.446  1.00  0.00     0.029 A 
BRANCH  17  21
HETATM   21  O   UNL     1      39.479 -10.736  11.451  1.00  0.00    -0.361 OA
HETATM   22  H   UNL     1      39.037 -10.050  11.975  1.00  0.00     0.217 HD
ENDBRANCH  17  21
ENDBRANCH  12  15
ENDBRANCH   1  11
BRANCH   8  23
HETATM   23  C   UNL     1      40.272 -16.392   2.175  1.00  0.00     0.409 C 
HETATM   24  F   UNL     1      38.939 -16.238   2.068  1.00  0.00    -0.169 F 
HETATM   25  F   UNL     1      40.646 -17.320   1.262  1.00  0.00    -0.169 F 
HETATM   26  F   UNL     1      40.514 -16.944   3.393  1.00  0.00    -0.169 F 
ENDBRANCH   8  23
BRANCH   6  27
HETATM   27  C   UNL     1      43.684 -17.156   2.759  1.00  0.00    -0.035 A 
HETATM   28  C   UNL     1      43.731 -17.671   4.068  1.00  0.00     0.012 A 
HETATM   29  C   UNL     1      43.882 -19.040   4.296  1.00  0.00     0.043 A 
HETATM   30  C   UNL     1      43.996 -19.906   3.218  1.00  0.00     0.116 A 
HETATM   31  F   UNL     1      44.149 -21.219   3.437  1.00  0.00    -0.206 F 
HETATM   32  C   UNL     1      43.959 -19.429   1.916  1.00  0.00     0.043 A 
HETATM   33  C   UNL     1      43.803 -18.061   1.686  1.00  0.00     0.012 A 
ENDBRANCH   6  27
TORSDOF 5
ENDMDL
MODEL 8
REMARK VINA RESULT:      -8.2      4.180      8.658
REMARK  5 active torsions:
REMARK  status: ('A' for Active; 'I' for Inactive)
REMARK    1  A    between atoms: C_3  and  O_4 
REMARK    2  A    between atoms: C_6  and  N_7 
REMARK       I    between atoms: N_7  and  C_8 
REMARK    3  A    between atoms: C_8  and  C_9 
REMARK    4  A    between atoms: C_14  and  C_15 
REMARK    5  A    between atoms: C_23  and  C_24 
ROOT
HETATM    1  C   UNL     1      41.930 -16.348   3.280  1.00  0.00     0.148 A 
HETATM    2  N   UNL     1      40.670 -15.855   3.264  1.00  0.00    -0.165 NA
HETATM    3  N   UNL     1      40.826 -14.619   2.751  1.00  0.00    -0.240 N 
HETATM    4  C   UNL     1      42.128 -14.270   2.530  1.00  0.00     0.123 A 
HETATM    5  N   UNL     1      42.474 -13.042   2.091  1.00  0.00    -0.366 N 
HETATM    6  C   UNL     1      41.488 -12.038   1.711  1.00  0.00     0.118 C 
HETATM    7  C   UNL     1      40.154 -12.272   2.445  1.00  0.00     0.066 C 
HETATM    8  C   UNL     1      39.697 -13.742   2.506  1.00  0.00     0.221 C 
HETATM    9  C   UNL     1      42.870 -15.377   2.839  1.00  0.00     0.089 A 
HETATM   10  H   UNL     1      43.436 -12.832   1.827  1.00  0.00     0.161 HD
ENDROOT
BRANCH   1  11
HETATM   11  C   UNL     1      42.233 -17.725   3.715  1.00  0.00     0.276 C 
HETATM   12  N   UNL     1      43.063 -18.375   2.823  1.00  0.00    -0.322 N 
HETATM   13  H   UNL     1      43.300 -17.814   2.009  1.00  0.00     0.169 HD
HETATM   14  O   UNL     1      41.768 -18.180   4.753  1.00  0.00    -0.266 OA
BRANCH  12  15
HETATM   15  C   UNL     1      43.594 -19.673   2.913  1.00  0.00     0.037 A 
HETATM   16  C   UNL     1      44.249 -20.171   4.042  1.00  0.00     0.066 A 
HETATM   17  C   UNL     1      44.758 -21.469   4.036  1.00  0.00     0.067 A 
HETATM   18  C   UNL     1      44.619 -22.292   2.923  1.00  0.00     0.036 A 
HETATM   19  C   UNL     1      43.964 -21.803   1.795  1.00  0.00     0.005 A 
HETATM   20  C   UNL     1      43.458 -20.500   1.789  1.00  0.00     0.029 A 
BRANCH  17  21
HETATM   21  O   UNL     1      45.402 -21.903   5.158  1.00  0.00    -0.361 OA
HETATM   22  H   UNL     1      44.824 -22.523   5.631  1.00  0.00     0.217 HD
ENDBRANCH  17  21
ENDBRANCH  12  15
ENDBRANCH   1  11
BRANCH   8  23
HETATM   23  C   UNL     1      38.938 -14.199   1.281  1.00  0.00     0.409 C 
HETATM   24  F   UNL     1      37.979 -15.107   1.537  1.00  0.00    -0.169 F 
HETATM   25  F   UNL     1      38.351 -13.161   0.637  1.00  0.00    -0.169 F 
HETATM   26  F   UNL     1      39.792 -14.761   0.387  1.00  0.00    -0.169 F 
ENDBRANCH   8  23
BRANCH   6  27
HETATM   27  C   UNL     1      41.380 -11.864   0.205  1.00  0.00    -0.035 A 
HETATM   28  C   UNL     1      42.119 -12.636  -0.709  1.00  0.00     0.012 A 
HETATM   29  C   UNL     1      42.008 -12.423  -2.085  1.00  0.00     0.043 A 
HETATM   30  C   UNL     1      41.164 -11.429  -2.559  1.00  0.00     0.116 A 
HETATM   31  F   UNL     1      41.063 -11.219  -3.878  1.00  0.00    -0.206 F 
HETATM   32  C   UNL     1      40.425 -10.647  -1.683  1.00  0.00     0.043 A 
HETATM   33  C   UNL     1      40.531 -10.863  -0.307  1.00  0.00     0.012 A 
ENDBRANCH   6  27
TORSDOF 5
ENDMDL
MODEL 9
REMARK VINA RESULT:      -8.1      3.833      8.532
REMARK  5 active torsions:
REMARK  status: ('A' for Active; 'I' for Inactive)
REMARK    1  A    between atoms: C_3  and  O_4 
REMARK    2  A    between atoms: C_6  and  N_7 
REMARK       I    between atoms: N_7  and  C_8 
REMARK    3  A    between atoms: C_8  and  C_9 
REMARK    4  A    between atoms: C_14  and  C_15 
REMARK    5  A    between atoms: C_23  and  C_24 
ROOT
HETATM    1  C   UNL     1      41.864 -16.590   1.144  1.00  0.00     0.148 A 
HETATM    2  N   UNL     1      41.910 -15.684   0.139  1.00  0.00    -0.165 NA
HETATM    3  N   UNL     1      40.747 -15.015   0.270  1.00  0.00    -0.240 N 
HETATM    4  C   UNL     1      39.928 -15.511   1.243  1.00  0.00     0.123 A 
HETATM    5  N   UNL     1      38.694 -15.012   1.461  1.00  0.00    -0.366 N 
HETATM    6  C   UNL     1      38.186 -13.840   0.758  1.00  0.00     0.118 C 
HETATM    7  C   UNL     1      38.881 -13.674  -0.607  1.00  0.00     0.066 C 
HETATM    8  C   UNL     1      40.405 -13.899  -0.591  1.00  0.00     0.221 C 
HETATM    9  C   UNL     1      40.631 -16.517   1.848  1.00  0.00     0.089 A 
HETATM   10  H   UNL     1      38.139 -15.317   2.259  1.00  0.00     0.161 HD
ENDROOT
BRANCH   1  11
HETATM   11  C   UNL     1      42.979 -17.514   1.425  1.00  0.00     0.276 C 
HETATM   12  N   UNL     1      42.546 -18.667   2.049  1.00  0.00    -0.322 N 
HETATM   13  H   UNL     1      41.547 -18.674   2.237  1.00  0.00     0.169 HD
HETATM   14  O   UNL     1      44.131 -17.230   1.121  1.00  0.00    -0.266 OA
BRANCH  12  15
HETATM   15  C   UNL     1      43.304 -19.785   2.438  1.00  0.00     0.037 A 
HETATM   16  C   UNL     1      44.025 -19.862   3.632  1.00  0.00     0.066 A 
HETATM   17  C   UNL     1      44.761 -21.008   3.928  1.00  0.00     0.067 A 
HETATM   18  C   UNL     1      44.788 -22.092   3.056  1.00  0.00     0.036 A 
HETATM   19  C   UNL     1      44.068 -22.024   1.866  1.00  0.00     0.005 A 
HETATM   20  C   UNL     1      43.334 -20.875   1.556  1.00  0.00     0.029 A 
BRANCH  17  21
HETATM   21  O   UNL     1      45.460 -21.028   5.100  1.00  0.00    -0.361 OA
HETATM   22  H   UNL     1      46.406 -20.940   4.903  1.00  0.00     0.217 HD
ENDBRANCH  17  21
ENDBRANCH  12  15
ENDBRANCH   1  11
BRANCH   8  23
HETATM   23  C   UNL     1      41.200 -12.675  -0.200  1.00  0.00     0.409 C 
HETATM   24  F   UNL     1      41.585 -12.661   1.089  1.00  0.00    -0.169 F 
HETATM   25  F   UNL     1      42.315 -12.535  -0.956  1.00  0.00    -0.169 F 
HETATM   26  F   UNL     1      40.462 -11.553  -0.408  1.00  0.00    -0.169 F 
ENDBRANCH   8  23
BRANCH   6  27
HETATM   27  C   UNL     1      38.165 -12.596   1.632  1.00  0.00    -0.035 A 
HETATM   28  C   UNL     1      38.909 -12.484   2.820  1.00  0.00     0.012 A 
HETATM   29  C   UNL     1      38.838 -11.332   3.607  1.00  0.00     0.043 A 
HETATM   30  C   UNL     1      38.014 -10.286   3.217  1.00  0.00     0.116 A 
HETATM   31  F   UNL     1      37.939  -9.184   3.975  1.00  0.00    -0.206 F 
HETATM   32  C   UNL     1      37.263 -10.368   2.053  1.00  0.00     0.043 A 
HETATM   33  C   UNL     1      37.338 -11.517   1.263  1.00  0.00     0.012 A 
ENDBRANCH   6  27
TORSDOF 5
ENDMDL
MODEL 10
REMARK VINA RESULT:      -8.0      4.231      8.424
REMARK  5 active torsions:
REMARK  status: ('A' for Active; 'I' for Inactive)
REMARK    1  A    between atoms: C_3  and  O_4 
REMARK    2  A    between atoms: C_6  and  N_7 
REMARK       I    between atoms: N_7  and  C_8 
REMARK    3  A    between atoms: C_8  and  C_9 
REMARK    4  A    between atoms: C_14  and  C_15 
REMARK    5  A    between atoms: C_23  and  C_24 
ROOT
HETATM    1  C   UNL     1      43.293 -16.157   4.372  1.00  0.00     0.148 A 
HETATM    2  N   UNL     1      42.678 -15.387   5.300  1.00  0.00    -0.165 NA
HETATM    3  N   UNL     1      42.251 -14.325   4.589  1.00  0.00    -0.240 N 
HETATM    4  C   UNL     1      42.643 -14.338   3.282  1.00  0.00     0.123 A 
HETATM    5  N   UNL     1      42.369 -13.317   2.443  1.00  0.00    -0.366 N 
HETATM    6  C   UNL     1      41.540 -12.183   2.833  1.00  0.00     0.118 C 
HETATM    7  C   UNL     1      41.584 -11.969   4.358  1.00  0.00     0.066 C 
HETATM    8  C   UNL     1      41.481 -13.257   5.197  1.00  0.00     0.221 C 
HETATM    9  C   UNL     1      43.300 -15.524   3.099  1.00  0.00     0.089 A 
HETATM   10  H   UNL     1      42.571 -13.389   1.447  1.00  0.00     0.161 HD
ENDROOT
BRANCH   1  11
HETATM   11  C   UNL     1      43.869 -17.476   4.696  1.00  0.00     0.276 C 
HETATM   12  N   UNL     1      43.588 -18.414   3.722  1.00  0.00    -0.322 N 
HETATM   13  H   UNL     1      43.013 -18.051   2.966  1.00  0.00     0.169 HD
HETATM   14  O   UNL     1      44.505 -17.655   5.727  1.00  0.00    -0.266 OA
BRANCH  12  15
HETATM   15  C   UNL     1      43.995 -19.758   3.661  1.00  0.00     0.037 A 
HETATM   16  C   UNL     1      43.995 -20.520   2.491  1.00  0.00     0.066 A 
HETATM   17  C   UNL     1      44.401 -21.853   2.529  1.00  0.00     0.067 A 
HETATM   18  C   UNL     1      44.820 -22.445   3.716  1.00  0.00     0.036 A 
HETATM   19  C   UNL     1      44.826 -21.689   4.886  1.00  0.00     0.005 A 
HETATM   20  C   UNL     1      44.412 -20.354   4.859  1.00  0.00     0.029 A 
BRANCH  17  21
HETATM   21  O   UNL     1      44.370 -22.559   1.362  1.00  0.00    -0.361 OA
HETATM   22  H   UNL     1      45.267 -22.872   1.161  1.00  0.00     0.217 HD
ENDBRANCH  17  21
ENDBRANCH  12  15
ENDBRANCH   1  11
BRANCH   8  23
HETATM   23  C   UNL     1      40.061 -13.713   5.446  1.00  0.00     0.409 C 
HETATM   24  F   UNL     1      39.165 -12.711   5.505  1.00  0.00    -0.169 F 
HETATM   25  F   UNL     1      39.637 -14.579   4.495  1.00  0.00    -0.169 F 
HETATM   26  F   UNL     1      39.987 -14.385   6.625  1.00  0.00    -0.169 F 
ENDBRANCH   8  23
BRANCH   6  27
HETATM   27  C   UNL     1      40.149 -12.237   2.224  1.00  0.00    -0.035 A 
HETATM   28  C   UNL     1      39.162 -11.268   2.483  1.00  0.00     0.012 A 
HETATM   29  C   UNL     1      37.887 -11.373   1.923  1.00  0.00     0.043 A 
HETATM   30  C   UNL     1      37.584 -12.453   1.106  1.00  0.00     0.116 A 
HETATM   31  F   UNL     1      36.358 -12.558   0.575  1.00  0.00    -0.206 F 
HETATM   32  C   UNL     1      38.533 -13.428   0.836  1.00  0.00     0.043 A 
HETATM   33  C   UNL     1      39.810 -13.322   1.391  1.00  0.00     0.012 A 
ENDBRANCH   6  27
TORSDOF 5
ENDMDL
