MODEL 1
REMARK VINA RESULT:      -9.1      0.000      0.000
REMARK  4 active torsions:
REMARK  status: ('A' for Active; 'I' for Inactive)
REMARK    1  A    between atoms: C_4  and  O_5 
REMARK    2  A    between atoms: C_6  and  N_7 
REMARK       I    between atoms: N_7  and  C_8 
REMARK    3  A    between atoms: C_8  and  C_9 
REMARK    4  A    between atoms: C_9  and  N_10 
ROOT
HETATM    1  N   UNL     1      41.833 -15.814   4.554  1.00  0.00    -0.259 N 
HETATM    2  C   UNL     1      41.224 -16.729   5.357  1.00  0.00     0.326 C 
HETATM    3  O   UNL     1      40.238 -16.568   6.054  1.00  0.00    -0.247 OA
HETATM    4  N   UNL     1      41.934 -17.906   5.295  1.00  0.00    -0.320 N 
HETATM    5  C   UNL     1      43.169 -17.739   4.578  1.00  0.00     0.144 C 
HETATM    6  C   UNL     1      43.485 -18.885   3.671  1.00  0.00    -0.014 A 
HETATM    7  C   UNL     1      44.503 -19.674   4.229  1.00  0.00    -0.049 A 
HETATM    8  C   UNL     1      44.950 -20.824   3.602  1.00  0.00     0.007 A 
HETATM    9  C   UNL     1      44.366 -21.183   2.387  1.00  0.00     0.001 A 
HETATM   10  C   UNL     1      43.343 -20.402   1.828  1.00  0.00     0.001 A 
HETATM   11  C   UNL     1      42.891 -19.247   2.473  1.00  0.00     0.011 A 
HETATM   12  C   UNL     1      44.944 -19.139   5.556  1.00  0.00     0.042 C 
HETATM   13  C   UNL     1      44.394 -17.706   5.515  1.00  0.00     0.051 C 
HETATM   14  C   UNL     1      42.938 -16.359   3.960  1.00  0.00     0.261 C 
HETATM   15  O   UNL     1      43.630 -15.786   3.127  1.00  0.00    -0.270 OA
HETATM   16  H   UNL     1      41.679 -18.708   5.856  1.00  0.00     0.165 HD
ENDROOT
BRANCH   1  17
HETATM   17  C   UNL     1      41.462 -14.418   4.480  1.00  0.00     0.240 C 
BRANCH  17  18
HETATM   18  C   UNL     1      41.256 -13.898   3.061  1.00  0.00     0.240 C 
HETATM   19  N   UNL     1      40.618 -14.785   2.218  1.00  0.00    -0.323 N 
HETATM   20  H   UNL     1      40.124 -15.558   2.664  1.00  0.00     0.169 HD
HETATM   21  O   UNL     1      41.719 -12.814   2.713  1.00  0.00    -0.271 OA
BRANCH  19  22
HETATM   22  C   UNL     1      40.546 -14.756   0.801  1.00  0.00     0.068 A 
HETATM   23  C   UNL     1      41.373 -15.447  -0.099  1.00  0.00     0.092 A 
HETATM   24  C   UNL     1      41.134 -15.398  -1.478  1.00  0.00     0.045 A 
HETATM   25  C   UNL     1      40.075 -14.653  -1.999  1.00  0.00    -0.059 A 
HETATM   26  C   UNL     1      39.859 -14.583  -3.481  1.00  0.00     0.048 C 
HETATM   27  C   UNL     1      39.262 -13.940  -1.117  1.00  0.00     0.009 A 
HETATM   28  C   UNL     1      39.486 -14.007   0.265  1.00  0.00     0.033 A 
BRANCH  23  29
HETATM   29  O   UNL     1      42.421 -16.251   0.247  1.00  0.00    -0.358 OA
HETATM   30  H   UNL     1      43.251 -15.805  -0.023  1.00  0.00     0.218 HD
ENDBRANCH  23  29
ENDBRANCH  19  22
ENDBRANCH  17  18
ENDBRANCH   1  17
TORSDOF 4
ENDMDL
MODEL 2
REMARK VINA RESULT:      -8.9      3.186      6.022
REMARK  4 active torsions:
REMARK  status: ('A' for Active; 'I' for Inactive)
REMARK    1  A    between atoms: C_4  and  O_5 
REMARK    2  A    between atoms: C_6  and  N_7 
REMARK       I    between atoms: N_7  and  C_8 
REMARK    3  A    between atoms: C_8  and  C_9 
REMARK    4  A    between atoms: C_9  and  N_10 
ROOT
HETATM    1  N   UNL     1      42.224 -16.296   4.229  1.00  0.00    -0.259 N 
HETATM    2  C   UNL     1      41.543 -17.149   5.044  1.00  0.00     0.326 C 
HETATM    3  O   UNL     1      40.576 -16.897   5.742  1.00  0.00    -0.247 OA
HETATM    4  N   UNL     1      42.150 -18.382   4.990  1.00  0.00    -0.320 N 
HETATM    5  C   UNL     1      43.391 -18.328   4.268  1.00  0.00     0.144 C 
HETATM    6  C   UNL     1      43.605 -19.505   3.370  1.00  0.00    -0.014 A 
HETATM    7  C   UNL     1      44.554 -20.373   3.932  1.00  0.00    -0.049 A 
HETATM    8  C   UNL     1      44.899 -21.562   3.314  1.00  0.00     0.007 A 
HETATM    9  C   UNL     1      44.281 -21.881   2.105  1.00  0.00     0.001 A 
HETATM   10  C   UNL     1      43.327 -21.021   1.542  1.00  0.00     0.001 A 
HETATM   11  C   UNL     1      42.977 -19.826   2.178  1.00  0.00     0.011 A 
HETATM   12  C   UNL     1      45.045 -19.865   5.253  1.00  0.00     0.042 C 
HETATM   13  C   UNL     1      44.618 -18.391   5.200  1.00  0.00     0.051 C 
HETATM   14  C   UNL     1      43.276 -16.939   3.637  1.00  0.00     0.261 C 
HETATM   15  O   UNL     1      44.011 -16.434   2.796  1.00  0.00    -0.270 OA
HETATM   16  H   UNL     1      41.830 -19.155   5.559  1.00  0.00     0.165 HD
ENDROOT
BRANCH   1  17
HETATM   17  C   UNL     1      41.972 -14.875   4.143  1.00  0.00     0.240 C 
BRANCH  17  18
HETATM   18  C   UNL     1      43.015 -14.009   4.844  1.00  0.00     0.240 C 
HETATM   19  N   UNL     1      42.958 -14.054   6.222  1.00  0.00    -0.323 N 
HETATM   20  H   UNL     1      42.431 -14.829   6.628  1.00  0.00     0.169 HD
HETATM   21  O   UNL     1      43.762 -13.276   4.200  1.00  0.00    -0.271 OA
BRANCH  19  22
HETATM   22  C   UNL     1      43.548 -13.165   7.157  1.00  0.00     0.068 A 
HETATM   23  C   UNL     1      42.942 -12.053   7.762  1.00  0.00     0.092 A 
HETATM   24  C   UNL     1      43.615 -11.310   8.740  1.00  0.00     0.045 A 
HETATM   25  C   UNL     1      44.912 -11.646   9.134  1.00  0.00    -0.059 A 
HETATM   26  C   UNL     1      45.630 -10.815  10.154  1.00  0.00     0.048 C 
HETATM   27  C   UNL     1      45.536 -12.735   8.521  1.00  0.00     0.009 A 
HETATM   28  C   UNL     1      44.854 -13.492   7.559  1.00  0.00     0.033 A 
BRANCH  23  29
HETATM   29  O   UNL     1      41.671 -11.616   7.522  1.00  0.00    -0.358 OA
HETATM   30  H   UNL     1      41.113 -12.396   7.318  1.00  0.00     0.218 HD
ENDBRANCH  23  29
ENDBRANCH  19  22
ENDBRANCH  17  18
ENDBRANCH   1  17
TORSDOF 4
ENDMDL
MODEL 3
REMARK VINA RESULT:      -8.9      1.406      2.389
REMARK  4 active torsions:
REMARK  status: ('A' for Active; 'I' for Inactive)
REMARK    1  A    between atoms: C_4  and  O_5 
REMARK    2  A    between atoms: C_6  and  N_7 
REMARK       I    between atoms: N_7  and  C_8 
REMARK    3  A    between atoms: C_8  and  C_9 
REMARK    4  A    between atoms: C_9  and  N_10 
ROOT
HETATM    1  N   UNL     1      41.736 -16.009   4.719  1.00  0.00    -0.259 N 
HETATM    2  C   UNL     1      42.958 -15.568   4.309  1.00  0.00     0.326 C 
HETATM    3  O   UNL     1      43.378 -14.425   4.320  1.00  0.00    -0.247 OA
HETATM    4  N   UNL     1      43.669 -16.642   3.825  1.00  0.00    -0.320 N 
HETATM    5  C   UNL     1      42.848 -17.817   3.726  1.00  0.00     0.144 C 
HETATM    6  C   UNL     1      43.547 -19.066   4.159  1.00  0.00    -0.014 A 
HETATM    7  C   UNL     1      43.899 -19.834   3.037  1.00  0.00    -0.049 A 
HETATM    8  C   UNL     1      44.597 -21.021   3.166  1.00  0.00     0.007 A 
HETATM    9  C   UNL     1      44.942 -21.448   4.449  1.00  0.00     0.001 A 
HETATM   10  C   UNL     1      44.600 -20.681   5.572  1.00  0.00     0.001 A 
HETATM   11  C   UNL     1      43.903 -19.477   5.432  1.00  0.00     0.011 A 
HETATM   12  C   UNL     1      43.482 -19.165   1.764  1.00  0.00     0.042 C 
HETATM   13  C   UNL     1      42.456 -18.140   2.270  1.00  0.00     0.051 C 
HETATM   14  C   UNL     1      41.621 -17.357   4.514  1.00  0.00     0.261 C 
HETATM   15  O   UNL     1      40.658 -18.029   4.863  1.00  0.00    -0.270 OA
HETATM   16  H   UNL     1      44.591 -16.529   3.424  1.00  0.00     0.165 HD
ENDROOT
BRANCH   1  17
HETATM   17  C   UNL     1      40.659 -15.144   5.146  1.00  0.00     0.240 C 
BRANCH  17  18
HETATM   18  C   UNL     1      40.005 -14.352   4.018  1.00  0.00     0.240 C 
HETATM   19  N   UNL     1      39.720 -15.097   2.892  1.00  0.00    -0.323 N 
HETATM   20  H   UNL     1      39.720 -16.111   3.008  1.00  0.00     0.169 HD
HETATM   21  O   UNL     1      39.851 -13.136   4.108  1.00  0.00    -0.271 OA
BRANCH  19  22
HETATM   22  C   UNL     1      39.411 -14.636   1.586  1.00  0.00     0.068 A 
HETATM   23  C   UNL     1      40.295 -14.521   0.501  1.00  0.00     0.092 A 
HETATM   24  C   UNL     1      39.835 -14.134  -0.763  1.00  0.00     0.045 A 
HETATM   25  C   UNL     1      38.488 -13.839  -0.981  1.00  0.00    -0.059 A 
HETATM   26  C   UNL     1      38.022 -13.389  -2.333  1.00  0.00     0.048 C 
HETATM   27  C   UNL     1      37.603 -13.924   0.096  1.00  0.00     0.009 A 
HETATM   28  C   UNL     1      38.058 -14.335   1.356  1.00  0.00     0.033 A 
BRANCH  23  29
HETATM   29  O   UNL     1      41.629 -14.810   0.534  1.00  0.00    -0.358 OA
HETATM   30  H   UNL     1      42.015 -14.573  -0.335  1.00  0.00     0.218 HD
ENDBRANCH  23  29
ENDBRANCH  19  22
ENDBRANCH  17  18
ENDBRANCH   1  17
TORSDOF 4
ENDMDL
MODEL 4
REMARK VINA RESULT:      -8.8      2.305      6.933
REMARK  4 active torsions:
REMARK  status: ('A' for Active; 'I' for Inactive)
REMARK    1  A    between atoms: C_4  and  O_5 
REMARK    2  A    between atoms: C_6  and  N_7 
REMARK       I    between atoms: N_7  and  C_8 
REMARK    3  A    between atoms: C_8  and  C_9 
REMARK    4  A    between atoms: C_9  and  N_10 
ROOT
HETATM    1  N   UNL     1      42.203 -14.341   4.839  1.00  0.00    -0.259 N 
HETATM    2  C   UNL     1      42.852 -13.696   3.830  1.00  0.00     0.326 C 
HETATM    3  O   UNL     1      44.052 -13.649   3.628  1.00  0.00    -0.247 OA
HETATM    4  N   UNL     1      41.918 -13.045   3.057  1.00  0.00    -0.320 N 
HETATM    5  C   UNL     1      40.613 -13.089   3.656  1.00  0.00     0.144 C 
HETATM    6  C   UNL     1      39.516 -13.333   2.670  1.00  0.00    -0.014 A 
HETATM    7  C   UNL     1      38.811 -12.142   2.431  1.00  0.00    -0.049 A 
HETATM    8  C   UNL     1      37.770 -12.091   1.521  1.00  0.00     0.007 A 
HETATM    9  C   UNL     1      37.429 -13.261   0.842  1.00  0.00     0.001 A 
HETATM   10  C   UNL     1      38.134 -14.451   1.071  1.00  0.00     0.001 A 
HETATM   11  C   UNL     1      39.191 -14.492   1.985  1.00  0.00     0.011 A 
HETATM   12  C   UNL     1      39.379 -11.003   3.221  1.00  0.00     0.042 C 
HETATM   13  C   UNL     1      40.207 -11.740   4.282  1.00  0.00     0.051 C 
HETATM   14  C   UNL     1      40.854 -14.129   4.752  1.00  0.00     0.261 C 
HETATM   15  O   UNL     1      40.023 -14.655   5.483  1.00  0.00    -0.270 OA
HETATM   16  H   UNL     1      42.191 -12.463   2.276  1.00  0.00     0.165 HD
ENDROOT
BRANCH   1  17
HETATM   17  C   UNL     1      42.864 -15.007   5.939  1.00  0.00     0.240 C 
BRANCH  17  18
HETATM   18  C   UNL     1      43.090 -16.500   5.724  1.00  0.00     0.240 C 
HETATM   19  N   UNL     1      43.826 -16.808   4.598  1.00  0.00    -0.323 N 
HETATM   20  H   UNL     1      44.357 -16.041   4.182  1.00  0.00     0.169 HD
HETATM   21  O   UNL     1      42.563 -17.331   6.462  1.00  0.00    -0.271 OA
BRANCH  19  22
HETATM   22  C   UNL     1      43.955 -18.060   3.945  1.00  0.00     0.068 A 
HETATM   23  C   UNL     1      44.438 -19.256   4.501  1.00  0.00     0.092 A 
HETATM   24  C   UNL     1      44.427 -20.447   3.765  1.00  0.00     0.045 A 
HETATM   25  C   UNL     1      43.948 -20.479   2.454  1.00  0.00    -0.059 A 
HETATM   26  C   UNL     1      43.981 -21.756   1.670  1.00  0.00     0.048 C 
HETATM   27  C   UNL     1      43.490 -19.291   1.880  1.00  0.00     0.009 A 
HETATM   28  C   UNL     1      43.478 -18.104   2.624  1.00  0.00     0.033 A 
BRANCH  23  29
HETATM   29  O   UNL     1      44.900 -19.405   5.777  1.00  0.00    -0.358 OA
HETATM   30  H   UNL     1      44.430 -20.160   6.187  1.00  0.00     0.218 HD
ENDBRANCH  23  29
ENDBRANCH  19  22
ENDBRANCH  17  18
ENDBRANCH   1  17
TORSDOF 4
ENDMDL
MODEL 5
REMARK VINA RESULT:      -8.6      2.453      2.815
REMARK  4 active torsions:
REMARK  status: ('A' for Active; 'I' for Inactive)
REMARK    1  A    between atoms: C_4  and  O_5 
REMARK    2  A    between atoms: C_6  and  N_7 
REMARK       I    between atoms: N_7  and  C_8 
REMARK    3  A    between atoms: C_8  and  C_9 
REMARK    4  A    between atoms: C_9  and  N_10 
ROOT
HETATM    1  N   UNL     1      41.813 -14.168   3.651  1.00  0.00    -0.259 N 
HETATM    2  C   UNL     1      40.862 -14.947   4.235  1.00  0.00     0.326 C 
HETATM    3  O   UNL     1      39.726 -14.629   4.543  1.00  0.00    -0.247 OA
HETATM    4  N   UNL     1      41.401 -16.190   4.471  1.00  0.00    -0.320 N 
HETATM    5  C   UNL     1      42.814 -16.210   4.216  1.00  0.00     0.144 C 
HETATM    6  C   UNL     1      43.274 -17.453   3.523  1.00  0.00    -0.014 A 
HETATM    7  C   UNL     1      43.939 -18.292   4.431  1.00  0.00    -0.049 A 
HETATM    8  C   UNL     1      44.425 -19.529   4.045  1.00  0.00     0.007 A 
HETATM    9  C   UNL     1      44.244 -19.927   2.721  1.00  0.00     0.001 A 
HETATM   10  C   UNL     1      43.574 -19.095   1.811  1.00  0.00     0.001 A 
HETATM   11  C   UNL     1      43.077 -17.851   2.211  1.00  0.00     0.011 A 
HETATM   12  C   UNL     1      43.971 -17.696   5.804  1.00  0.00     0.042 C 
HETATM   13  C   UNL     1      43.648 -16.223   5.514  1.00  0.00     0.051 C 
HETATM   14  C   UNL     1      42.978 -14.870   3.497  1.00  0.00     0.261 C 
HETATM   15  O   UNL     1      43.975 -14.440   2.928  1.00  0.00    -0.270 OA
HETATM   16  H   UNL     1      40.875 -16.914   4.945  1.00  0.00     0.165 HD
ENDROOT
BRANCH   1  17
HETATM   17  C   UNL     1      41.663 -12.753   3.393  1.00  0.00     0.240 C 
BRANCH  17  18
HETATM   18  C   UNL     1      41.229 -12.417   1.970  1.00  0.00     0.240 C 
HETATM   19  N   UNL     1      42.185 -12.670   1.008  1.00  0.00    -0.323 N 
HETATM   20  H   UNL     1      42.955 -13.280   1.286  1.00  0.00     0.169 HD
HETATM   21  O   UNL     1      40.145 -11.879   1.752  1.00  0.00    -0.271 OA
BRANCH  19  22
HETATM   22  C   UNL     1      42.234 -12.201  -0.330  1.00  0.00     0.068 A 
HETATM   23  C   UNL     1      42.801 -10.998  -0.781  1.00  0.00     0.092 A 
HETATM   24  C   UNL     1      42.860 -10.699  -2.148  1.00  0.00     0.045 A 
HETATM   25  C   UNL     1      42.347 -11.582  -3.101  1.00  0.00    -0.059 A 
HETATM   26  C   UNL     1      42.385 -11.225  -4.556  1.00  0.00     0.048 C 
HETATM   27  C   UNL     1      41.757 -12.769  -2.663  1.00  0.00     0.009 A 
HETATM   28  C   UNL     1      41.719 -13.080  -1.297  1.00  0.00     0.033 A 
BRANCH  23  29
HETATM   29  O   UNL     1      43.381 -10.050   0.012  1.00  0.00    -0.358 OA
HETATM   30  H   UNL     1      43.519  -9.243  -0.526  1.00  0.00     0.218 HD
ENDBRANCH  23  29
ENDBRANCH  19  22
ENDBRANCH  17  18
ENDBRANCH   1  17
TORSDOF 4
ENDMDL
MODEL 6
REMARK VINA RESULT:      -8.6      1.110      1.485
REMARK  4 active torsions:
REMARK  status: ('A' for Active; 'I' for Inactive)
REMARK    1  A    between atoms: C_4  and  O_5 
REMARK    2  A    between atoms: C_6  and  N_7 
REMARK       I    between atoms: N_7  and  C_8 
REMARK    3  A    between atoms: C_8  and  C_9 
REMARK    4  A    between atoms: C_9  and  N_10 
ROOT
HETATM    1  N   UNL     1      41.895 -14.360   4.073  1.00  0.00    -0.259 N 
HETATM    2  C   UNL     1      41.037 -15.051   4.872  1.00  0.00     0.326 C 
HETATM    3  O   UNL     1      39.910 -14.730   5.206  1.00  0.00    -0.247 OA
HETATM    4  N   UNL     1      41.664 -16.199   5.298  1.00  0.00    -0.320 N 
HETATM    5  C   UNL     1      43.054 -16.206   4.935  1.00  0.00     0.144 C 
HETATM    6  C   UNL     1      43.535 -17.539   4.458  1.00  0.00    -0.014 A 
HETATM    7  C   UNL     1      44.313 -18.154   5.453  1.00  0.00    -0.049 A 
HETATM    8  C   UNL     1      44.843 -19.419   5.273  1.00  0.00     0.007 A 
HETATM    9  C   UNL     1      44.590 -20.077   4.069  1.00  0.00     0.001 A 
HETATM   10  C   UNL     1      43.807 -19.471   3.076  1.00  0.00     0.001 A 
HETATM   11  C   UNL     1      43.268 -18.195   3.268  1.00  0.00     0.011 A 
HETATM   12  C   UNL     1      44.409 -17.299   6.678  1.00  0.00     0.042 C 
HETATM   13  C   UNL     1      43.978 -15.928   6.138  1.00  0.00     0.051 C 
HETATM   14  C   UNL     1      43.085 -15.027   3.961  1.00  0.00     0.261 C 
HETATM   15  O   UNL     1      44.011 -14.674   3.240  1.00  0.00    -0.270 OA
HETATM   16  H   UNL     1      41.218 -16.838   5.943  1.00  0.00     0.165 HD
ENDROOT
BRANCH   1  17
HETATM   17  C   UNL     1      41.644 -13.032   3.561  1.00  0.00     0.240 C 
BRANCH  17  18
HETATM   18  C   UNL     1      41.517 -12.957   2.043  1.00  0.00     0.240 C 
HETATM   19  N   UNL     1      40.571 -13.809   1.509  1.00  0.00    -0.323 N 
HETATM   20  H   UNL     1      39.888 -14.192   2.163  1.00  0.00     0.169 HD
HETATM   21  O   UNL     1      42.278 -12.256   1.380  1.00  0.00    -0.271 OA
BRANCH  19  22
HETATM   22  C   UNL     1      40.414 -14.214   0.158  1.00  0.00     0.068 A 
HETATM   23  C   UNL     1      41.200 -15.146  -0.539  1.00  0.00     0.092 A 
HETATM   24  C   UNL     1      40.877 -15.521  -1.848  1.00  0.00     0.045 A 
HETATM   25  C   UNL     1      39.773 -14.972  -2.504  1.00  0.00    -0.059 A 
HETATM   26  C   UNL     1      39.467 -15.359  -3.920  1.00  0.00     0.048 C 
HETATM   27  C   UNL     1      38.999 -14.025  -1.831  1.00  0.00     0.009 A 
HETATM   28  C   UNL     1      39.307 -13.667  -0.512  1.00  0.00     0.033 A 
BRANCH  23  29
HETATM   29  O   UNL     1      42.284 -15.804  -0.032  1.00  0.00    -0.358 OA
HETATM   30  H   UNL     1      42.998 -15.149   0.115  1.00  0.00     0.218 HD
ENDBRANCH  23  29
ENDBRANCH  19  22
ENDBRANCH  17  18
ENDBRANCH   1  17
TORSDOF 4
ENDMDL
MODEL 7
REMARK VINA RESULT:      -8.5      1.435      6.689
REMARK  4 active torsions:
REMARK  status: ('A' for Active; 'I' for Inactive)
REMARK    1  A    between atoms: C_4  and  O_5 
REMARK    2  A    between atoms: C_6  and  N_7 
REMARK       I    between atoms: N_7  and  C_8 
REMARK    3  A    between atoms: C_8  and  C_9 
REMARK    4  A    between atoms: C_9  and  N_10 
ROOT
HETATM    1  N   UNL     1      40.669 -14.784   3.208  1.00  0.00    -0.259 N 
HETATM    2  C   UNL     1      41.204 -13.584   2.850  1.00  0.00     0.326 C 
HETATM    3  O   UNL     1      41.872 -12.833   3.539  1.00  0.00    -0.247 OA
HETATM    4  N   UNL     1      40.837 -13.311   1.553  1.00  0.00    -0.320 N 
HETATM    5  C   UNL     1      39.870 -14.257   1.068  1.00  0.00     0.144 C 
HETATM    6  C   UNL     1      40.113 -14.680  -0.345  1.00  0.00    -0.014 A 
HETATM    7  C   UNL     1      39.186 -14.061  -1.199  1.00  0.00    -0.049 A 
HETATM    8  C   UNL     1      39.225 -14.256  -2.568  1.00  0.00     0.007 A 
HETATM    9  C   UNL     1      40.212 -15.094  -3.088  1.00  0.00     0.001 A 
HETATM   10  C   UNL     1      41.145 -15.709  -2.241  1.00  0.00     0.001 A 
HETATM   11  C   UNL     1      41.105 -15.499  -0.859  1.00  0.00     0.011 A 
HETATM   12  C   UNL     1      38.257 -13.165  -0.440  1.00  0.00     0.042 C 
HETATM   13  C   UNL     1      38.448 -13.663   1.000  1.00  0.00     0.051 C 
HETATM   14  C   UNL     1      39.949 -15.314   2.171  1.00  0.00     0.261 C 
HETATM   15  O   UNL     1      39.425 -16.421   2.188  1.00  0.00    -0.270 OA
HETATM   16  H   UNL     1      41.090 -12.441   1.103  1.00  0.00     0.165 HD
ENDROOT
BRANCH   1  17
HETATM   17  C   UNL     1      40.713 -15.331   4.545  1.00  0.00     0.240 C 
BRANCH  17  18
HETATM   18  C   UNL     1      41.565 -16.588   4.681  1.00  0.00     0.240 C 
HETATM   19  N   UNL     1      42.350 -16.865   3.581  1.00  0.00    -0.323 N 
HETATM   20  H   UNL     1      42.488 -16.099   2.920  1.00  0.00     0.169 HD
HETATM   21  O   UNL     1      41.462 -17.317   5.666  1.00  0.00    -0.271 OA
BRANCH  19  22
HETATM   22  C   UNL     1      43.006 -18.079   3.249  1.00  0.00     0.068 A 
HETATM   23  C   UNL     1      43.989 -18.739   4.003  1.00  0.00     0.092 A 
HETATM   24  C   UNL     1      44.491 -19.982   3.599  1.00  0.00     0.045 A 
HETATM   25  C   UNL     1      44.036 -20.597   2.430  1.00  0.00    -0.059 A 
HETATM   26  C   UNL     1      44.614 -21.910   1.995  1.00  0.00     0.048 C 
HETATM   27  C   UNL     1      43.078 -19.938   1.658  1.00  0.00     0.009 A 
HETATM   28  C   UNL     1      42.559 -18.705   2.074  1.00  0.00     0.033 A 
BRANCH  23  29
HETATM   29  O   UNL     1      44.509 -18.297   5.186  1.00  0.00    -0.358 OA
HETATM   30  H   UNL     1      45.486 -18.288   5.107  1.00  0.00     0.218 HD
ENDBRANCH  23  29
ENDBRANCH  19  22
ENDBRANCH  17  18
ENDBRANCH   1  17
TORSDOF 4
ENDMDL
MODEL 8
REMARK VINA RESULT:      -8.4      2.303      3.282
REMARK  4 active torsions:
REMARK  status: ('A' for Active; 'I' for Inactive)
REMARK    1  A    between atoms: C_4  and  O_5 
REMARK    2  A    between atoms: C_6  and  N_7 
REMARK       I    between atoms: N_7  and  C_8 
REMARK    3  A    between atoms: C_8  and  C_9 
REMARK    4  A    between atoms: C_9  and  N_10 
ROOT
HETATM    1  N   UNL     1      41.529 -14.812   2.905  1.00  0.00    -0.259 N 
HETATM    2  C   UNL     1      42.831 -14.426   2.792  1.00  0.00     0.326 C 
HETATM    3  O   UNL     1      43.266 -13.290   2.726  1.00  0.00    -0.247 OA
HETATM    4  N   UNL     1      43.616 -15.553   2.725  1.00  0.00    -0.320 N 
HETATM    5  C   UNL     1      42.821 -16.743   2.599  1.00  0.00     0.144 C 
HETATM    6  C   UNL     1      43.328 -17.884   3.422  1.00  0.00    -0.014 A 
HETATM    7  C   UNL     1      43.961 -18.828   2.598  1.00  0.00    -0.049 A 
HETATM    8  C   UNL     1      44.555 -19.961   3.124  1.00  0.00     0.007 A 
HETATM    9  C   UNL     1      44.507 -20.152   4.506  1.00  0.00     0.001 A 
HETATM   10  C   UNL     1      43.883 -19.208   5.334  1.00  0.00     0.001 A 
HETATM   11  C   UNL     1      43.293 -18.060   4.795  1.00  0.00     0.011 A 
HETATM   12  C   UNL     1      43.946 -18.399   1.163  1.00  0.00     0.042 C 
HETATM   13  C   UNL     1      42.851 -17.323   1.170  1.00  0.00     0.051 C 
HETATM   14  C   UNL     1      41.435 -16.177   2.911  1.00  0.00     0.261 C 
HETATM   15  O   UNL     1      40.391 -16.797   3.080  1.00  0.00    -0.270 OA
HETATM   16  H   UNL     1      44.617 -15.493   2.591  1.00  0.00     0.165 HD
ENDROOT
BRANCH   1  17
HETATM   17  C   UNL     1      40.402 -13.908   2.849  1.00  0.00     0.240 C 
BRANCH  17  18
HETATM   18  C   UNL     1      40.438 -12.932   1.678  1.00  0.00     0.240 C 
HETATM   19  N   UNL     1      40.877 -13.483   0.491  1.00  0.00    -0.323 N 
HETATM   20  H   UNL     1      40.879 -14.502   0.440  1.00  0.00     0.169 HD
HETATM   21  O   UNL     1      40.181 -11.740   1.841  1.00  0.00    -0.271 OA
BRANCH  19  22
HETATM   22  C   UNL     1      41.319 -12.815  -0.680  1.00  0.00     0.068 A 
HETATM   23  C   UNL     1      42.296 -11.810  -0.760  1.00  0.00     0.092 A 
HETATM   24  C   UNL     1      42.700 -11.297  -1.998  1.00  0.00     0.045 A 
HETATM   25  C   UNL     1      42.137 -11.761  -3.189  1.00  0.00    -0.059 A 
HETATM   26  C   UNL     1      42.557 -11.172  -4.502  1.00  0.00     0.048 C 
HETATM   27  C   UNL     1      41.146 -12.742  -3.121  1.00  0.00     0.009 A 
HETATM   28  C   UNL     1      40.757 -13.272  -1.884  1.00  0.00     0.033 A 
BRANCH  23  29
HETATM   29  O   UNL     1      42.972 -11.277   0.300  1.00  0.00    -0.358 OA
HETATM   30  H   UNL     1      42.786 -10.316   0.331  1.00  0.00     0.218 HD
ENDBRANCH  23  29
ENDBRANCH  19  22
ENDBRANCH  17  18
ENDBRANCH   1  17
TORSDOF 4
ENDMDL
MODEL 9
REMARK VINA RESULT:      -8.4      3.494      6.005
REMARK  4 active torsions:
REMARK  status: ('A' for Active; 'I' for Inactive)
REMARK    1  A    between atoms: C_4  and  O_5 
REMARK    2  A    between atoms: C_6  and  N_7 
REMARK       I    between atoms: N_7  and  C_8 
REMARK    3  A    between atoms: C_8  and  C_9 
REMARK    4  A    between atoms: C_9  and  N_10 
ROOT
HETATM    1  N   UNL     1      41.759 -15.415   4.678  1.00  0.00    -0.259 N 
HETATM    2  C   UNL     1      41.139 -16.321   5.484  1.00  0.00     0.326 C 
HETATM    3  O   UNL     1      40.131 -16.156   6.149  1.00  0.00    -0.247 OA
HETATM    4  N   UNL     1      41.864 -17.489   5.468  1.00  0.00    -0.320 N 
HETATM    5  C   UNL     1      43.116 -17.324   4.783  1.00  0.00     0.144 C 
HETATM    6  C   UNL     1      43.472 -18.484   3.910  1.00  0.00    -0.014 A 
HETATM    7  C   UNL     1      44.482 -19.249   4.514  1.00  0.00    -0.049 A 
HETATM    8  C   UNL     1      44.960 -20.406   3.925  1.00  0.00     0.007 A 
HETATM    9  C   UNL     1      44.415 -20.799   2.702  1.00  0.00     0.001 A 
HETATM   10  C   UNL     1      43.400 -20.043   2.098  1.00  0.00     0.001 A 
HETATM   11  C   UNL     1      42.916 -18.880   2.704  1.00  0.00     0.011 A 
HETATM   12  C   UNL     1      44.879 -18.680   5.841  1.00  0.00     0.042 C 
HETATM   13  C   UNL     1      44.313 -17.255   5.752  1.00  0.00     0.051 C 
HETATM   14  C   UNL     1      42.888 -15.960   4.128  1.00  0.00     0.261 C 
HETATM   15  O   UNL     1      43.596 -15.396   3.302  1.00  0.00    -0.270 OA
HETATM   16  H   UNL     1      41.603 -18.283   6.039  1.00  0.00     0.165 HD
ENDROOT
BRANCH   1  17
HETATM   17  C   UNL     1      41.374 -14.026   4.563  1.00  0.00     0.240 C 
BRANCH  17  18
HETATM   18  C   UNL     1      41.640 -13.196   5.814  1.00  0.00     0.240 C 
HETATM   19  N   UNL     1      40.547 -12.488   6.270  1.00  0.00    -0.323 N 
HETATM   20  H   UNL     1      39.637 -12.779   5.909  1.00  0.00     0.169 HD
HETATM   21  O   UNL     1      42.771 -13.116   6.290  1.00  0.00    -0.271 OA
BRANCH  19  22
HETATM   22  C   UNL     1      40.518 -11.407   7.189  1.00  0.00     0.068 A 
HETATM   23  C   UNL     1      39.814 -11.352   8.403  1.00  0.00     0.092 A 
HETATM   24  C   UNL     1      39.946 -10.253   9.260  1.00  0.00     0.045 A 
HETATM   25  C   UNL     1      40.770  -9.175   8.929  1.00  0.00    -0.059 A 
HETATM   26  C   UNL     1      40.867  -7.991   9.843  1.00  0.00     0.048 C 
HETATM   27  C   UNL     1      41.454  -9.206   7.712  1.00  0.00     0.009 A 
HETATM   28  C   UNL     1      41.341 -10.316   6.864  1.00  0.00     0.033 A 
BRANCH  23  29
HETATM   29  O   UNL     1      39.003 -12.335   8.893  1.00  0.00    -0.358 OA
HETATM   30  H   UNL     1      39.568 -13.025   9.298  1.00  0.00     0.218 HD
ENDBRANCH  23  29
ENDBRANCH  19  22
ENDBRANCH  17  18
ENDBRANCH   1  17
TORSDOF 4
ENDMDL
MODEL 10
REMARK VINA RESULT:      -8.3      2.078      6.778
REMARK  4 active torsions:
REMARK  status: ('A' for Active; 'I' for Inactive)
REMARK    1  A    between atoms: C_4  and  O_5 
REMARK    2  A    between atoms: C_6  and  N_7 
REMARK       I    between atoms: N_7  and  C_8 
REMARK    3  A    between atoms: C_8  and  C_9 
REMARK    4  A    between atoms: C_9  and  N_10 
ROOT
HETATM    1  N   UNL     1      41.711 -14.521   3.714  1.00  0.00    -0.259 N 
HETATM    2  C   UNL     1      40.399 -14.304   3.421  1.00  0.00     0.326 C 
HETATM    3  O   UNL     1      39.441 -14.423   4.165  1.00  0.00    -0.247 OA
HETATM    4  N   UNL     1      40.300 -13.950   2.095  1.00  0.00    -0.320 N 
HETATM    5  C   UNL     1      41.554 -14.110   1.412  1.00  0.00     0.144 C 
HETATM    6  C   UNL     1      41.855 -12.999   0.458  1.00  0.00    -0.014 A 
HETATM    7  C   UNL     1      41.658 -13.432  -0.863  1.00  0.00    -0.049 A 
HETATM    8  C   UNL     1      41.829 -12.575  -1.935  1.00  0.00     0.007 A 
HETATM    9  C   UNL     1      42.210 -11.259  -1.675  1.00  0.00     0.001 A 
HETATM   10  C   UNL     1      42.401 -10.818  -0.357  1.00  0.00     0.001 A 
HETATM   11  C   UNL     1      42.217 -11.688   0.722  1.00  0.00     0.011 A 
HETATM   12  C   UNL     1      41.199 -14.857  -0.908  1.00  0.00     0.042 C 
HETATM   13  C   UNL     1      41.572 -15.351   0.496  1.00  0.00     0.051 C 
HETATM   14  C   UNL     1      42.488 -14.321   2.606  1.00  0.00     0.261 C 
HETATM   15  O   UNL     1      43.712 -14.369   2.601  1.00  0.00    -0.270 OA
HETATM   16  H   UNL     1      39.404 -13.789   1.656  1.00  0.00     0.165 HD
ENDROOT
BRANCH   1  17
HETATM   17  C   UNL     1      42.188 -15.056   4.970  1.00  0.00     0.240 C 
BRANCH  17  18
HETATM   18  C   UNL     1      42.430 -16.561   4.960  1.00  0.00     0.240 C 
HETATM   19  N   UNL     1      43.517 -16.957   4.207  1.00  0.00    -0.323 N 
HETATM   20  H   UNL     1      44.187 -16.227   3.961  1.00  0.00     0.169 HD
HETATM   21  O   UNL     1      41.645 -17.331   5.509  1.00  0.00    -0.271 OA
BRANCH  19  22
HETATM   22  C   UNL     1      43.837 -18.258   3.737  1.00  0.00     0.068 A 
HETATM   23  C   UNL     1      44.466 -19.284   4.459  1.00  0.00     0.092 A 
HETATM   24  C   UNL     1      44.641 -20.555   3.898  1.00  0.00     0.045 A 
HETATM   25  C   UNL     1      44.207 -20.835   2.600  1.00  0.00    -0.059 A 
HETATM   26  C   UNL     1      44.439 -22.191   2.004  1.00  0.00     0.048 C 
HETATM   27  C   UNL     1      43.604 -19.815   1.863  1.00  0.00     0.009 A 
HETATM   28  C   UNL     1      43.407 -18.550   2.432  1.00  0.00     0.033 A 
BRANCH  23  29
HETATM   29  O   UNL     1      44.910 -19.189   5.747  1.00  0.00    -0.358 OA
HETATM   30  H   UNL     1      44.938 -18.240   5.991  1.00  0.00     0.218 HD
ENDBRANCH  23  29
ENDBRANCH  19  22
ENDBRANCH  17  18
ENDBRANCH   1  17
TORSDOF 4
ENDMDL
