MODEL 1
REMARK VINA RESULT:      -7.7      0.000      0.000
REMARK  5 active torsions:
REMARK  status: ('A' for Active; 'I' for Inactive)
REMARK    1  A    between atoms: C_3  and  N_4 
REMARK       I    between atoms: N_4  and  C_5 
REMARK       I    between atoms: C_5  and  N_6 
REMARK    2  A    between atoms: N_6  and  C_7 
REMARK    3  A    between atoms: C_7  and  C_8 
REMARK    4  A    between atoms: C_8  and  C_9 
REMARK    5  A    between atoms: N_15  and  C_16 
ROOT
HETATM    1  C   UNL     1      41.625 -16.980   0.427  1.00  0.00     0.054 C 
HETATM    2  C   UNL     1      42.503 -17.555   1.474  1.00  0.00     0.003 A 
HETATM    3  C   UNL     1      43.391 -16.893   2.354  1.00  0.00     0.159 A 
HETATM    4  N   UNL     1      43.985 -17.751   3.186  1.00  0.00    -0.149 NA
HETATM    5  N   UNL     1      43.533 -18.987   2.833  1.00  0.00    -0.241 N 
HETATM    6  C   UNL     1      42.592 -18.882   1.836  1.00  0.00     0.129 A 
ENDROOT
BRANCH   3   7
HETATM    7  N   UNL     1      43.611 -15.533   2.358  1.00  0.00    -0.291 N 
HETATM    8  C   UNL     1      43.677 -14.674   3.412  1.00  0.00     0.322 C 
HETATM    9  N   UNL     1      43.398 -15.179   4.644  1.00  0.00    -0.339 N 
HETATM   10  O   UNL     1      43.957 -13.494   3.213  1.00  0.00    -0.247 OA
HETATM   11  H   UNL     1      43.362 -16.196   4.682  1.00  0.00     0.164 HD
HETATM   12  H   UNL     1      43.775 -15.084   1.470  1.00  0.00     0.172 HD
BRANCH   9  13
HETATM   13  C   UNL     1      43.579 -14.419   5.869  1.00  0.00     0.082 C 
HETATM   14  C   UNL     1      42.325 -13.603   6.173  1.00  0.00     0.032 C 
BRANCH  13  15
HETATM   15  C   UNL     1      44.003 -15.321   7.046  1.00  0.00     0.029 C 
BRANCH  15  16
HETATM   16  C   UNL     1      43.700 -16.781   6.837  1.00  0.00    -0.013 A 
HETATM   17  C   UNL     1      43.660 -17.705   8.027  1.00  0.00     0.005 A 
HETATM   18  C   UNL     1      42.390 -17.368   7.298  1.00  0.00     0.005 A 
ENDBRANCH  15  16
ENDBRANCH  13  15
ENDBRANCH   9  13
ENDBRANCH   3   7
BRANCH   5  19
HETATM   19  C   UNL     1      44.011 -20.140   3.528  1.00  0.00     0.079 A 
HETATM   20  C   UNL     1      44.253 -21.391   2.939  1.00  0.00     0.062 A 
HETATM   21 CL   UNL     1      44.199 -21.735   1.245  1.00  0.00    -0.082 Cl
HETATM   22  C   UNL     1      44.678 -22.469   3.736  1.00  0.00     0.026 A 
HETATM   23  C   UNL     1      44.883 -22.314   5.106  1.00  0.00     0.002 A 
HETATM   24  C   UNL     1      44.679 -21.074   5.694  1.00  0.00     0.002 A 
HETATM   25  C   UNL     1      44.252 -19.996   4.915  1.00  0.00     0.033 A 
ENDBRANCH   5  19
TORSDOF 5
ENDMDL
MODEL 2
REMARK VINA RESULT:      -7.5      2.513      4.613
REMARK  5 active torsions:
REMARK  status: ('A' for Active; 'I' for Inactive)
REMARK    1  A    between atoms: C_3  and  N_4 
REMARK       I    between atoms: N_4  and  C_5 
REMARK       I    between atoms: C_5  and  N_6 
REMARK    2  A    between atoms: N_6  and  C_7 
REMARK    3  A    between atoms: C_7  and  C_8 
REMARK    4  A    between atoms: C_8  and  C_9 
REMARK    5  A    between atoms: N_15  and  C_16 
ROOT
HETATM    1  C   UNL     1      44.344 -14.745   7.375  1.00  0.00     0.054 C 
HETATM    2  C   UNL     1      43.857 -15.981   6.718  1.00  0.00     0.003 A 
HETATM    3  C   UNL     1      42.553 -16.296   6.268  1.00  0.00     0.159 A 
HETATM    4  N   UNL     1      42.511 -17.499   5.691  1.00  0.00    -0.149 NA
HETATM    5  N   UNL     1      43.772 -18.005   5.794  1.00  0.00    -0.241 N 
HETATM    6  C   UNL     1      44.613 -17.078   6.362  1.00  0.00     0.129 A 
ENDROOT
BRANCH   3   7
HETATM    7  N   UNL     1      41.462 -15.466   6.406  1.00  0.00    -0.291 N 
HETATM    8  C   UNL     1      40.645 -14.952   5.444  1.00  0.00     0.322 C 
HETATM    9  N   UNL     1      40.979 -15.197   4.149  1.00  0.00    -0.339 N 
HETATM   10  O   UNL     1      39.671 -14.280   5.776  1.00  0.00    -0.247 OA
HETATM   11  H   UNL     1      41.696 -15.909   4.028  1.00  0.00     0.164 HD
HETATM   12  H   UNL     1      41.189 -15.202   7.340  1.00  0.00     0.172 HD
BRANCH   9  13
HETATM   13  C   UNL     1      40.120 -14.844   3.031  1.00  0.00     0.082 C 
HETATM   14  C   UNL     1      40.472 -13.452   2.515  1.00  0.00     0.032 C 
BRANCH  13  15
HETATM   15  C   UNL     1      40.150 -15.916   1.923  1.00  0.00     0.029 C 
BRANCH  15  16
HETATM   16  C   UNL     1      41.225 -16.954   2.107  1.00  0.00    -0.013 A 
HETATM   17  C   UNL     1      41.318 -18.102   1.135  1.00  0.00     0.005 A 
HETATM   18  C   UNL     1      42.381 -17.041   1.143  1.00  0.00     0.005 A 
ENDBRANCH  15  16
ENDBRANCH  13  15
ENDBRANCH   9  13
ENDBRANCH   3   7
BRANCH   5  19
HETATM   19  C   UNL     1      44.053 -19.311   5.285  1.00  0.00     0.079 A 
HETATM   20  C   UNL     1      44.121 -20.478   6.062  1.00  0.00     0.062 A 
HETATM   21 CL   UNL     1      43.704 -20.602   7.736  1.00  0.00    -0.082 Cl
HETATM   22  C   UNL     1      44.454 -21.703   5.456  1.00  0.00     0.026 A 
HETATM   23  C   UNL     1      44.702 -21.785   4.086  1.00  0.00     0.002 A 
HETATM   24  C   UNL     1      44.605 -20.644   3.303  1.00  0.00     0.002 A 
HETATM   25  C   UNL     1      44.280 -19.420   3.894  1.00  0.00     0.033 A 
ENDBRANCH   5  19
TORSDOF 5
ENDMDL
MODEL 3
REMARK VINA RESULT:      -7.5      1.986      4.175
REMARK  5 active torsions:
REMARK  status: ('A' for Active; 'I' for Inactive)
REMARK    1  A    between atoms: C_3  and  N_4 
REMARK       I    between atoms: N_4  and  C_5 
REMARK       I    between atoms: C_5  and  N_6 
REMARK    2  A    between atoms: N_6  and  C_7 
REMARK    3  A    between atoms: C_7  and  C_8 
REMARK    4  A    between atoms: C_8  and  C_9 
REMARK    5  A    between atoms: N_15  and  C_16 
ROOT
HETATM    1  C   UNL     1      44.182 -18.532   8.816  1.00  0.00     0.054 C 
HETATM    2  C   UNL     1      44.235 -18.621   7.337  1.00  0.00     0.003 A 
HETATM    3  C   UNL     1      44.415 -17.588   6.388  1.00  0.00     0.159 A 
HETATM    4  N   UNL     1      44.444 -18.066   5.142  1.00  0.00    -0.149 NA
HETATM    5  N   UNL     1      44.237 -19.408   5.254  1.00  0.00    -0.241 N 
HETATM    6  C   UNL     1      44.166 -19.770   6.578  1.00  0.00     0.129 A 
ENDROOT
BRANCH   3   7
HETATM    7  N   UNL     1      44.549 -16.254   6.708  1.00  0.00    -0.291 N 
HETATM    8  C   UNL     1      43.948 -15.169   6.145  1.00  0.00     0.322 C 
HETATM    9  N   UNL     1      43.172 -15.387   5.050  1.00  0.00    -0.339 N 
HETATM   10  O   UNL     1      44.145 -14.054   6.624  1.00  0.00    -0.247 OA
HETATM   11  H   UNL     1      42.955 -16.366   4.877  1.00  0.00     0.164 HD
HETATM   12  H   UNL     1      45.152 -16.017   7.481  1.00  0.00     0.172 HD
BRANCH   9  13
HETATM   13  C   UNL     1      42.353 -14.351   4.444  1.00  0.00     0.082 C 
HETATM   14  C   UNL     1      43.127 -13.649   3.332  1.00  0.00     0.032 C 
BRANCH  13  15
HETATM   15  C   UNL     1      40.993 -14.901   3.968  1.00  0.00     0.029 C 
BRANCH  15  16
HETATM   16  C   UNL     1      40.989 -15.366   2.536  1.00  0.00    -0.013 A 
HETATM   17  C   UNL     1      41.467 -16.758   2.210  1.00  0.00     0.005 A 
HETATM   18  C   UNL     1      40.010 -16.416   2.072  1.00  0.00     0.005 A 
ENDBRANCH  15  16
ENDBRANCH  13  15
ENDBRANCH   9  13
ENDBRANCH   3   7
BRANCH   5  19
HETATM   19  C   UNL     1      44.185 -20.216   4.076  1.00  0.00     0.079 A 
HETATM   20  C   UNL     1      44.673 -21.529   3.979  1.00  0.00     0.062 A 
HETATM   21 CL   UNL     1      45.261 -22.486   5.294  1.00  0.00    -0.082 Cl
HETATM   22  C   UNL     1      44.609 -22.209   2.750  1.00  0.00     0.026 A 
HETATM   23  C   UNL     1      44.049 -21.609   1.623  1.00  0.00     0.002 A 
HETATM   24  C   UNL     1      43.533 -20.325   1.715  1.00  0.00     0.002 A 
HETATM   25  C   UNL     1      43.595 -19.635   2.929  1.00  0.00     0.033 A 
ENDBRANCH   5  19
TORSDOF 5
ENDMDL
MODEL 4
REMARK VINA RESULT:      -7.5      2.245      4.474
REMARK  5 active torsions:
REMARK  status: ('A' for Active; 'I' for Inactive)
REMARK    1  A    between atoms: C_3  and  N_4 
REMARK       I    between atoms: N_4  and  C_5 
REMARK       I    between atoms: C_5  and  N_6 
REMARK    2  A    between atoms: N_6  and  C_7 
REMARK    3  A    between atoms: C_7  and  C_8 
REMARK    4  A    between atoms: C_8  and  C_9 
REMARK    5  A    between atoms: N_15  and  C_16 
ROOT
HETATM    1  C   UNL     1      44.350 -14.757   7.321  1.00  0.00     0.054 C 
HETATM    2  C   UNL     1      43.878 -15.969   6.611  1.00  0.00     0.003 A 
HETATM    3  C   UNL     1      42.569 -16.303   6.191  1.00  0.00     0.159 A 
HETATM    4  N   UNL     1      42.544 -17.471   5.546  1.00  0.00    -0.149 NA
HETATM    5  N   UNL     1      43.823 -17.940   5.576  1.00  0.00    -0.241 N 
HETATM    6  C   UNL     1      44.654 -17.019   6.166  1.00  0.00     0.129 A 
ENDROOT
BRANCH   3   7
HETATM    7  N   UNL     1      41.458 -15.518   6.414  1.00  0.00    -0.291 N 
HETATM    8  C   UNL     1      40.631 -14.921   5.511  1.00  0.00     0.322 C 
HETATM    9  N   UNL     1      40.972 -15.014   4.198  1.00  0.00    -0.339 N 
HETATM   10  O   UNL     1      39.640 -14.313   5.911  1.00  0.00    -0.247 OA
HETATM   11  H   UNL     1      41.706 -15.691   4.003  1.00  0.00     0.164 HD
HETATM   12  H   UNL     1      41.178 -15.365   7.370  1.00  0.00     0.172 HD
BRANCH   9  13
HETATM   13  C   UNL     1      40.106 -14.560   3.123  1.00  0.00     0.082 C 
HETATM   14  C   UNL     1      40.660 -13.279   2.505  1.00  0.00     0.032 C 
BRANCH  13  15
HETATM   15  C   UNL     1      39.861 -15.668   2.078  1.00  0.00     0.029 C 
BRANCH  15  16
HETATM   16  C   UNL     1      41.081 -16.491   1.762  1.00  0.00    -0.013 A 
HETATM   17  C   UNL     1      40.920 -17.805   1.041  1.00  0.00     0.005 A 
HETATM   18  C   UNL     1      41.559 -16.641   0.339  1.00  0.00     0.005 A 
ENDBRANCH  15  16
ENDBRANCH  13  15
ENDBRANCH   9  13
ENDBRANCH   3   7
BRANCH   5  19
HETATM   19  C   UNL     1      44.126 -19.205   4.983  1.00  0.00     0.079 A 
HETATM   20  C   UNL     1      44.227 -19.442   3.603  1.00  0.00     0.062 A 
HETATM   21 CL   UNL     1      44.189 -18.234   2.367  1.00  0.00    -0.082 Cl
HETATM   22  C   UNL     1      44.483 -20.743   3.135  1.00  0.00     0.026 A 
HETATM   23  C   UNL     1      44.659 -21.806   4.021  1.00  0.00     0.002 A 
HETATM   24  C   UNL     1      44.594 -21.577   5.387  1.00  0.00     0.002 A 
HETATM   25  C   UNL     1      44.335 -20.290   5.866  1.00  0.00     0.033 A 
ENDBRANCH   5  19
TORSDOF 5
ENDMDL
MODEL 5
REMARK VINA RESULT:      -7.4      2.784      5.014
REMARK  5 active torsions:
REMARK  status: ('A' for Active; 'I' for Inactive)
REMARK    1  A    between atoms: C_3  and  N_4 
REMARK       I    between atoms: N_4  and  C_5 
REMARK       I    between atoms: C_5  and  N_6 
REMARK    2  A    between atoms: N_6  and  C_7 
REMARK    3  A    between atoms: C_7  and  C_8 
REMARK    4  A    between atoms: C_8  and  C_9 
REMARK    5  A    between atoms: N_15  and  C_16 
ROOT
HETATM    1  C   UNL     1      40.611 -15.127   5.103  1.00  0.00     0.054 C 
HETATM    2  C   UNL     1      41.614 -15.935   4.369  1.00  0.00     0.003 A 
HETATM    3  C   UNL     1      42.572 -15.516   3.416  1.00  0.00     0.159 A 
HETATM    4  N   UNL     1      43.327 -16.535   3.001  1.00  0.00    -0.149 NA
HETATM    5  N   UNL     1      42.846 -17.639   3.637  1.00  0.00    -0.241 N 
HETATM    6  C   UNL     1      41.846 -17.287   4.512  1.00  0.00     0.129 A 
ENDROOT
BRANCH   3   7
HETATM    7  N   UNL     1      42.712 -14.218   2.976  1.00  0.00    -0.291 N 
HETATM    8  C   UNL     1      42.323 -13.663   1.794  1.00  0.00     0.322 C 
HETATM    9  N   UNL     1      41.803 -14.500   0.856  1.00  0.00    -0.339 N 
HETATM   10  O   UNL     1      42.475 -12.457   1.615  1.00  0.00    -0.247 OA
HETATM   11  H   UNL     1      41.571 -15.428   1.204  1.00  0.00     0.164 HD
HETATM   12  H   UNL     1      43.138 -13.554   3.604  1.00  0.00     0.172 HD
BRANCH   9  13
HETATM   13  C   UNL     1      41.208 -14.026  -0.383  1.00  0.00     0.082 C 
HETATM   14  C   UNL     1      41.024 -15.186  -1.356  1.00  0.00     0.032 C 
BRANCH  13  15
HETATM   15  C   UNL     1      39.902 -13.246  -0.130  1.00  0.00     0.029 C 
BRANCH  15  16
HETATM   16  C   UNL     1      38.693 -14.123   0.060  1.00  0.00    -0.013 A 
HETATM   17  C   UNL     1      38.335 -14.598   1.445  1.00  0.00     0.005 A 
HETATM   18  C   UNL     1      37.461 -13.593   0.749  1.00  0.00     0.005 A 
ENDBRANCH  15  16
ENDBRANCH  13  15
ENDBRANCH   9  13
ENDBRANCH   3   7
BRANCH   5  19
HETATM   19  C   UNL     1      43.434 -18.916   3.380  1.00  0.00     0.079 A 
HETATM   20  C   UNL     1      44.374 -19.550   4.208  1.00  0.00     0.062 A 
HETATM   21 CL   UNL     1      44.865 -19.007   5.775  1.00  0.00    -0.082 Cl
HETATM   22  C   UNL     1      44.920 -20.788   3.826  1.00  0.00     0.026 A 
HETATM   23  C   UNL     1      44.530 -21.412   2.641  1.00  0.00     0.002 A 
HETATM   24  C   UNL     1      43.578 -20.811   1.832  1.00  0.00     0.002 A 
HETATM   25  C   UNL     1      43.031 -19.579   2.197  1.00  0.00     0.033 A 
ENDBRANCH   5  19
TORSDOF 5
ENDMDL
MODEL 6
REMARK VINA RESULT:      -7.2      3.084      6.055
REMARK  5 active torsions:
REMARK  status: ('A' for Active; 'I' for Inactive)
REMARK    1  A    between atoms: C_3  and  N_4 
REMARK       I    between atoms: N_4  and  C_5 
REMARK       I    between atoms: C_5  and  N_6 
REMARK    2  A    between atoms: N_6  and  C_7 
REMARK    3  A    between atoms: C_7  and  C_8 
REMARK    4  A    between atoms: C_8  and  C_9 
REMARK    5  A    between atoms: N_15  and  C_16 
ROOT
HETATM    1  C   UNL     1      43.040 -14.245   3.387  1.00  0.00     0.054 C 
HETATM    2  C   UNL     1      42.797 -15.681   3.110  1.00  0.00     0.003 A 
HETATM    3  C   UNL     1      41.647 -16.302   2.569  1.00  0.00     0.159 A 
HETATM    4  N   UNL     1      41.819 -17.618   2.435  1.00  0.00    -0.149 NA
HETATM    5  N   UNL     1      43.062 -17.884   2.926  1.00  0.00    -0.241 N 
HETATM    6  C   UNL     1      43.690 -16.716   3.287  1.00  0.00     0.129 A 
ENDROOT
BRANCH   3   7
HETATM    7  N   UNL     1      40.494 -15.632   2.220  1.00  0.00    -0.291 N 
HETATM    8  C   UNL     1      40.181 -15.011   1.050  1.00  0.00     0.322 C 
HETATM    9  N   UNL     1      41.154 -14.942   0.102  1.00  0.00    -0.339 N 
HETATM   10  O   UNL     1      39.061 -14.526   0.905  1.00  0.00    -0.247 OA
HETATM   11  H   UNL     1      41.960 -15.537   0.284  1.00  0.00     0.164 HD
HETATM   12  H   UNL     1      39.748 -15.601   2.898  1.00  0.00     0.172 HD
BRANCH   9  13
HETATM   13  C   UNL     1      40.914 -14.448  -1.243  1.00  0.00     0.082 C 
HETATM   14  C   UNL     1      42.056 -13.535  -1.682  1.00  0.00     0.032 C 
BRANCH  13  15
HETATM   15  C   UNL     1      40.653 -15.597  -2.238  1.00  0.00     0.029 C 
BRANCH  15  16
HETATM   16  C   UNL     1      39.922 -15.173  -3.484  1.00  0.00    -0.013 A 
HETATM   17  C   UNL     1      39.086 -16.181  -4.230  1.00  0.00     0.005 A 
HETATM   18  C   UNL     1      38.418 -15.056  -3.490  1.00  0.00     0.005 A 
ENDBRANCH  15  16
ENDBRANCH  13  15
ENDBRANCH   9  13
ENDBRANCH   3   7
BRANCH   5  19
HETATM   19  C   UNL     1      43.540 -19.230   2.948  1.00  0.00     0.079 A 
HETATM   20  C   UNL     1      44.324 -19.788   3.971  1.00  0.00     0.062 A 
HETATM   21 CL   UNL     1      44.709 -19.027   5.475  1.00  0.00    -0.082 Cl
HETATM   22  C   UNL     1      44.778 -21.114   3.859  1.00  0.00     0.026 A 
HETATM   23  C   UNL     1      44.447 -21.899   2.754  1.00  0.00     0.002 A 
HETATM   24  C   UNL     1      43.645 -21.369   1.754  1.00  0.00     0.002 A 
HETATM   25  C   UNL     1      43.192 -20.051   1.850  1.00  0.00     0.033 A 
ENDBRANCH   5  19
TORSDOF 5
ENDMDL
MODEL 7
REMARK VINA RESULT:      -7.1      3.003      6.596
REMARK  5 active torsions:
REMARK  status: ('A' for Active; 'I' for Inactive)
REMARK    1  A    between atoms: C_3  and  N_4 
REMARK       I    between atoms: N_4  and  C_5 
REMARK       I    between atoms: C_5  and  N_6 
REMARK    2  A    between atoms: N_6  and  C_7 
REMARK    3  A    between atoms: C_7  and  C_8 
REMARK    4  A    between atoms: C_8  and  C_9 
REMARK    5  A    between atoms: N_15  and  C_16 
ROOT
HETATM    1  C   UNL     1      45.073 -13.989   6.824  1.00  0.00     0.054 C 
HETATM    2  C   UNL     1      43.794 -14.433   6.222  1.00  0.00     0.003 A 
HETATM    3  C   UNL     1      42.973 -15.529   6.581  1.00  0.00     0.159 A 
HETATM    4  N   UNL     1      41.875 -15.586   5.825  1.00  0.00    -0.149 NA
HETATM    5  N   UNL     1      41.982 -14.561   4.934  1.00  0.00    -0.241 N 
HETATM    6  C   UNL     1      43.109 -13.818   5.195  1.00  0.00     0.129 A 
ENDROOT
BRANCH   3   7
HETATM    7  N   UNL     1      43.268 -16.423   7.587  1.00  0.00    -0.291 N 
HETATM    8  C   UNL     1      43.750 -17.693   7.496  1.00  0.00     0.322 C 
HETATM    9  N   UNL     1      43.883 -18.220   6.249  1.00  0.00    -0.339 N 
HETATM   10  O   UNL     1      44.018 -18.312   8.524  1.00  0.00    -0.247 OA
HETATM   11  H   UNL     1      43.797 -17.541   5.496  1.00  0.00     0.164 HD
HETATM   12  H   UNL     1      43.143 -16.114   8.539  1.00  0.00     0.172 HD
BRANCH   9  13
HETATM   13  C   UNL     1      44.525 -19.499   5.996  1.00  0.00     0.082 C 
HETATM   14  C   UNL     1      43.693 -20.633   6.589  1.00  0.00     0.032 C 
BRANCH  13  15
HETATM   15  C   UNL     1      44.827 -19.702   4.497  1.00  0.00     0.029 C 
BRANCH  15  16
HETATM   16  C   UNL     1      43.750 -19.184   3.581  1.00  0.00    -0.013 A 
HETATM   17  C   UNL     1      44.136 -18.584   2.253  1.00  0.00     0.005 A 
HETATM   18  C   UNL     1      43.422 -19.906   2.298  1.00  0.00     0.005 A 
ENDBRANCH  15  16
ENDBRANCH  13  15
ENDBRANCH   9  13
ENDBRANCH   3   7
BRANCH   5  19
HETATM   19  C   UNL     1      40.960 -14.366   3.954  1.00  0.00     0.079 A 
HETATM   20  C   UNL     1      40.503 -15.351   3.063  1.00  0.00     0.062 A 
HETATM   21 CL   UNL     1      40.945 -17.022   3.094  1.00  0.00    -0.082 Cl
HETATM   22  C   UNL     1      39.523 -15.027   2.107  1.00  0.00     0.026 A 
HETATM   23  C   UNL     1      38.980 -13.745   2.038  1.00  0.00     0.002 A 
HETATM   24  C   UNL     1      39.400 -12.774   2.934  1.00  0.00     0.002 A 
HETATM   25  C   UNL     1      40.376 -13.080   3.886  1.00  0.00     0.033 A 
ENDBRANCH   5  19
TORSDOF 5
ENDMDL
MODEL 8
REMARK VINA RESULT:      -7.0      3.574      6.442
REMARK  5 active torsions:
REMARK  status: ('A' for Active; 'I' for Inactive)
REMARK    1  A    between atoms: C_3  and  N_4 
REMARK       I    between atoms: N_4  and  C_5 
REMARK       I    between atoms: C_5  and  N_6 
REMARK    2  A    between atoms: N_6  and  C_7 
REMARK    3  A    between atoms: C_7  and  C_8 
REMARK    4  A    between atoms: C_8  and  C_9 
REMARK    5  A    between atoms: N_15  and  C_16 
ROOT
HETATM    1  C   UNL     1      39.682 -14.602   3.153  1.00  0.00     0.054 C 
HETATM    2  C   UNL     1      40.873 -15.425   2.832  1.00  0.00     0.003 A 
HETATM    3  C   UNL     1      41.984 -15.104   2.018  1.00  0.00     0.159 A 
HETATM    4  N   UNL     1      42.879 -16.093   1.999  1.00  0.00    -0.149 NA
HETATM    5  N   UNL     1      42.348 -17.091   2.760  1.00  0.00    -0.241 N 
HETATM    6  C   UNL     1      41.160 -16.683   3.318  1.00  0.00     0.129 A 
ENDROOT
BRANCH   3   7
HETATM    7  N   UNL     1      42.129 -13.916   1.334  1.00  0.00    -0.291 N 
HETATM    8  C   UNL     1      41.788 -13.616   0.050  1.00  0.00     0.322 C 
HETATM    9  N   UNL     1      41.323 -14.632  -0.724  1.00  0.00    -0.339 N 
HETATM   10  O   UNL     1      41.933 -12.466  -0.359  1.00  0.00    -0.247 OA
HETATM   11  H   UNL     1      41.086 -15.478  -0.208  1.00  0.00     0.164 HD
HETATM   12  H   UNL     1      42.516 -13.132   1.835  1.00  0.00     0.172 HD
BRANCH   9  13
HETATM   13  C   UNL     1      40.780 -14.427  -2.056  1.00  0.00     0.082 C 
HETATM   14  C   UNL     1      41.212 -15.560  -2.982  1.00  0.00     0.032 C 
BRANCH  13  15
HETATM   15  C   UNL     1      39.251 -14.229  -2.028  1.00  0.00     0.029 C 
BRANCH  15  16
HETATM   16  C   UNL     1      38.592 -14.368  -3.375  1.00  0.00    -0.013 A 
HETATM   17  C   UNL     1      37.289 -15.117  -3.487  1.00  0.00     0.005 A 
HETATM   18  C   UNL     1      37.314 -13.628  -3.685  1.00  0.00     0.005 A 
ENDBRANCH  15  16
ENDBRANCH  13  15
ENDBRANCH   9  13
ENDBRANCH   3   7
BRANCH   5  19
HETATM   19  C   UNL     1      43.063 -18.318   2.917  1.00  0.00     0.079 A 
HETATM   20  C   UNL     1      43.898 -18.629   4.002  1.00  0.00     0.062 A 
HETATM   21 CL   UNL     1      44.083 -17.679   5.436  1.00  0.00    -0.082 Cl
HETATM   22  C   UNL     1      44.590 -19.852   4.023  1.00  0.00     0.026 A 
HETATM   23  C   UNL     1      44.448 -20.779   2.991  1.00  0.00     0.002 A 
HETATM   24  C   UNL     1      43.600 -20.497   1.930  1.00  0.00     0.002 A 
HETATM   25  C   UNL     1      42.910 -19.283   1.894  1.00  0.00     0.033 A 
ENDBRANCH   5  19
TORSDOF 5
ENDMDL
MODEL 9
REMARK VINA RESULT:      -7.0      2.801      5.443
REMARK  5 active torsions:
REMARK  status: ('A' for Active; 'I' for Inactive)
REMARK    1  A    between atoms: C_3  and  N_4 
REMARK       I    between atoms: N_4  and  C_5 
REMARK       I    between atoms: C_5  and  N_6 
REMARK    2  A    between atoms: N_6  and  C_7 
REMARK    3  A    between atoms: C_7  and  C_8 
REMARK    4  A    between atoms: C_8  and  C_9 
REMARK    5  A    between atoms: N_15  and  C_16 
ROOT
HETATM    1  C   UNL     1      42.233 -13.905   5.182  1.00  0.00     0.054 C 
HETATM    2  C   UNL     1      42.251 -15.343   4.826  1.00  0.00     0.003 A 
HETATM    3  C   UNL     1      41.296 -16.094   4.100  1.00  0.00     0.159 A 
HETATM    4  N   UNL     1      41.682 -17.362   3.950  1.00  0.00    -0.149 NA
HETATM    5  N   UNL     1      42.868 -17.472   4.612  1.00  0.00    -0.241 N 
HETATM    6  C   UNL     1      43.256 -16.247   5.100  1.00  0.00     0.129 A 
ENDROOT
BRANCH   3   7
HETATM    7  N   UNL     1      40.117 -15.580   3.606  1.00  0.00    -0.291 N 
HETATM    8  C   UNL     1      39.888 -14.927   2.433  1.00  0.00     0.322 C 
HETATM    9  N   UNL     1      40.968 -14.643   1.658  1.00  0.00    -0.339 N 
HETATM   10  O   UNL     1      38.739 -14.606   2.136  1.00  0.00    -0.247 OA
HETATM   11  H   UNL     1      41.822 -15.123   1.935  1.00  0.00     0.164 HD
HETATM   12  H   UNL     1      39.283 -15.711   4.156  1.00  0.00     0.172 HD
BRANCH   9  13
HETATM   13  C   UNL     1      40.857 -14.092   0.317  1.00  0.00     0.082 C 
HETATM   14  C   UNL     1      41.765 -12.875   0.170  1.00  0.00     0.032 C 
BRANCH  13  15
HETATM   15  C   UNL     1      41.111 -15.161  -0.765  1.00  0.00     0.029 C 
BRANCH  15  16
HETATM   16  C   UNL     1      40.500 -14.835  -2.102  1.00  0.00    -0.013 A 
HETATM   17  C   UNL     1      41.383 -14.775  -3.323  1.00  0.00     0.005 A 
HETATM   18  C   UNL     1      40.388 -15.891  -3.173  1.00  0.00     0.005 A 
ENDBRANCH  15  16
ENDBRANCH  13  15
ENDBRANCH   9  13
ENDBRANCH   3   7
BRANCH   5  19
HETATM   19  C   UNL     1      43.537 -18.734   4.661  1.00  0.00     0.079 A 
HETATM   20  C   UNL     1      44.077 -19.402   3.550  1.00  0.00     0.062 A 
HETATM   21 CL   UNL     1      44.204 -18.757   1.950  1.00  0.00    -0.082 Cl
HETATM   22  C   UNL     1      44.670 -20.665   3.715  1.00  0.00     0.026 A 
HETATM   23  C   UNL     1      44.752 -21.265   4.971  1.00  0.00     0.002 A 
HETATM   24  C   UNL     1      44.252 -20.600   6.081  1.00  0.00     0.002 A 
HETATM   25  C   UNL     1      43.654 -19.346   5.931  1.00  0.00     0.033 A 
ENDBRANCH   5  19
TORSDOF 5
ENDMDL
MODEL 10
REMARK VINA RESULT:      -6.8      2.986      6.328
REMARK  5 active torsions:
REMARK  status: ('A' for Active; 'I' for Inactive)
REMARK    1  A    between atoms: C_3  and  N_4 
REMARK       I    between atoms: N_4  and  C_5 
REMARK       I    between atoms: C_5  and  N_6 
REMARK    2  A    between atoms: N_6  and  C_7 
REMARK    3  A    between atoms: C_7  and  C_8 
REMARK    4  A    between atoms: C_8  and  C_9 
REMARK    5  A    between atoms: N_15  and  C_16 
ROOT
HETATM    1  C   UNL     1      40.668 -16.320   6.494  1.00  0.00     0.054 C 
HETATM    2  C   UNL     1      41.349 -16.080   5.199  1.00  0.00     0.003 A 
HETATM    3  C   UNL     1      42.729 -16.140   4.893  1.00  0.00     0.159 A 
HETATM    4  N   UNL     1      42.955 -15.895   3.601  1.00  0.00    -0.149 NA
HETATM    5  N   UNL     1      41.737 -15.627   3.054  1.00  0.00    -0.241 N 
HETATM    6  C   UNL     1      40.747 -15.789   3.993  1.00  0.00     0.129 A 
ENDROOT
BRANCH   3   7
HETATM    7  N   UNL     1      43.716 -16.421   5.812  1.00  0.00    -0.291 N 
HETATM    8  C   UNL     1      44.374 -17.592   6.038  1.00  0.00     0.322 C 
HETATM    9  N   UNL     1      43.959 -18.683   5.341  1.00  0.00    -0.339 N 
HETATM   10  O   UNL     1      45.284 -17.623   6.864  1.00  0.00    -0.247 OA
HETATM   11  H   UNL     1      43.327 -18.473   4.570  1.00  0.00     0.164 HD
HETATM   12  H   UNL     1      44.037 -15.667   6.399  1.00  0.00     0.172 HD
BRANCH   9  13
HETATM   13  C   UNL     1      44.664 -19.953   5.367  1.00  0.00     0.082 C 
HETATM   14  C   UNL     1      44.008 -20.900   6.367  1.00  0.00     0.032 C 
BRANCH  13  15
HETATM   15  C   UNL     1      44.790 -20.568   3.958  1.00  0.00     0.029 C 
BRANCH  15  16
HETATM   16  C   UNL     1      43.660 -20.207   3.030  1.00  0.00    -0.013 A 
HETATM   17  C   UNL     1      43.964 -19.491   1.740  1.00  0.00     0.005 A 
HETATM   18  C   UNL     1      43.494 -20.918   1.710  1.00  0.00     0.005 A 
ENDBRANCH  15  16
ENDBRANCH  13  15
ENDBRANCH   9  13
ENDBRANCH   3   7
BRANCH   5  19
HETATM   19  C   UNL     1      41.642 -15.294   1.667  1.00  0.00     0.079 A 
HETATM   20  C   UNL     1      41.707 -13.992   1.147  1.00  0.00     0.062 A 
HETATM   21 CL   UNL     1      42.094 -12.565   2.045  1.00  0.00    -0.082 Cl
HETATM   22  C   UNL     1      41.553 -13.783  -0.235  1.00  0.00     0.026 A 
HETATM   23  C   UNL     1      41.354 -14.852  -1.108  1.00  0.00     0.002 A 
HETATM   24  C   UNL     1      41.321 -16.146  -0.609  1.00  0.00     0.002 A 
HETATM   25  C   UNL     1      41.468 -16.367   0.762  1.00  0.00     0.033 A 
ENDBRANCH   5  19
TORSDOF 5
ENDMDL
