MODEL 1
REMARK VINA RESULT:      -7.2      0.000      0.000
REMARK  7 active torsions:
REMARK  status: ('A' for Active; 'I' for Inactive)
REMARK    1  A    between atoms: O_2  and  C_3 
REMARK    2  A    between atoms: C_4  and  C_5 
REMARK    3  A    between atoms: C_6  and  C_7 
REMARK       I    between atoms: C_7  and  N_8 
REMARK    4  A    between atoms: N_8  and  C_9 
REMARK    5  A    between atoms: C_9  and  C_10 
REMARK    6  A    between atoms: C_10  and  N_11 
REMARK    7  A    between atoms: C_10  and  C_18 
ROOT
HETATM    1  C   UNL     1      41.789 -14.597   4.187  1.00  0.00     0.241 C 
HETATM    2  N   UNL     1      42.441 -14.569   5.388  1.00  0.00    -0.355 N 
HETATM    3  O   UNL     1      42.140 -13.930   3.220  1.00  0.00    -0.269 OA
HETATM    4  H   UNL     1      42.030 -15.109   6.148  1.00  0.00     0.162 HD
ENDROOT
BRANCH   2   5
HETATM    5  C   UNL     1      43.512 -13.631   5.709  1.00  0.00     0.163 C 
BRANCH   5   6
HETATM    6  C   UNL     1      44.515 -14.113   6.805  1.00  0.00     0.262 C 
BRANCH   6   7
HETATM    7  N   UNL     1      44.509 -13.196   8.035  1.00  0.00    -0.059 N 
HETATM    8  H   UNL     1      44.201 -13.812   8.814  1.00  0.00     0.280 HD
HETATM    9  C   UNL     1      45.860 -12.682   8.467  1.00  0.00     0.236 C 
HETATM   10  C   UNL     1      45.731 -12.002   9.823  1.00  0.00     0.028 C 
HETATM   11  C   UNL     1      44.693 -10.885   9.792  1.00  0.00     0.003 C 
HETATM   12  C   UNL     1      43.352 -11.393   9.274  1.00  0.00     0.028 C 
HETATM   13  C   UNL     1      43.490 -12.095   7.930  1.00  0.00     0.236 C 
ENDBRANCH   6   7
BRANCH   6  14
HETATM   14  C   UNL     1      44.299 -15.557   7.134  1.00  0.00     0.085 A 
HETATM   15  O   UNL     1      43.553 -15.830   8.244  1.00  0.00    -0.325 OA
HETATM   16  C   UNL     1      43.479 -17.180   8.355  1.00  0.00     0.142 A 
HETATM   17  C   UNL     1      44.169 -17.783   7.330  1.00  0.00     0.027 A 
HETATM   18  C   UNL     1      44.700 -16.735   6.537  1.00  0.00     0.037 A 
ENDBRANCH   6  14
ENDBRANCH   5   6
ENDBRANCH   2   5
BRANCH   1  19
HETATM   19  C   UNL     1      40.607 -15.476   4.145  1.00  0.00     0.075 C 
HETATM   20  C   UNL     1      40.625 -16.722   3.648  1.00  0.00     0.020 C 
BRANCH  20  21
HETATM   21  C   UNL     1      41.793 -17.366   3.029  1.00  0.00    -0.001 A 
HETATM   22  C   UNL     1      42.116 -17.163   1.674  1.00  0.00     0.078 A 
HETATM   23  C   UNL     1      43.240 -17.796   1.133  1.00  0.00     0.039 A 
HETATM   24  C   UNL     1      44.034 -18.627   1.931  1.00  0.00     0.022 A 
HETATM   25  C   UNL     1      43.702 -18.831   3.268  1.00  0.00     0.012 A 
HETATM   26  C   UNL     1      42.590 -18.202   3.822  1.00  0.00     0.033 A 
HETATM   27 BR   UNL     1      44.749 -19.988   4.332  1.00  0.00    -0.051 Br
BRANCH  22  28
HETATM   28  O   UNL     1      41.247 -16.388   0.948  1.00  0.00    -0.355 OA
HETATM   29  C   UNL     1      41.832 -15.394   0.110  1.00  0.00     0.210 C 
ENDBRANCH  22  28
ENDBRANCH  20  21
ENDBRANCH   1  19
TORSDOF 7
ENDMDL
MODEL 2
REMARK VINA RESULT:      -7.1      2.482      6.373
REMARK  7 active torsions:
REMARK  status: ('A' for Active; 'I' for Inactive)
REMARK    1  A    between atoms: O_2  and  C_3 
REMARK    2  A    between atoms: C_4  and  C_5 
REMARK    3  A    between atoms: C_6  and  C_7 
REMARK       I    between atoms: C_7  and  N_8 
REMARK    4  A    between atoms: N_8  and  C_9 
REMARK    5  A    between atoms: C_9  and  C_10 
REMARK    6  A    between atoms: C_10  and  N_11 
REMARK    7  A    between atoms: C_10  and  C_18 
ROOT
HETATM    1  C   UNL     1      43.786 -13.781   4.443  1.00  0.00     0.241 C 
HETATM    2  N   UNL     1      42.478 -13.782   4.049  1.00  0.00    -0.355 N 
HETATM    3  O   UNL     1      44.722 -13.705   3.655  1.00  0.00    -0.269 OA
HETATM    4  H   UNL     1      41.777 -13.916   4.777  1.00  0.00     0.162 HD
ENDROOT
BRANCH   2   5
HETATM    5  C   UNL     1      42.049 -13.863   2.657  1.00  0.00     0.163 C 
BRANCH   5   6
HETATM    6  C   UNL     1      41.219 -15.134   2.287  1.00  0.00     0.262 C 
BRANCH   6   7
HETATM    7  N   UNL     1      40.141 -14.833   1.238  1.00  0.00    -0.059 N 
HETATM    8  H   UNL     1      39.812 -15.770   0.932  1.00  0.00     0.280 HD
HETATM    9  C   UNL     1      38.903 -14.145   1.758  1.00  0.00     0.236 C 
HETATM   10  C   UNL     1      37.836 -14.137   0.672  1.00  0.00     0.028 C 
HETATM   11  C   UNL     1      38.344 -13.479  -0.607  1.00  0.00     0.003 C 
HETATM   12  C   UNL     1      39.642 -14.125  -1.081  1.00  0.00     0.028 C 
HETATM   13  C   UNL     1      40.697 -14.153   0.017  1.00  0.00     0.236 C 
ENDBRANCH   6   7
BRANCH   6  14
HETATM   14  C   UNL     1      42.114 -16.273   1.916  1.00  0.00     0.085 A 
HETATM   15  O   UNL     1      43.458 -16.068   2.050  1.00  0.00    -0.325 OA
HETATM   16  C   UNL     1      44.078 -17.213   1.668  1.00  0.00     0.142 A 
HETATM   17  C   UNL     1      43.152 -18.155   1.290  1.00  0.00     0.027 A 
HETATM   18  C   UNL     1      41.880 -17.551   1.451  1.00  0.00     0.037 A 
ENDBRANCH   6  14
ENDBRANCH   5   6
ENDBRANCH   2   5
BRANCH   1  19
HETATM   19  C   UNL     1      43.995 -13.904   5.897  1.00  0.00     0.075 C 
HETATM   20  C   UNL     1      43.723 -15.017   6.595  1.00  0.00     0.020 C 
BRANCH  20  21
HETATM   21  C   UNL     1      43.131 -16.241   6.035  1.00  0.00    -0.001 A 
HETATM   22  C   UNL     1      41.737 -16.394   5.905  1.00  0.00     0.078 A 
HETATM   23  C   UNL     1      41.224 -17.577   5.362  1.00  0.00     0.039 A 
HETATM   24  C   UNL     1      42.087 -18.600   4.955  1.00  0.00     0.022 A 
HETATM   25  C   UNL     1      43.464 -18.444   5.096  1.00  0.00     0.012 A 
HETATM   26  C   UNL     1      43.990 -17.270   5.628  1.00  0.00     0.033 A 
HETATM   27 BR   UNL     1      44.626 -19.843   4.587  1.00  0.00    -0.051 Br
BRANCH  22  28
HETATM   28  O   UNL     1      40.961 -15.372   6.391  1.00  0.00    -0.355 OA
HETATM   29  C   UNL     1      39.877 -14.951   5.567  1.00  0.00     0.210 C 
ENDBRANCH  22  28
ENDBRANCH  20  21
ENDBRANCH   1  19
TORSDOF 7
ENDMDL
MODEL 3
REMARK VINA RESULT:      -7.0      3.513      6.338
REMARK  7 active torsions:
REMARK  status: ('A' for Active; 'I' for Inactive)
REMARK    1  A    between atoms: O_2  and  C_3 
REMARK    2  A    between atoms: C_4  and  C_5 
REMARK    3  A    between atoms: C_6  and  C_7 
REMARK       I    between atoms: C_7  and  N_8 
REMARK    4  A    between atoms: N_8  and  C_9 
REMARK    5  A    between atoms: C_9  and  C_10 
REMARK    6  A    between atoms: C_10  and  N_11 
REMARK    7  A    between atoms: C_10  and  C_18 
ROOT
HETATM    1  C   UNL     1      42.936 -13.720   3.688  1.00  0.00     0.241 C 
HETATM    2  N   UNL     1      42.329 -14.940   3.589  1.00  0.00    -0.355 N 
HETATM    3  O   UNL     1      44.134 -13.553   3.493  1.00  0.00    -0.269 OA
HETATM    4  H   UNL     1      41.340 -14.984   3.835  1.00  0.00     0.162 HD
ENDROOT
BRANCH   2   5
HETATM    5  C   UNL     1      43.051 -16.195   3.408  1.00  0.00     0.163 C 
BRANCH   5   6
HETATM    6  C   UNL     1      42.596 -17.366   4.338  1.00  0.00     0.262 C 
BRANCH   6   7
HETATM    7  N   UNL     1      43.087 -18.728   3.831  1.00  0.00    -0.059 N 
HETATM    8  H   UNL     1      42.389 -19.406   4.198  1.00  0.00     0.280 HD
HETATM    9  C   UNL     1      43.049 -18.915   2.334  1.00  0.00     0.236 C 
HETATM   10  C   UNL     1      43.322 -20.376   2.001  1.00  0.00     0.028 C 
HETATM   11  C   UNL     1      44.649 -20.845   2.589  1.00  0.00     0.003 C 
HETATM   12  C   UNL     1      44.713 -20.575   4.088  1.00  0.00     0.028 C 
HETATM   13  C   UNL     1      44.415 -19.119   4.418  1.00  0.00     0.236 C 
ENDBRANCH   6   7
BRANCH   6  14
HETATM   14  C   UNL     1      42.956 -17.093   5.764  1.00  0.00     0.085 A 
HETATM   15  O   UNL     1      43.852 -16.087   5.990  1.00  0.00    -0.325 OA
HETATM   16  C   UNL     1      44.032 -16.005   7.332  1.00  0.00     0.142 A 
HETATM   17  C   UNL     1      43.264 -16.946   7.976  1.00  0.00     0.027 A 
HETATM   18  C   UNL     1      42.565 -17.649   6.964  1.00  0.00     0.037 A 
ENDBRANCH   6  14
ENDBRANCH   5   6
ENDBRANCH   2   5
BRANCH   1  19
HETATM   19  C   UNL     1      42.044 -12.613   4.075  1.00  0.00     0.075 C 
HETATM   20  C   UNL     1      41.210 -11.998   3.222  1.00  0.00     0.020 C 
BRANCH  20  21
HETATM   21  C   UNL     1      41.106 -12.292   1.785  1.00  0.00    -0.001 A 
HETATM   22  C   UNL     1      40.205 -13.256   1.292  1.00  0.00     0.078 A 
HETATM   23  C   UNL     1      40.142 -13.496  -0.085  1.00  0.00     0.039 A 
HETATM   24  C   UNL     1      40.968 -12.788  -0.964  1.00  0.00     0.022 A 
HETATM   25  C   UNL     1      41.863 -11.843  -0.467  1.00  0.00     0.012 A 
HETATM   26  C   UNL     1      41.932 -11.588   0.900  1.00  0.00     0.033 A 
HETATM   27 BR   UNL     1      43.009 -10.919  -1.651  1.00  0.00    -0.051 Br
BRANCH  22  28
HETATM   28  O   UNL     1      39.482 -13.952   2.227  1.00  0.00    -0.355 OA
HETATM   29  C   UNL     1      39.197 -15.315   1.924  1.00  0.00     0.210 C 
ENDBRANCH  22  28
ENDBRANCH  20  21
ENDBRANCH   1  19
TORSDOF 7
ENDMDL
MODEL 4
REMARK VINA RESULT:      -6.9      3.428      6.001
REMARK  7 active torsions:
REMARK  status: ('A' for Active; 'I' for Inactive)
REMARK    1  A    between atoms: O_2  and  C_3 
REMARK    2  A    between atoms: C_4  and  C_5 
REMARK    3  A    between atoms: C_6  and  C_7 
REMARK       I    between atoms: C_7  and  N_8 
REMARK    4  A    between atoms: N_8  and  C_9 
REMARK    5  A    between atoms: C_9  and  C_10 
REMARK    6  A    between atoms: C_10  and  N_11 
REMARK    7  A    between atoms: C_10  and  C_18 
ROOT
HETATM    1  C   UNL     1      41.662 -17.030   1.024  1.00  0.00     0.241 C 
HETATM    2  N   UNL     1      41.298 -15.715   1.085  1.00  0.00    -0.355 N 
HETATM    3  O   UNL     1      40.878 -17.951   1.226  1.00  0.00    -0.269 OA
HETATM    4  H   UNL     1      42.039 -15.025   0.966  1.00  0.00     0.162 HD
ENDROOT
BRANCH   2   5
HETATM    5  C   UNL     1      39.997 -15.253   1.558  1.00  0.00     0.163 C 
BRANCH   5   6
HETATM    6  C   UNL     1      39.858 -13.706   1.723  1.00  0.00     0.262 C 
BRANCH   6   7
HETATM    7  N   UNL     1      39.963 -13.271   3.191  1.00  0.00    -0.059 N 
HETATM    8  H   UNL     1      40.914 -12.858   3.269  1.00  0.00     0.280 HD
HETATM    9  C   UNL     1      39.030 -12.161   3.606  1.00  0.00     0.236 C 
HETATM   10  C   UNL     1      39.414 -11.672   4.997  1.00  0.00     0.028 C 
HETATM   11  C   UNL     1      39.413 -12.812   6.011  1.00  0.00     0.003 C 
HETATM   12  C   UNL     1      40.293 -13.966   5.543  1.00  0.00     0.028 C 
HETATM   13  C   UNL     1      39.920 -14.435   4.143  1.00  0.00     0.236 C 
ENDBRANCH   6   7
BRANCH   6  14
HETATM   14  C   UNL     1      40.800 -12.980   0.815  1.00  0.00     0.085 A 
HETATM   15  O   UNL     1      40.765 -13.321  -0.507  1.00  0.00    -0.325 OA
HETATM   16  C   UNL     1      41.683 -12.551  -1.143  1.00  0.00     0.142 A 
HETATM   17  C   UNL     1      42.311 -11.717  -0.249  1.00  0.00     0.027 A 
HETATM   18  C   UNL     1      41.741 -11.991   1.019  1.00  0.00     0.037 A 
ENDBRANCH   6  14
ENDBRANCH   5   6
ENDBRANCH   2   5
BRANCH   1  19
HETATM   19  C   UNL     1      43.084 -17.266   0.717  1.00  0.00     0.075 C 
HETATM   20  C   UNL     1      44.025 -17.452   1.655  1.00  0.00     0.020 C 
BRANCH  20  21
HETATM   21  C   UNL     1      43.794 -17.393   3.106  1.00  0.00    -0.001 A 
HETATM   22  C   UNL     1      43.485 -16.182   3.756  1.00  0.00     0.078 A 
HETATM   23  C   UNL     1      43.271 -16.180   5.138  1.00  0.00     0.039 A 
HETATM   24  C   UNL     1      43.365 -17.370   5.869  1.00  0.00     0.022 A 
HETATM   25  C   UNL     1      43.679 -18.560   5.220  1.00  0.00     0.012 A 
HETATM   26  C   UNL     1      43.889 -18.580   3.844  1.00  0.00     0.033 A 
HETATM   27 BR   UNL     1      43.849 -20.158   6.215  1.00  0.00    -0.051 Br
BRANCH  22  28
HETATM   28  O   UNL     1      43.480 -15.054   2.975  1.00  0.00    -0.355 OA
HETATM   29  C   UNL     1      43.589 -13.809   3.660  1.00  0.00     0.210 C 
ENDBRANCH  22  28
ENDBRANCH  20  21
ENDBRANCH   1  19
TORSDOF 7
ENDMDL
MODEL 5
REMARK VINA RESULT:      -6.9      3.377      5.854
REMARK  7 active torsions:
REMARK  status: ('A' for Active; 'I' for Inactive)
REMARK    1  A    between atoms: O_2  and  C_3 
REMARK    2  A    between atoms: C_4  and  C_5 
REMARK    3  A    between atoms: C_6  and  C_7 
REMARK       I    between atoms: C_7  and  N_8 
REMARK    4  A    between atoms: N_8  and  C_9 
REMARK    5  A    between atoms: C_9  and  C_10 
REMARK    6  A    between atoms: C_10  and  N_11 
REMARK    7  A    between atoms: C_10  and  C_18 
ROOT
HETATM    1  C   UNL     1      41.532 -15.784   1.264  1.00  0.00     0.241 C 
HETATM    2  N   UNL     1      42.596 -16.574   1.596  1.00  0.00    -0.355 N 
HETATM    3  O   UNL     1      40.369 -16.163   1.342  1.00  0.00    -0.269 OA
HETATM    4  H   UNL     1      43.526 -16.187   1.432  1.00  0.00     0.162 HD
ENDROOT
BRANCH   2   5
HETATM    5  C   UNL     1      42.487 -17.993   1.915  1.00  0.00     0.163 C 
BRANCH   5   6
HETATM    6  C   UNL     1      43.454 -18.503   3.031  1.00  0.00     0.262 C 
BRANCH   6   7
HETATM    7  N   UNL     1      42.902 -18.239   4.437  1.00  0.00    -0.059 N 
HETATM    8  H   UNL     1      42.583 -19.172   4.767  1.00  0.00     0.280 HD
HETATM    9  C   UNL     1      43.919 -17.800   5.462  1.00  0.00     0.236 C 
HETATM   10  C   UNL     1      43.282 -17.818   6.845  1.00  0.00     0.028 C 
HETATM   11  C   UNL     1      42.028 -16.951   6.895  1.00  0.00     0.003 C 
HETATM   12  C   UNL     1      41.041 -17.347   5.803  1.00  0.00     0.028 C 
HETATM   13  C   UNL     1      41.689 -17.350   4.425  1.00  0.00     0.236 C 
ENDBRANCH   6   7
BRANCH   6  14
HETATM   14  C   UNL     1      43.842 -19.928   2.798  1.00  0.00     0.085 A 
HETATM   15  O   UNL     1      43.387 -20.510   1.649  1.00  0.00    -0.325 OA
HETATM   16  C   UNL     1      43.851 -21.785   1.633  1.00  0.00     0.142 A 
HETATM   17  C   UNL     1      44.601 -22.034   2.758  1.00  0.00     0.027 A 
HETATM   18  C   UNL     1      44.599 -20.835   3.512  1.00  0.00     0.037 A 
ENDBRANCH   6  14
ENDBRANCH   5   6
ENDBRANCH   2   5
BRANCH   1  19
HETATM   19  C   UNL     1      41.886 -14.439   0.776  1.00  0.00     0.075 C 
HETATM   20  C   UNL     1      42.071 -13.382   1.581  1.00  0.00     0.020 C 
BRANCH  20  21
HETATM   21  C   UNL     1      41.893 -13.392   3.041  1.00  0.00    -0.001 A 
HETATM   22  C   UNL     1      40.644 -13.126   3.634  1.00  0.00     0.078 A 
HETATM   23  C   UNL     1      40.527 -13.151   5.028  1.00  0.00     0.039 A 
HETATM   24  C   UNL     1      41.642 -13.435   5.826  1.00  0.00     0.022 A 
HETATM   25  C   UNL     1      42.875 -13.687   5.230  1.00  0.00     0.012 A 
HETATM   26  C   UNL     1      43.006 -13.672   3.845  1.00  0.00     0.033 A 
HETATM   27 BR   UNL     1      44.388 -14.026   6.310  1.00  0.00    -0.051 Br
BRANCH  22  28
HETATM   28  O   UNL     1      39.622 -12.792   2.783  1.00  0.00    -0.355 OA
HETATM   29  C   UNL     1      38.842 -11.655   3.145  1.00  0.00     0.210 C 
ENDBRANCH  22  28
ENDBRANCH  20  21
ENDBRANCH   1  19
TORSDOF 7
ENDMDL
MODEL 6
REMARK VINA RESULT:      -6.9      3.908      6.002
REMARK  7 active torsions:
REMARK  status: ('A' for Active; 'I' for Inactive)
REMARK    1  A    between atoms: O_2  and  C_3 
REMARK    2  A    between atoms: C_4  and  C_5 
REMARK    3  A    between atoms: C_6  and  C_7 
REMARK       I    between atoms: C_7  and  N_8 
REMARK    4  A    between atoms: N_8  and  C_9 
REMARK    5  A    between atoms: C_9  and  C_10 
REMARK    6  A    between atoms: C_10  and  N_11 
REMARK    7  A    between atoms: C_10  and  C_18 
ROOT
HETATM    1  C   UNL     1      41.160 -15.567   1.742  1.00  0.00     0.241 C 
HETATM    2  N   UNL     1      42.499 -15.543   2.014  1.00  0.00    -0.355 N 
HETATM    3  O   UNL     1      40.570 -16.579   1.381  1.00  0.00    -0.269 OA
HETATM    4  H   UNL     1      42.907 -14.637   2.243  1.00  0.00     0.162 HD
ENDROOT
BRANCH   2   5
HETATM    5  C   UNL     1      43.402 -16.658   1.749  1.00  0.00     0.163 C 
BRANCH   5   6
HETATM    6  C   UNL     1      43.870 -17.452   3.011  1.00  0.00     0.262 C 
BRANCH   6   7
HETATM    7  N   UNL     1      43.055 -17.085   4.258  1.00  0.00    -0.059 N 
HETATM    8  H   UNL     1      42.655 -16.151   4.037  1.00  0.00     0.280 HD
HETATM    9  C   UNL     1      41.856 -17.959   4.528  1.00  0.00     0.236 C 
HETATM   10  C   UNL     1      41.015 -17.334   5.634  1.00  0.00     0.028 C 
HETATM   11  C   UNL     1      41.836 -17.105   6.899  1.00  0.00     0.003 C 
HETATM   12  C   UNL     1      43.091 -16.291   6.601  1.00  0.00     0.028 C 
HETATM   13  C   UNL     1      43.915 -16.907   5.479  1.00  0.00     0.236 C 
ENDBRANCH   6   7
BRANCH   6  14
HETATM   14  C   UNL     1      43.915 -18.922   2.736  1.00  0.00     0.085 A 
HETATM   15  O   UNL     1      44.670 -19.683   3.583  1.00  0.00    -0.325 OA
HETATM   16  C   UNL     1      44.570 -20.969   3.162  1.00  0.00     0.142 A 
HETATM   17  C   UNL     1      43.761 -21.048   2.053  1.00  0.00     0.027 A 
HETATM   18  C   UNL     1      43.334 -19.726   1.777  1.00  0.00     0.037 A 
ENDBRANCH   6  14
ENDBRANCH   5   6
ENDBRANCH   2   5
BRANCH   1  19
HETATM   19  C   UNL     1      40.475 -14.271   1.890  1.00  0.00     0.075 C 
HETATM   20  C   UNL     1      40.277 -13.415   0.877  1.00  0.00     0.020 C 
BRANCH  20  21
HETATM   21  C   UNL     1      40.758 -13.610  -0.499  1.00  0.00    -0.001 A 
HETATM   22  C   UNL     1      41.940 -12.999  -0.962  1.00  0.00     0.078 A 
HETATM   23  C   UNL     1      42.357 -13.219  -2.279  1.00  0.00     0.039 A 
HETATM   24  C   UNL     1      41.605 -14.037  -3.130  1.00  0.00     0.022 A 
HETATM   25  C   UNL     1      40.433 -14.630  -2.666  1.00  0.00     0.012 A 
HETATM   26  C   UNL     1      40.009 -14.425  -1.357  1.00  0.00     0.033 A 
HETATM   27 BR   UNL     1      39.396 -15.699  -3.830  1.00  0.00    -0.051 Br
BRANCH  22  28
HETATM   28  O   UNL     1      42.578 -12.159  -0.084  1.00  0.00    -0.355 OA
HETATM   29  C   UNL     1      42.551 -10.770  -0.401  1.00  0.00     0.210 C 
ENDBRANCH  22  28
ENDBRANCH  20  21
ENDBRANCH   1  19
TORSDOF 7
ENDMDL
MODEL 7
REMARK VINA RESULT:      -6.9      3.920      6.662
REMARK  7 active torsions:
REMARK  status: ('A' for Active; 'I' for Inactive)
REMARK    1  A    between atoms: O_2  and  C_3 
REMARK    2  A    between atoms: C_4  and  C_5 
REMARK    3  A    between atoms: C_6  and  C_7 
REMARK       I    between atoms: C_7  and  N_8 
REMARK    4  A    between atoms: N_8  and  C_9 
REMARK    5  A    between atoms: C_9  and  C_10 
REMARK    6  A    between atoms: C_10  and  N_11 
REMARK    7  A    between atoms: C_10  and  C_18 
ROOT
HETATM    1  C   UNL     1      42.439 -13.894   2.457  1.00  0.00     0.241 C 
HETATM    2  N   UNL     1      42.158 -15.182   2.098  1.00  0.00    -0.355 N 
HETATM    3  O   UNL     1      43.550 -13.530   2.826  1.00  0.00    -0.269 OA
HETATM    4  H   UNL     1      41.187 -15.395   1.869  1.00  0.00     0.162 HD
ENDROOT
BRANCH   2   5
HETATM    5  C   UNL     1      43.086 -16.294   2.270  1.00  0.00     0.163 C 
BRANCH   5   6
HETATM    6  C   UNL     1      42.511 -17.531   3.031  1.00  0.00     0.262 C 
BRANCH   6   7
HETATM    7  N   UNL     1      43.459 -18.736   2.973  1.00  0.00    -0.059 N 
HETATM    8  H   UNL     1      44.323 -18.361   2.533  1.00  0.00     0.280 HD
HETATM    9  C   UNL     1      43.912 -19.268   4.310  1.00  0.00     0.236 C 
HETATM   10  C   UNL     1      45.027 -20.285   4.096  1.00  0.00     0.028 C 
HETATM   11  C   UNL     1      44.586 -21.411   3.167  1.00  0.00     0.003 C 
HETATM   12  C   UNL     1      44.050 -20.860   1.850  1.00  0.00     0.028 C 
HETATM   13  C   UNL     1      42.953 -19.826   2.070  1.00  0.00     0.236 C 
ENDBRANCH   6   7
BRANCH   6  14
HETATM   14  C   UNL     1      42.095 -17.163   4.421  1.00  0.00     0.085 A 
HETATM   15  O   UNL     1      42.817 -16.182   5.039  1.00  0.00    -0.325 OA
HETATM   16  C   UNL     1      42.277 -16.004   6.271  1.00  0.00     0.142 A 
HETATM   17  C   UNL     1      41.216 -16.857   6.456  1.00  0.00     0.027 A 
HETATM   18  C   UNL     1      41.094 -17.607   5.260  1.00  0.00     0.037 A 
ENDBRANCH   6  14
ENDBRANCH   5   6
ENDBRANCH   2   5
BRANCH   1  19
HETATM   19  C   UNL     1      41.294 -12.968   2.392  1.00  0.00     0.075 C 
HETATM   20  C   UNL     1      40.807 -12.468   1.246  1.00  0.00     0.020 C 
BRANCH  20  21
HETATM   21  C   UNL     1      41.369 -12.717  -0.089  1.00  0.00    -0.001 A 
HETATM   22  C   UNL     1      42.403 -11.917  -0.616  1.00  0.00     0.078 A 
HETATM   23  C   UNL     1      42.906 -12.198  -1.891  1.00  0.00     0.039 A 
HETATM   24  C   UNL     1      42.386 -13.261  -2.637  1.00  0.00     0.022 A 
HETATM   25  C   UNL     1      41.358 -14.040  -2.112  1.00  0.00     0.012 A 
HETATM   26  C   UNL     1      40.851 -13.778  -0.843  1.00  0.00     0.033 A 
HETATM   27 BR   UNL     1      40.626 -15.448  -3.139  1.00  0.00    -0.051 Br
BRANCH  22  28
HETATM   28  O   UNL     1      42.807 -10.856   0.153  1.00  0.00    -0.355 OA
HETATM   29  C   UNL     1      43.158  -9.664  -0.545  1.00  0.00     0.210 C 
ENDBRANCH  22  28
ENDBRANCH  20  21
ENDBRANCH   1  19
TORSDOF 7
ENDMDL
MODEL 8
REMARK VINA RESULT:      -6.9      2.429      4.304
REMARK  7 active torsions:
REMARK  status: ('A' for Active; 'I' for Inactive)
REMARK    1  A    between atoms: O_2  and  C_3 
REMARK    2  A    between atoms: C_4  and  C_5 
REMARK    3  A    between atoms: C_6  and  C_7 
REMARK       I    between atoms: C_7  and  N_8 
REMARK    4  A    between atoms: N_8  and  C_9 
REMARK    5  A    between atoms: C_9  and  C_10 
REMARK    6  A    between atoms: C_10  and  N_11 
REMARK    7  A    between atoms: C_10  and  C_18 
ROOT
HETATM    1  C   UNL     1      43.879 -16.612   7.030  1.00  0.00     0.241 C 
HETATM    2  N   UNL     1      43.722 -15.302   7.386  1.00  0.00    -0.355 N 
HETATM    3  O   UNL     1      44.966 -17.103   6.751  1.00  0.00    -0.269 OA
HETATM    4  H   UNL     1      42.768 -14.976   7.535  1.00  0.00     0.162 HD
ENDROOT
BRANCH   2   5
HETATM    5  C   UNL     1      44.787 -14.307   7.310  1.00  0.00     0.163 C 
BRANCH   5   6
HETATM    6  C   UNL     1      44.327 -12.824   7.484  1.00  0.00     0.262 C 
BRANCH   6   7
HETATM    7  N   UNL     1      42.851 -12.631   7.114  1.00  0.00    -0.059 N 
HETATM    8  H   UNL     1      42.345 -13.317   7.709  1.00  0.00     0.280 HD
HETATM    9  C   UNL     1      42.258 -11.294   7.486  1.00  0.00     0.236 C 
HETATM   10  C   UNL     1      40.749 -11.339   7.288  1.00  0.00     0.028 C 
HETATM   11  C   UNL     1      40.383 -11.734   5.861  1.00  0.00     0.003 C 
HETATM   12  C   UNL     1      41.054 -13.045   5.464  1.00  0.00     0.028 C 
HETATM   13  C   UNL     1      42.559 -13.003   5.686  1.00  0.00     0.236 C 
ENDBRANCH   6   7
BRANCH   6  14
HETATM   14  C   UNL     1      44.675 -12.308   8.845  1.00  0.00     0.085 A 
HETATM   15  O   UNL     1      44.243 -13.044   9.911  1.00  0.00    -0.325 OA
HETATM   16  C   UNL     1      44.665 -12.409  11.033  1.00  0.00     0.142 A 
HETATM   17  C   UNL     1      45.364 -11.272  10.706  1.00  0.00     0.027 A 
HETATM   18  C   UNL     1      45.374 -11.205   9.291  1.00  0.00     0.037 A 
ENDBRANCH   6  14
ENDBRANCH   5   6
ENDBRANCH   2   5
BRANCH   1  19
HETATM   19  C   UNL     1      42.631 -17.395   6.984  1.00  0.00     0.075 C 
HETATM   20  C   UNL     1      42.058 -17.813   5.845  1.00  0.00     0.020 C 
BRANCH  20  21
HETATM   21  C   UNL     1      42.549 -17.509   4.493  1.00  0.00    -0.001 A 
HETATM   22  C   UNL     1      43.398 -18.393   3.799  1.00  0.00     0.078 A 
HETATM   23  C   UNL     1      43.835 -18.058   2.513  1.00  0.00     0.039 A 
HETATM   24  C   UNL     1      43.435 -16.854   1.922  1.00  0.00     0.022 A 
HETATM   25  C   UNL     1      42.603 -15.982   2.619  1.00  0.00     0.012 A 
HETATM   26  C   UNL     1      42.155 -16.304   3.897  1.00  0.00     0.033 A 
HETATM   27 BR   UNL     1      42.100 -14.337   1.838  1.00  0.00    -0.051 Br
BRANCH  22  28
HETATM   28  O   UNL     1      43.795 -19.517   4.477  1.00  0.00    -0.355 OA
HETATM   29  C   UNL     1      44.884 -20.245   3.915  1.00  0.00     0.210 C 
ENDBRANCH  22  28
ENDBRANCH  20  21
ENDBRANCH   1  19
TORSDOF 7
ENDMDL
MODEL 9
REMARK VINA RESULT:      -6.9      3.504      6.348
REMARK  7 active torsions:
REMARK  status: ('A' for Active; 'I' for Inactive)
REMARK    1  A    between atoms: O_2  and  C_3 
REMARK    2  A    between atoms: C_4  and  C_5 
REMARK    3  A    between atoms: C_6  and  C_7 
REMARK       I    between atoms: C_7  and  N_8 
REMARK    4  A    between atoms: N_8  and  C_9 
REMARK    5  A    between atoms: C_9  and  C_10 
REMARK    6  A    between atoms: C_10  and  N_11 
REMARK    7  A    between atoms: C_10  and  C_18 
ROOT
HETATM    1  C   UNL     1      40.178 -16.144   2.084  1.00  0.00     0.241 C 
HETATM    2  N   UNL     1      40.860 -15.888   3.240  1.00  0.00    -0.355 N 
HETATM    3  O   UNL     1      40.561 -16.953   1.247  1.00  0.00    -0.269 OA
HETATM    4  H   UNL     1      40.492 -15.150   3.839  1.00  0.00     0.162 HD
ENDROOT
BRANCH   2   5
HETATM    5  C   UNL     1      42.190 -16.413   3.532  1.00  0.00     0.163 C 
BRANCH   5   6
HETATM    6  C   UNL     1      42.232 -17.598   4.549  1.00  0.00     0.262 C 
BRANCH   6   7
HETATM    7  N   UNL     1      42.947 -18.827   3.973  1.00  0.00    -0.059 N 
HETATM    8  H   UNL     1      42.367 -19.631   4.285  1.00  0.00     0.280 HD
HETATM    9  C   UNL     1      42.957 -18.925   2.467  1.00  0.00     0.236 C 
HETATM   10  C   UNL     1      43.472 -20.298   2.055  1.00  0.00     0.028 C 
HETATM   11  C   UNL     1      44.852 -20.577   2.641  1.00  0.00     0.003 C 
HETATM   12  C   UNL     1      44.854 -20.393   4.155  1.00  0.00     0.028 C 
HETATM   13  C   UNL     1      44.315 -19.029   4.563  1.00  0.00     0.236 C 
ENDBRANCH   6   7
BRANCH   6  14
HETATM   14  C   UNL     1      42.774 -17.154   5.870  1.00  0.00     0.085 A 
HETATM   15  O   UNL     1      43.602 -16.067   5.862  1.00  0.00    -0.325 OA
HETATM   16  C   UNL     1      43.971 -15.836   7.147  1.00  0.00     0.142 A 
HETATM   17  C   UNL     1      43.394 -16.759   7.985  1.00  0.00     0.027 A 
HETATM   18  C   UNL     1      42.617 -17.613   7.163  1.00  0.00     0.037 A 
ENDBRANCH   6  14
ENDBRANCH   5   6
ENDBRANCH   2   5
BRANCH   1  19
HETATM   19  C   UNL     1      38.949 -15.353   1.902  1.00  0.00     0.075 C 
HETATM   20  C   UNL     1      38.906 -14.188   1.238  1.00  0.00     0.020 C 
BRANCH  20  21
HETATM   21  C   UNL     1      40.071 -13.509   0.651  1.00  0.00    -0.001 A 
HETATM   22  C   UNL     1      40.957 -12.750   1.440  1.00  0.00     0.078 A 
HETATM   23  C   UNL     1      42.053 -12.126   0.834  1.00  0.00     0.039 A 
HETATM   24  C   UNL     1      42.265 -12.251  -0.544  1.00  0.00     0.022 A 
HETATM   25  C   UNL     1      41.378 -12.995  -1.317  1.00  0.00     0.012 A 
HETATM   26  C   UNL     1      40.287 -13.628  -0.728  1.00  0.00     0.033 A 
HETATM   27 BR   UNL     1      41.640 -13.128  -3.183  1.00  0.00    -0.051 Br
BRANCH  22  28
HETATM   28  O   UNL     1      40.639 -12.623   2.768  1.00  0.00    -0.355 OA
HETATM   29  C   UNL     1      41.721 -12.363   3.658  1.00  0.00     0.210 C 
ENDBRANCH  22  28
ENDBRANCH  20  21
ENDBRANCH   1  19
TORSDOF 7
ENDMDL
MODEL 10
REMARK VINA RESULT:      -6.8      3.896      8.912
REMARK  7 active torsions:
REMARK  status: ('A' for Active; 'I' for Inactive)
REMARK    1  A    between atoms: O_2  and  C_3 
REMARK    2  A    between atoms: C_4  and  C_5 
REMARK    3  A    between atoms: C_6  and  C_7 
REMARK       I    between atoms: C_7  and  N_8 
REMARK    4  A    between atoms: N_8  and  C_9 
REMARK    5  A    between atoms: C_9  and  C_10 
REMARK    6  A    between atoms: C_10  and  N_11 
REMARK    7  A    between atoms: C_10  and  C_18 
ROOT
HETATM    1  C   UNL     1      42.262 -17.389   1.114  1.00  0.00     0.241 C 
HETATM    2  N   UNL     1      42.399 -16.234   0.396  1.00  0.00    -0.355 N 
HETATM    3  O   UNL     1      41.176 -17.905   1.350  1.00  0.00    -0.269 OA
HETATM    4  H   UNL     1      43.341 -15.852   0.312  1.00  0.00     0.162 HD
ENDROOT
BRANCH   2   5
HETATM    5  C   UNL     1      41.277 -15.401  -0.024  1.00  0.00     0.163 C 
BRANCH   5   6
HETATM    6  C   UNL     1      41.292 -14.970  -1.525  1.00  0.00     0.262 C 
BRANCH   6   7
HETATM    7  N   UNL     1      39.921 -15.149  -2.190  1.00  0.00    -0.059 N 
HETATM    8  H   UNL     1      39.444 -15.864  -1.605  1.00  0.00     0.280 HD
HETATM    9  C   UNL     1      39.013 -13.945  -2.138  1.00  0.00     0.236 C 
HETATM   10  C   UNL     1      37.620 -14.344  -2.607  1.00  0.00     0.028 C 
HETATM   11  C   UNL     1      37.653 -14.958  -4.002  1.00  0.00     0.003 C 
HETATM   12  C   UNL     1      38.637 -16.121  -4.068  1.00  0.00     0.028 C 
HETATM   13  C   UNL     1      40.022 -15.724  -3.576  1.00  0.00     0.236 C 
ENDBRANCH   6   7
BRANCH   6  14
HETATM   14  C   UNL     1      41.860 -13.595  -1.685  1.00  0.00     0.085 A 
HETATM   15  O   UNL     1      41.880 -12.805  -0.571  1.00  0.00    -0.325 OA
HETATM   16  C   UNL     1      42.431 -11.618  -0.931  1.00  0.00     0.142 A 
HETATM   17  C   UNL     1      42.767 -11.632  -2.264  1.00  0.00     0.027 A 
HETATM   18  C   UNL     1      42.400 -12.910  -2.754  1.00  0.00     0.037 A 
ENDBRANCH   6  14
ENDBRANCH   5   6
ENDBRANCH   2   5
BRANCH   1  19
HETATM   19  C   UNL     1      43.526 -17.962   1.612  1.00  0.00     0.075 C 
HETATM   20  C   UNL     1      43.972 -17.800   2.867  1.00  0.00     0.020 C 
BRANCH  20  21
HETATM   21  C   UNL     1      43.308 -16.993   3.900  1.00  0.00    -0.001 A 
HETATM   22  C   UNL     1      42.790 -17.576   5.074  1.00  0.00     0.078 A 
HETATM   23  C   UNL     1      42.170 -16.762   6.028  1.00  0.00     0.039 A 
HETATM   24  C   UNL     1      42.062 -15.383   5.819  1.00  0.00     0.022 A 
HETATM   25  C   UNL     1      42.568 -14.817   4.652  1.00  0.00     0.012 A 
HETATM   26  C   UNL     1      43.194 -15.612   3.695  1.00  0.00     0.033 A 
HETATM   27 BR   UNL     1      42.382 -12.961   4.349  1.00  0.00    -0.051 Br
BRANCH  22  28
HETATM   28  O   UNL     1      42.878 -18.941   5.168  1.00  0.00    -0.355 OA
HETATM   29  C   UNL     1      43.663 -19.454   6.242  1.00  0.00     0.210 C 
ENDBRANCH  22  28
ENDBRANCH  20  21
ENDBRANCH   1  19
TORSDOF 7
ENDMDL
