MODEL 1
REMARK VINA RESULT:      -7.7      0.000      0.000
REMARK  4 active torsions:
REMARK  status: ('A' for Active; 'I' for Inactive)
REMARK    1  A    between atoms: C_5  and  C_6 
REMARK       I    between atoms: C_6  and  N_7 
REMARK    2  A    between atoms: N_7  and  N_8 
REMARK       I    between atoms: N_8  and  C_9 
REMARK    3  A    between atoms: C_9  and  C_10 
REMARK    4  A    between atoms: C_13  and  C_14 
ROOT
HETATM    1  N   UNL     1      44.009 -14.365   7.903  1.00  0.00    -0.263 N 
HETATM    2  C   UNL     1      44.876 -13.300   8.038  1.00  0.00     0.270 C 
HETATM    3  O   UNL     1      45.918 -13.206   7.392  1.00  0.00    -0.266 OA
HETATM    4  H   UNL     1      43.052 -14.362   8.253  1.00  0.00     0.190 HD
ENDROOT
BRANCH   2   5
HETATM    5  C   UNL     1      44.475 -12.236   8.996  1.00  0.00     0.033 A 
HETATM    6  C   UNL     1      45.182 -11.988  10.174  1.00  0.00     0.017 A 
HETATM    7  C   UNL     1      44.766 -10.966  11.036  1.00  0.00     0.010 A 
HETATM    8  C   UNL     1      43.649 -10.152  10.745  1.00  0.00    -0.035 A 
HETATM    9  C   UNL     1      42.945 -10.433   9.562  1.00  0.00     0.010 A 
HETATM   10  C   UNL     1      43.361 -11.449   8.692  1.00  0.00     0.017 A 
BRANCH   8  11
HETATM   11  C   UNL     1      43.240  -9.077  11.753  1.00  0.00     0.141 C 
HETATM   12  S   UNL     1      41.657  -8.255  11.348  1.00  0.00    -0.149 SA
HETATM   13  C   UNL     1      40.501  -9.583  11.773  1.00  0.00     0.076 C 
HETATM   14  C   UNL     1      40.543  -9.912  13.256  1.00  0.00     0.020 C 
HETATM   15  C   UNL     1      41.846 -10.563  13.694  1.00  0.00     0.076 C 
HETATM   16  S   UNL     1      43.305  -9.492  13.526  1.00  0.00    -0.149 SA
ENDBRANCH   8  11
ENDBRANCH   2   5
BRANCH   1  17
HETATM   17  N   UNL     1      44.303 -15.330   6.933  1.00  0.00    -0.262 N 
HETATM   18  C   UNL     1      43.842 -16.617   7.107  1.00  0.00     0.286 C 
HETATM   19  O   UNL     1      43.211 -16.947   8.112  1.00  0.00    -0.264 OA
HETATM   20  H   UNL     1      44.742 -14.998   6.078  1.00  0.00     0.190 HD
BRANCH  18  21
HETATM   21  C   UNL     1      44.145 -17.542   6.038  1.00  0.00     0.102 A 
HETATM   22  N   UNL     1      43.633 -17.366   4.769  1.00  0.00    -0.361 N 
HETATM   23  C   UNL     1      44.052 -18.373   3.942  1.00  0.00     0.088 A 
HETATM   24  H   UNL     1      43.028 -16.595   4.510  1.00  0.00     0.165 HD
HETATM   25  C   UNL     1      44.851 -19.216   4.677  1.00  0.00     0.019 A 
HETATM   26  C   UNL     1      44.912 -18.696   5.994  1.00  0.00     0.036 A 
ENDBRANCH  18  21
ENDBRANCH   1  17
TORSDOF 4
ENDMDL
MODEL 2
REMARK VINA RESULT:      -7.2      7.970     10.518
REMARK  4 active torsions:
REMARK  status: ('A' for Active; 'I' for Inactive)
REMARK    1  A    between atoms: C_5  and  C_6 
REMARK       I    between atoms: C_6  and  N_7 
REMARK    2  A    between atoms: N_7  and  N_8 
REMARK       I    between atoms: N_8  and  C_9 
REMARK    3  A    between atoms: C_9  and  C_10 
REMARK    4  A    between atoms: C_13  and  C_14 
ROOT
HETATM    1  N   UNL     1      41.496 -16.249   0.196  1.00  0.00    -0.263 N 
HETATM    2  C   UNL     1      41.044 -16.707   1.416  1.00  0.00     0.270 C 
HETATM    3  O   UNL     1      39.863 -16.643   1.753  1.00  0.00    -0.266 OA
HETATM    4  H   UNL     1      42.408 -16.484  -0.192  1.00  0.00     0.190 HD
ENDROOT
BRANCH   2   5
HETATM    5  C   UNL     1      42.059 -17.319   2.313  1.00  0.00     0.033 A 
HETATM    6  C   UNL     1      42.614 -16.629   3.393  1.00  0.00     0.017 A 
HETATM    7  C   UNL     1      43.560 -17.256   4.212  1.00  0.00     0.010 A 
HETATM    8  C   UNL     1      43.969 -18.591   3.993  1.00  0.00    -0.035 A 
HETATM    9  C   UNL     1      43.409 -19.257   2.890  1.00  0.00     0.010 A 
HETATM   10  C   UNL     1      42.455 -18.637   2.072  1.00  0.00     0.017 A 
BRANCH   8  11
HETATM   11  C   UNL     1      45.030 -19.195   4.913  1.00  0.00     0.141 C 
HETATM   12  S   UNL     1      45.204 -18.317   6.509  1.00  0.00    -0.149 SA
HETATM   13  C   UNL     1      43.685 -18.863   7.330  1.00  0.00     0.076 C 
HETATM   14  C   UNL     1      43.683 -20.364   7.568  1.00  0.00     0.020 C 
HETATM   15  C   UNL     1      43.584 -21.179   6.288  1.00  0.00     0.076 C 
HETATM   16  S   UNL     1      45.012 -20.998   5.179  1.00  0.00    -0.149 SA
ENDBRANCH   8  11
ENDBRANCH   2   5
BRANCH   1  17
HETATM   17  N   UNL     1      40.549 -15.766  -0.714  1.00  0.00    -0.262 N 
HETATM   18  C   UNL     1      40.419 -14.404  -0.886  1.00  0.00     0.286 C 
HETATM   19  O   UNL     1      41.088 -13.604  -0.231  1.00  0.00    -0.264 OA
HETATM   20  H   UNL     1      40.086 -16.455  -1.300  1.00  0.00     0.190 HD
BRANCH  18  21
HETATM   21  C   UNL     1      39.454 -13.987  -1.878  1.00  0.00     0.102 A 
HETATM   22  N   UNL     1      38.415 -14.811  -2.260  1.00  0.00    -0.361 N 
HETATM   23  C   UNL     1      37.650 -14.199  -3.216  1.00  0.00     0.088 A 
HETATM   24  H   UNL     1      38.264 -15.737  -1.878  1.00  0.00     0.165 HD
HETATM   25  C   UNL     1      38.191 -12.959  -3.459  1.00  0.00     0.019 A 
HETATM   26  C   UNL     1      39.325 -12.823  -2.620  1.00  0.00     0.036 A 
ENDBRANCH  18  21
ENDBRANCH   1  17
TORSDOF 4
ENDMDL
MODEL 3
REMARK VINA RESULT:      -7.1      8.734     10.130
REMARK  4 active torsions:
REMARK  status: ('A' for Active; 'I' for Inactive)
REMARK    1  A    between atoms: C_5  and  C_6 
REMARK       I    between atoms: C_6  and  N_7 
REMARK    2  A    between atoms: N_7  and  N_8 
REMARK       I    between atoms: N_8  and  C_9 
REMARK    3  A    between atoms: C_9  and  C_10 
REMARK    4  A    between atoms: C_13  and  C_14 
ROOT
HETATM    1  N   UNL     1      43.225 -17.118   0.674  1.00  0.00    -0.263 N 
HETATM    2  C   UNL     1      41.893 -16.760   0.644  1.00  0.00     0.270 C 
HETATM    3  O   UNL     1      40.988 -17.544   0.927  1.00  0.00    -0.266 OA
HETATM    4  H   UNL     1      43.990 -16.446   0.660  1.00  0.00     0.190 HD
ENDROOT
BRANCH   2   5
HETATM    5  C   UNL     1      41.592 -15.351   0.276  1.00  0.00     0.033 A 
HETATM    6  C   UNL     1      41.788 -14.290   1.163  1.00  0.00     0.017 A 
HETATM    7  C   UNL     1      41.497 -12.981   0.760  1.00  0.00     0.010 A 
HETATM    8  C   UNL     1      41.021 -12.687  -0.537  1.00  0.00    -0.035 A 
HETATM    9  C   UNL     1      40.817 -13.773  -1.403  1.00  0.00     0.010 A 
HETATM   10  C   UNL     1      41.113 -15.085  -1.009  1.00  0.00     0.017 A 
BRANCH   8  11
HETATM   11  C   UNL     1      40.697 -11.235  -0.889  1.00  0.00     0.141 C 
HETATM   12  S   UNL     1      41.716 -10.015   0.017  1.00  0.00    -0.149 SA
HETATM   13  C   UNL     1      43.296 -10.233  -0.840  1.00  0.00     0.076 C 
HETATM   14  C   UNL     1      43.201  -9.835  -2.304  1.00  0.00     0.020 C 
HETATM   15  C   UNL     1      42.335 -10.773  -3.130  1.00  0.00     0.076 C 
HETATM   16  S   UNL     1      40.582 -10.782  -2.651  1.00  0.00    -0.149 SA
ENDBRANCH   8  11
ENDBRANCH   2   5
BRANCH   1  17
HETATM   17  N   UNL     1      43.547 -18.405   1.120  1.00  0.00    -0.262 N 
HETATM   18  C   UNL     1      43.903 -18.587   2.439  1.00  0.00     0.286 C 
HETATM   19  O   UNL     1      43.982 -17.641   3.223  1.00  0.00    -0.264 OA
HETATM   20  H   UNL     1      43.379 -19.168   0.470  1.00  0.00     0.190 HD
BRANCH  18  21
HETATM   21  C   UNL     1      44.174 -19.951   2.832  1.00  0.00     0.102 A 
HETATM   22  N   UNL     1      44.649 -20.254   4.091  1.00  0.00    -0.361 N 
HETATM   23  C   UNL     1      44.837 -21.604   4.218  1.00  0.00     0.088 A 
HETATM   24  H   UNL     1      44.832 -19.558   4.805  1.00  0.00     0.165 HD
HETATM   25  C   UNL     1      44.477 -22.193   3.029  1.00  0.00     0.019 A 
HETATM   26  C   UNL     1      44.060 -21.157   2.156  1.00  0.00     0.036 A 
ENDBRANCH  18  21
ENDBRANCH   1  17
TORSDOF 4
ENDMDL
MODEL 4
REMARK VINA RESULT:      -6.7      4.519      6.390
REMARK  4 active torsions:
REMARK  status: ('A' for Active; 'I' for Inactive)
REMARK    1  A    between atoms: C_5  and  C_6 
REMARK       I    between atoms: C_6  and  N_7 
REMARK    2  A    between atoms: N_7  and  N_8 
REMARK       I    between atoms: N_8  and  C_9 
REMARK    3  A    between atoms: C_9  and  C_10 
REMARK    4  A    between atoms: C_13  and  C_14 
ROOT
HETATM    1  N   UNL     1      42.527 -16.587   3.303  1.00  0.00    -0.263 N 
HETATM    2  C   UNL     1      41.187 -16.306   3.132  1.00  0.00     0.270 C 
HETATM    3  O   UNL     1      40.430 -17.042   2.501  1.00  0.00    -0.266 OA
HETATM    4  H   UNL     1      43.118 -16.122   3.991  1.00  0.00     0.190 HD
ENDROOT
BRANCH   2   5
HETATM    5  C   UNL     1      40.681 -15.067   3.779  1.00  0.00     0.033 A 
HETATM    6  C   UNL     1      40.304 -13.942   3.044  1.00  0.00     0.017 A 
HETATM    7  C   UNL     1      39.824 -12.804   3.704  1.00  0.00     0.010 A 
HETATM    8  C   UNL     1      39.689 -12.758   5.110  1.00  0.00    -0.035 A 
HETATM    9  C   UNL     1      40.090 -13.897   5.827  1.00  0.00     0.010 A 
HETATM   10  C   UNL     1      40.564 -15.041   5.171  1.00  0.00     0.017 A 
BRANCH   8  11
HETATM   11  C   UNL     1      39.187 -11.468   5.758  1.00  0.00     0.141 C 
HETATM   12  S   UNL     1      39.744 -11.249   7.486  1.00  0.00    -0.149 SA
HETATM   13  C   UNL     1      41.484 -10.837   7.201  1.00  0.00     0.076 C 
HETATM   14  C   UNL     1      41.636  -9.527   6.445  1.00  0.00     0.020 C 
HETATM   15  C   UNL     1      41.156  -9.603   5.004  1.00  0.00     0.076 C 
HETATM   16  S   UNL     1      39.373  -9.910   4.829  1.00  0.00    -0.149 SA
ENDBRANCH   8  11
ENDBRANCH   2   5
BRANCH   1  17
HETATM   17  N   UNL     1      43.012 -17.799   2.798  1.00  0.00    -0.262 N 
HETATM   18  C   UNL     1      43.281 -18.829   3.673  1.00  0.00     0.286 C 
HETATM   19  O   UNL     1      43.141 -18.697   4.890  1.00  0.00    -0.264 OA
HETATM   20  H   UNL     1      43.023 -17.899   1.787  1.00  0.00     0.190 HD
BRANCH  18  21
HETATM   21  C   UNL     1      43.732 -20.063   3.069  1.00  0.00     0.102 A 
HETATM   22  N   UNL     1      44.449 -20.995   3.790  1.00  0.00    -0.361 N 
HETATM   23  C   UNL     1      44.770 -22.065   3.000  1.00  0.00     0.088 A 
HETATM   24  H   UNL     1      44.698 -20.879   4.766  1.00  0.00     0.165 HD
HETATM   25  C   UNL     1      44.252 -21.833   1.747  1.00  0.00     0.019 A 
HETATM   26  C   UNL     1      43.600 -20.576   1.788  1.00  0.00     0.036 A 
ENDBRANCH  18  21
ENDBRANCH   1  17
TORSDOF 4
ENDMDL
MODEL 5
REMARK VINA RESULT:      -6.6      7.457     10.397
REMARK  4 active torsions:
REMARK  status: ('A' for Active; 'I' for Inactive)
REMARK    1  A    between atoms: C_5  and  C_6 
REMARK       I    between atoms: C_6  and  N_7 
REMARK    2  A    between atoms: N_7  and  N_8 
REMARK       I    between atoms: N_8  and  C_9 
REMARK    3  A    between atoms: C_9  and  C_10 
REMARK    4  A    between atoms: C_13  and  C_14 
ROOT
HETATM    1  N   UNL     1      39.794 -15.238   0.799  1.00  0.00    -0.263 N 
HETATM    2  C   UNL     1      40.916 -16.040   0.765  1.00  0.00     0.270 C 
HETATM    3  O   UNL     1      41.584 -16.205  -0.254  1.00  0.00    -0.266 OA
HETATM    4  H   UNL     1      39.359 -14.913   1.660  1.00  0.00     0.190 HD
ENDROOT
BRANCH   2   5
HETATM    5  C   UNL     1      41.308 -16.687   2.045  1.00  0.00     0.033 A 
HETATM    6  C   UNL     1      42.099 -17.837   2.088  1.00  0.00     0.017 A 
HETATM    7  C   UNL     1      42.446 -18.401   3.322  1.00  0.00     0.010 A 
HETATM    8  C   UNL     1      42.034 -17.829   4.546  1.00  0.00    -0.035 A 
HETATM    9  C   UNL     1      41.226 -16.682   4.475  1.00  0.00     0.010 A 
HETATM   10  C   UNL     1      40.882 -16.109   3.243  1.00  0.00     0.017 A 
BRANCH   8  11
HETATM   11  C   UNL     1      42.429 -18.522   5.850  1.00  0.00     0.141 C 
HETATM   12  S   UNL     1      43.771 -19.749   5.653  1.00  0.00    -0.149 SA
HETATM   13  C   UNL     1      45.178 -18.634   5.415  1.00  0.00     0.076 C 
HETATM   14  C   UNL     1      45.438 -17.785   6.649  1.00  0.00     0.020 C 
HETATM   15  C   UNL     1      44.347 -16.760   6.917  1.00  0.00     0.076 C 
HETATM   16  S   UNL     1      42.729 -17.483   7.318  1.00  0.00    -0.149 SA
ENDBRANCH   8  11
ENDBRANCH   2   5
BRANCH   1  17
HETATM   17  N   UNL     1      39.461 -14.529  -0.361  1.00  0.00    -0.262 N 
HETATM   18  C   UNL     1      38.257 -13.861  -0.415  1.00  0.00     0.286 C 
HETATM   19  O   UNL     1      37.452 -13.903   0.517  1.00  0.00    -0.264 OA
HETATM   20  H   UNL     1      40.187 -14.441  -1.067  1.00  0.00     0.190 HD
BRANCH  18  21
HETATM   21  C   UNL     1      38.008 -13.114  -1.627  1.00  0.00     0.102 A 
HETATM   22  N   UNL     1      37.119 -12.059  -1.650  1.00  0.00    -0.361 N 
HETATM   23  C   UNL     1      37.047 -11.524  -2.907  1.00  0.00     0.088 A 
HETATM   24  H   UNL     1      36.599 -11.745  -0.838  1.00  0.00     0.165 HD
HETATM   25  C   UNL     1      37.902 -12.234  -3.717  1.00  0.00     0.019 A 
HETATM   26  C   UNL     1      38.506 -13.234  -2.915  1.00  0.00     0.036 A 
ENDBRANCH  18  21
ENDBRANCH   1  17
TORSDOF 4
ENDMDL
MODEL 6
REMARK VINA RESULT:      -6.6      7.436     10.819
REMARK  4 active torsions:
REMARK  status: ('A' for Active; 'I' for Inactive)
REMARK    1  A    between atoms: C_5  and  C_6 
REMARK       I    between atoms: C_6  and  N_7 
REMARK    2  A    between atoms: N_7  and  N_8 
REMARK       I    between atoms: N_8  and  C_9 
REMARK    3  A    between atoms: C_9  and  C_10 
REMARK    4  A    between atoms: C_13  and  C_14 
ROOT
HETATM    1  N   UNL     1      41.225 -16.468   3.152  1.00  0.00    -0.263 N 
HETATM    2  C   UNL     1      40.432 -15.341   3.082  1.00  0.00     0.270 C 
HETATM    3  O   UNL     1      40.000 -14.770   4.081  1.00  0.00    -0.266 OA
HETATM    4  H   UNL     1      41.768 -16.826   2.368  1.00  0.00     0.190 HD
ENDROOT
BRANCH   2   5
HETATM    5  C   UNL     1      40.139 -14.820   1.720  1.00  0.00     0.033 A 
HETATM    6  C   UNL     1      38.851 -14.458   1.321  1.00  0.00     0.017 A 
HETATM    7  C   UNL     1      38.634 -13.964   0.029  1.00  0.00     0.010 A 
HETATM    8  C   UNL     1      39.690 -13.798  -0.895  1.00  0.00    -0.035 A 
HETATM    9  C   UNL     1      40.973 -14.184  -0.473  1.00  0.00     0.010 A 
HETATM   10  C   UNL     1      41.198 -14.673   0.820  1.00  0.00     0.017 A 
BRANCH   8  11
HETATM   11  C   UNL     1      39.365 -13.281  -2.296  1.00  0.00     0.141 C 
HETATM   12  S   UNL     1      40.499 -13.903  -3.589  1.00  0.00    -0.149 SA
HETATM   13  C   UNL     1      39.920 -15.615  -3.711  1.00  0.00     0.076 C 
HETATM   14  C   UNL     1      38.486 -15.690  -4.209  1.00  0.00     0.020 C 
HETATM   15  C   UNL     1      37.472 -15.152  -3.211  1.00  0.00     0.076 C 
HETATM   16  S   UNL     1      37.637 -13.375  -2.869  1.00  0.00    -0.149 SA
ENDBRANCH   8  11
ENDBRANCH   2   5
BRANCH   1  17
HETATM   17  N   UNL     1      41.607 -16.922   4.420  1.00  0.00    -0.262 N 
HETATM   18  C   UNL     1      42.928 -17.246   4.646  1.00  0.00     0.286 C 
HETATM   19  O   UNL     1      43.770 -17.183   3.749  1.00  0.00    -0.264 OA
HETATM   20  H   UNL     1      40.905 -16.869   5.154  1.00  0.00     0.190 HD
BRANCH  18  21
HETATM   21  C   UNL     1      43.251 -17.659   5.993  1.00  0.00     0.102 A 
HETATM   22  N   UNL     1      42.961 -16.858   7.078  1.00  0.00    -0.361 N 
HETATM   23  C   UNL     1      43.372 -17.459   8.236  1.00  0.00     0.088 A 
HETATM   24  H   UNL     1      42.511 -15.953   7.003  1.00  0.00     0.165 HD
HETATM   25  C   UNL     1      43.935 -18.669   7.907  1.00  0.00     0.019 A 
HETATM   26  C   UNL     1      43.860 -18.798   6.497  1.00  0.00     0.036 A 
ENDBRANCH  18  21
ENDBRANCH   1  17
TORSDOF 4
ENDMDL
MODEL 7
REMARK VINA RESULT:      -6.6      7.130     10.175
REMARK  4 active torsions:
REMARK  status: ('A' for Active; 'I' for Inactive)
REMARK    1  A    between atoms: C_5  and  C_6 
REMARK       I    between atoms: C_6  and  N_7 
REMARK    2  A    between atoms: N_7  and  N_8 
REMARK       I    between atoms: N_8  and  C_9 
REMARK    3  A    between atoms: C_9  and  C_10 
REMARK    4  A    between atoms: C_13  and  C_14 
ROOT
HETATM    1  N   UNL     1      41.103 -14.459   0.538  1.00  0.00    -0.263 N 
HETATM    2  C   UNL     1      41.366 -15.813   0.537  1.00  0.00     0.270 C 
HETATM    3  O   UNL     1      41.432 -16.476  -0.496  1.00  0.00    -0.266 OA
HETATM    4  H   UNL     1      41.257 -13.854   1.343  1.00  0.00     0.190 HD
ENDROOT
BRANCH   2   5
HETATM    5  C   UNL     1      41.599 -16.445   1.863  1.00  0.00     0.033 A 
HETATM    6  C   UNL     1      41.175 -15.855   3.055  1.00  0.00     0.017 A 
HETATM    7  C   UNL     1      41.412 -16.498   4.276  1.00  0.00     0.010 A 
HETATM    8  C   UNL     1      42.060 -17.752   4.346  1.00  0.00    -0.035 A 
HETATM    9  C   UNL     1      42.491 -18.316   3.133  1.00  0.00     0.010 A 
HETATM   10  C   UNL     1      42.249 -17.680   1.908  1.00  0.00     0.017 A 
BRANCH   8  11
HETATM   11  C   UNL     1      42.310 -18.374   5.720  1.00  0.00     0.141 C 
HETATM   12  S   UNL     1      43.613 -19.658   5.718  1.00  0.00    -0.149 SA
HETATM   13  C   UNL     1      45.080 -18.611   5.543  1.00  0.00     0.076 C 
HETATM   14  C   UNL     1      45.264 -17.696   6.743  1.00  0.00     0.020 C 
HETATM   15  C   UNL     1      44.197 -16.618   6.849  1.00  0.00     0.076 C 
HETATM   16  S   UNL     1      42.521 -17.257   7.144  1.00  0.00    -0.149 SA
ENDBRANCH   8  11
ENDBRANCH   2   5
BRANCH   1  17
HETATM   17  N   UNL     1      40.985 -13.814  -0.699  1.00  0.00    -0.262 N 
HETATM   18  C   UNL     1      41.796 -12.733  -0.970  1.00  0.00     0.286 C 
HETATM   19  O   UNL     1      42.593 -12.298  -0.138  1.00  0.00    -0.264 OA
HETATM   20  H   UNL     1      40.387 -14.258  -1.390  1.00  0.00     0.190 HD
BRANCH  18  21
HETATM   21  C   UNL     1      41.648 -12.153  -2.286  1.00  0.00     0.102 A 
HETATM   22  N   UNL     1      40.413 -12.057  -2.893  1.00  0.00    -0.361 N 
HETATM   23  C   UNL     1      40.534 -11.487  -4.131  1.00  0.00     0.088 A 
HETATM   24  H   UNL     1      39.551 -12.376  -2.465  1.00  0.00     0.165 HD
HETATM   25  C   UNL     1      41.863 -11.203  -4.336  1.00  0.00     0.019 A 
HETATM   26  C   UNL     1      42.566 -11.621  -3.178  1.00  0.00     0.036 A 
ENDBRANCH  18  21
ENDBRANCH   1  17
TORSDOF 4
ENDMDL
MODEL 8
REMARK VINA RESULT:      -6.6      8.407      9.503
REMARK  4 active torsions:
REMARK  status: ('A' for Active; 'I' for Inactive)
REMARK    1  A    between atoms: C_5  and  C_6 
REMARK       I    between atoms: C_6  and  N_7 
REMARK    2  A    between atoms: N_7  and  N_8 
REMARK       I    between atoms: N_8  and  C_9 
REMARK    3  A    between atoms: C_9  and  C_10 
REMARK    4  A    between atoms: C_13  and  C_14 
ROOT
HETATM    1  N   UNL     1      43.330 -17.173   0.768  1.00  0.00    -0.263 N 
HETATM    2  C   UNL     1      42.002 -16.809   0.678  1.00  0.00     0.270 C 
HETATM    3  O   UNL     1      41.081 -17.601   0.873  1.00  0.00    -0.266 OA
HETATM    4  H   UNL     1      44.095 -16.504   0.829  1.00  0.00     0.190 HD
ENDROOT
BRANCH   2   5
HETATM    5  C   UNL     1      41.725 -15.384   0.356  1.00  0.00     0.033 A 
HETATM    6  C   UNL     1      42.044 -14.345   1.232  1.00  0.00     0.017 A 
HETATM    7  C   UNL     1      41.770 -13.020   0.874  1.00  0.00     0.010 A 
HETATM    8  C   UNL     1      41.187 -12.688  -0.369  1.00  0.00    -0.035 A 
HETATM    9  C   UNL     1      40.861 -13.752  -1.226  1.00  0.00     0.010 A 
HETATM   10  C   UNL     1      41.140 -15.080  -0.876  1.00  0.00     0.017 A 
BRANCH   8  11
HETATM   11  C   UNL     1      40.891 -11.219  -0.672  1.00  0.00     0.141 C 
HETATM   12  S   UNL     1      39.456 -10.974  -1.781  1.00  0.00    -0.149 SA
HETATM   13  C   UNL     1      38.109 -11.368  -0.637  1.00  0.00     0.076 C 
HETATM   14  C   UNL     1      38.041 -10.379   0.515  1.00  0.00     0.020 C 
HETATM   15  C   UNL     1      39.220 -10.482   1.470  1.00  0.00     0.076 C 
HETATM   16  S   UNL     1      40.821 -10.050   0.724  1.00  0.00    -0.149 SA
ENDBRANCH   8  11
ENDBRANCH   2   5
BRANCH   1  17
HETATM   17  N   UNL     1      43.624 -18.480   1.174  1.00  0.00    -0.262 N 
HETATM   18  C   UNL     1      43.961 -18.712   2.491  1.00  0.00     0.286 C 
HETATM   19  O   UNL     1      44.046 -17.794   3.307  1.00  0.00    -0.264 OA
HETATM   20  H   UNL     1      43.451 -19.218   0.497  1.00  0.00     0.190 HD
BRANCH  18  21
HETATM   21  C   UNL     1      44.203 -20.093   2.841  1.00  0.00     0.102 A 
HETATM   22  N   UNL     1      44.599 -20.452   4.113  1.00  0.00    -0.361 N 
HETATM   23  C   UNL     1      44.775 -21.807   4.193  1.00  0.00     0.088 A 
HETATM   24  H   UNL     1      44.739 -19.787   4.865  1.00  0.00     0.165 HD
HETATM   25  C   UNL     1      44.487 -22.342   2.960  1.00  0.00     0.019 A 
HETATM   26  C   UNL     1      44.127 -21.268   2.108  1.00  0.00     0.036 A 
ENDBRANCH  18  21
ENDBRANCH   1  17
TORSDOF 4
ENDMDL
MODEL 9
REMARK VINA RESULT:      -6.5      5.772      9.560
REMARK  4 active torsions:
REMARK  status: ('A' for Active; 'I' for Inactive)
REMARK    1  A    between atoms: C_5  and  C_6 
REMARK       I    between atoms: C_6  and  N_7 
REMARK    2  A    between atoms: N_7  and  N_8 
REMARK       I    between atoms: N_8  and  C_9 
REMARK    3  A    between atoms: C_9  and  C_10 
REMARK    4  A    between atoms: C_13  and  C_14 
ROOT
HETATM    1  N   UNL     1      41.217 -11.397   8.113  1.00  0.00    -0.263 N 
HETATM    2  C   UNL     1      39.916 -11.463   7.658  1.00  0.00     0.270 C 
HETATM    3  O   UNL     1      38.951 -11.170   8.362  1.00  0.00    -0.266 OA
HETATM    4  H   UNL     1      42.031 -11.419   7.501  1.00  0.00     0.190 HD
ENDROOT
BRANCH   2   5
HETATM    5  C   UNL     1      39.728 -11.885   6.245  1.00  0.00     0.033 A 
HETATM    6  C   UNL     1      39.346 -10.989   5.244  1.00  0.00     0.017 A 
HETATM    7  C   UNL     1      39.192 -11.439   3.927  1.00  0.00     0.010 A 
HETATM    8  C   UNL     1      39.429 -12.783   3.564  1.00  0.00    -0.035 A 
HETATM    9  C   UNL     1      39.796 -13.667   4.592  1.00  0.00     0.010 A 
HETATM   10  C   UNL     1      39.959 -13.222   5.911  1.00  0.00     0.017 A 
BRANCH   8  11
HETATM   11  C   UNL     1      39.209 -13.202   2.110  1.00  0.00     0.141 C 
HETATM   12  S   UNL     1      40.390 -12.439   0.940  1.00  0.00    -0.149 SA
HETATM   13  C   UNL     1      41.882 -13.381   1.347  1.00  0.00     0.076 C 
HETATM   14  C   UNL     1      41.721 -14.857   1.023  1.00  0.00     0.020 C 
HETATM   15  C   UNL     1      40.722 -15.567   1.923  1.00  0.00     0.076 C 
HETATM   16  S   UNL     1      39.012 -14.977   1.746  1.00  0.00    -0.149 SA
ENDBRANCH   8  11
ENDBRANCH   2   5
BRANCH   1  17
HETATM   17  N   UNL     1      41.435 -10.901   9.404  1.00  0.00    -0.262 N 
HETATM   18  C   UNL     1      42.711 -10.533   9.773  1.00  0.00     0.286 C 
HETATM   19  O   UNL     1      43.668 -10.664   9.009  1.00  0.00    -0.264 OA
HETATM   20  H   UNL     1      40.610 -10.720   9.968  1.00  0.00     0.190 HD
BRANCH  18  21
HETATM   21  C   UNL     1      42.845  -9.985  11.104  1.00  0.00     0.102 A 
HETATM   22  N   UNL     1      42.139  -8.867  11.494  1.00  0.00    -0.361 N 
HETATM   23  C   UNL     1      42.444  -8.538  12.787  1.00  0.00     0.088 A 
HETATM   24  H   UNL     1      41.494  -8.371  10.890  1.00  0.00     0.165 HD
HETATM   25  C   UNL     1      43.358  -9.454  13.251  1.00  0.00     0.019 A 
HETATM   26  C   UNL     1      43.612 -10.365  12.195  1.00  0.00     0.036 A 
ENDBRANCH  18  21
ENDBRANCH   1  17
TORSDOF 4
ENDMDL
MODEL 10
REMARK VINA RESULT:      -6.4      3.574      4.309
REMARK  4 active torsions:
REMARK  status: ('A' for Active; 'I' for Inactive)
REMARK    1  A    between atoms: C_5  and  C_6 
REMARK       I    between atoms: C_6  and  N_7 
REMARK    2  A    between atoms: N_7  and  N_8 
REMARK       I    between atoms: N_8  and  C_9 
REMARK    3  A    between atoms: C_9  and  C_10 
REMARK    4  A    between atoms: C_13  and  C_14 
ROOT
HETATM    1  N   UNL     1      40.497 -13.086   6.616  1.00  0.00    -0.263 N 
HETATM    2  C   UNL     1      39.774 -11.921   6.766  1.00  0.00     0.270 C 
HETATM    3  O   UNL     1      38.919 -11.561   5.958  1.00  0.00    -0.266 OA
HETATM    4  H   UNL     1      41.041 -13.513   7.364  1.00  0.00     0.190 HD
ENDROOT
BRANCH   2   5
HETATM    5  C   UNL     1      40.056 -11.117   7.984  1.00  0.00     0.033 A 
HETATM    6  C   UNL     1      39.091 -10.885   8.966  1.00  0.00     0.017 A 
HETATM    7  C   UNL     1      39.414 -10.127  10.098  1.00  0.00     0.010 A 
HETATM    8  C   UNL     1      40.707  -9.595  10.296  1.00  0.00    -0.035 A 
HETATM    9  C   UNL     1      41.655  -9.829   9.287  1.00  0.00     0.010 A 
HETATM   10  C   UNL     1      41.340 -10.593   8.155  1.00  0.00     0.017 A 
BRANCH   8  11
HETATM   11  C   UNL     1      40.972  -8.752  11.545  1.00  0.00     0.141 C 
HETATM   12  S   UNL     1      40.111  -9.363  13.038  1.00  0.00    -0.149 SA
HETATM   13  C   UNL     1      41.111 -10.830  13.395  1.00  0.00     0.076 C 
HETATM   14  C   UNL     1      42.544 -10.463  13.744  1.00  0.00     0.020 C 
HETATM   15  C   UNL     1      43.328  -9.904  12.567  1.00  0.00     0.076 C 
HETATM   16  S   UNL     1      42.698  -8.319  11.939  1.00  0.00    -0.149 SA
ENDBRANCH   8  11
ENDBRANCH   2   5
BRANCH   1  17
HETATM   17  N   UNL     1      40.180 -13.920   5.537  1.00  0.00    -0.262 N 
HETATM   18  C   UNL     1      41.196 -14.388   4.732  1.00  0.00     0.286 C 
HETATM   19  O   UNL     1      42.369 -14.060   4.915  1.00  0.00    -0.264 OA
HETATM   20  H   UNL     1      39.218 -14.241   5.477  1.00  0.00     0.190 HD
BRANCH  18  21
HETATM   21  C   UNL     1      40.792 -15.281   3.669  1.00  0.00     0.102 A 
HETATM   22  N   UNL     1      39.646 -15.053   2.937  1.00  0.00    -0.361 N 
HETATM   23  C   UNL     1      39.473 -16.039   2.003  1.00  0.00     0.088 A 
HETATM   24  H   UNL     1      39.030 -14.263   3.090  1.00  0.00     0.165 HD
HETATM   25  C   UNL     1      40.521 -16.921   2.123  1.00  0.00     0.019 A 
HETATM   26  C   UNL     1      41.351 -16.447   3.170  1.00  0.00     0.036 A 
ENDBRANCH  18  21
ENDBRANCH   1  17
TORSDOF 4
ENDMDL
