MODEL 1
REMARK VINA RESULT:      -8.5      0.000      0.000
REMARK  2 active torsions:
REMARK  status: ('A' for Active; 'I' for Inactive)
REMARK    1  A    between atoms: N_9  and  N_11 
REMARK       I    between atoms: N_11  and  C_12 
REMARK    2  A    between atoms: C_12  and  C_13 
ROOT
HETATM    1  C   UNL     1      42.903 -14.664   2.719  1.00  0.00     0.033 C 
HETATM    2  C   UNL     1      41.404 -14.389   2.871  1.00  0.00     0.086 C 
HETATM    3  N   UNL     1      40.936 -13.218   2.078  1.00  0.00    -0.379 N 
HETATM    4  C   UNL     1      40.862 -11.961   2.832  1.00  0.00     0.150 C 
HETATM    5  C   UNL     1      41.372 -13.125   0.737  1.00  0.00     0.052 A 
HETATM    6  C   UNL     1      40.987 -14.107  -0.218  1.00  0.00     0.040 A 
HETATM    7  N   UNL     1      40.140 -15.203   0.171  1.00  0.00    -0.246 NA
HETATM    8  C   UNL     1      40.631 -16.058   1.210  1.00  0.00     0.077 C 
HETATM    9  N   UNL     1      41.169 -17.196   0.808  1.00  0.00    -0.291 N 
HETATM   10  H   UNL     1      41.163 -17.323  -0.212  1.00  0.00     0.188 HD
HETATM   11  C   UNL     1      40.536 -15.630   2.617  1.00  0.00     0.096 C 
HETATM   12  C   UNL     1      42.164 -12.065   0.270  1.00  0.00     0.031 A 
HETATM   13  C   UNL     1      42.573 -11.989  -1.067  1.00  0.00     0.002 A 
HETATM   14  C   UNL     1      42.192 -12.971  -1.977  1.00  0.00     0.002 A 
HETATM   15  C   UNL     1      41.400 -14.033  -1.553  1.00  0.00     0.026 A 
HETATM   16  H   UNL     1      39.386 -14.657   0.611  1.00  0.00     0.135 HD
ENDROOT
BRANCH   9  17
HETATM   17  N   UNL     1      41.700 -18.152   1.553  1.00  0.00    -0.265 N 
HETATM   18  C   UNL     1      43.077 -18.300   1.503  1.00  0.00     0.270 C 
HETATM   19  O   UNL     1      43.793 -17.565   0.830  1.00  0.00    -0.266 OA
HETATM   20  H   UNL     1      41.125 -18.695   2.183  1.00  0.00     0.190 HD
BRANCH  18  21
HETATM   21  C   UNL     1      43.654 -19.382   2.344  1.00  0.00     0.033 A 
HETATM   22  C   UNL     1      44.130 -19.147   3.642  1.00  0.00     0.017 A 
HETATM   23  C   UNL     1      44.671 -20.198   4.387  1.00  0.00     0.001 A 
HETATM   24  C   UNL     1      44.728 -21.482   3.847  1.00  0.00     0.000 A 
HETATM   25  C   UNL     1      44.237 -21.724   2.565  1.00  0.00     0.001 A 
HETATM   26  C   UNL     1      43.696 -20.679   1.815  1.00  0.00     0.017 A 
ENDBRANCH  18  21
ENDBRANCH   9  17
TORSDOF 2
ENDMDL
MODEL 2
REMARK VINA RESULT:      -8.1      2.214      7.373
REMARK  2 active torsions:
REMARK  status: ('A' for Active; 'I' for Inactive)
REMARK    1  A    between atoms: N_9  and  N_11 
REMARK       I    between atoms: N_11  and  C_12 
REMARK    2  A    between atoms: C_12  and  C_13 
ROOT
HETATM    1  C   UNL     1      42.047 -18.242   5.089  1.00  0.00     0.033 C 
HETATM    2  C   UNL     1      43.382 -17.534   4.840  1.00  0.00     0.086 C 
HETATM    3  N   UNL     1      44.564 -18.414   5.056  1.00  0.00    -0.379 N 
HETATM    4  C   UNL     1      45.178 -18.295   6.384  1.00  0.00     0.150 C 
HETATM    5  C   UNL     1      44.522 -19.710   4.493  1.00  0.00     0.052 A 
HETATM    6  C   UNL     1      44.472 -19.884   3.082  1.00  0.00     0.040 A 
HETATM    7  N   UNL     1      44.472 -18.739   2.210  1.00  0.00    -0.246 NA
HETATM    8  C   UNL     1      43.398 -17.805   2.376  1.00  0.00     0.077 C 
HETATM    9  N   UNL     1      42.408 -17.911   1.508  1.00  0.00    -0.291 N 
HETATM   10  H   UNL     1      42.539 -18.660   0.815  1.00  0.00     0.188 HD
HETATM   11  C   UNL     1      43.442 -16.827   3.478  1.00  0.00     0.096 C 
HETATM   12  C   UNL     1      44.562 -20.876   5.274  1.00  0.00     0.031 A 
HETATM   13  C   UNL     1      44.532 -22.148   4.691  1.00  0.00     0.002 A 
HETATM   14  C   UNL     1      44.469 -22.289   3.308  1.00  0.00     0.002 A 
HETATM   15  C   UNL     1      44.437 -21.156   2.501  1.00  0.00     0.026 A 
HETATM   16  H   UNL     1      45.300 -18.263   2.594  1.00  0.00     0.135 HD
ENDROOT
BRANCH   9  17
HETATM   17  N   UNL     1      41.304 -17.186   1.442  1.00  0.00    -0.265 N 
HETATM   18  C   UNL     1      41.356 -16.023   0.690  1.00  0.00     0.270 C 
HETATM   19  O   UNL     1      42.363 -15.682   0.077  1.00  0.00    -0.266 OA
HETATM   20  H   UNL     1      40.445 -17.513   1.864  1.00  0.00     0.190 HD
BRANCH  18  21
HETATM   21  C   UNL     1      40.106 -15.219   0.632  1.00  0.00     0.033 A 
HETATM   22  C   UNL     1      39.163 -15.228   1.670  1.00  0.00     0.017 A 
HETATM   23  C   UNL     1      38.001 -14.460   1.562  1.00  0.00     0.001 A 
HETATM   24  C   UNL     1      37.781 -13.679   0.429  1.00  0.00     0.000 A 
HETATM   25  C   UNL     1      38.725 -13.652  -0.597  1.00  0.00     0.001 A 
HETATM   26  C   UNL     1      39.888 -14.416  -0.495  1.00  0.00     0.017 A 
ENDBRANCH  18  21
ENDBRANCH   9  17
TORSDOF 2
ENDMDL
MODEL 3
REMARK VINA RESULT:      -8.1      2.142      3.571
REMARK  2 active torsions:
REMARK  status: ('A' for Active; 'I' for Inactive)
REMARK    1  A    between atoms: N_9  and  N_11 
REMARK       I    between atoms: N_11  and  C_12 
REMARK    2  A    between atoms: C_12  and  C_13 
ROOT
HETATM    1  C   UNL     1      40.073 -16.297   2.400  1.00  0.00     0.033 C 
HETATM    2  C   UNL     1      40.475 -15.325   1.287  1.00  0.00     0.086 C 
HETATM    3  N   UNL     1      40.130 -13.908   1.590  1.00  0.00    -0.379 N 
HETATM    4  C   UNL     1      38.858 -13.453   1.014  1.00  0.00     0.150 C 
HETATM    5  C   UNL     1      40.449 -13.421   2.877  1.00  0.00     0.052 A 
HETATM    6  C   UNL     1      41.804 -13.331   3.301  1.00  0.00     0.040 A 
HETATM    7  N   UNL     1      42.868 -13.727   2.415  1.00  0.00    -0.246 NA
HETATM    8  C   UNL     1      42.849 -15.083   1.955  1.00  0.00     0.077 C 
HETATM    9  N   UNL     1      43.663 -15.912   2.585  1.00  0.00    -0.291 N 
HETATM   10  H   UNL     1      44.212 -15.470   3.333  1.00  0.00     0.188 HD
HETATM   11  C   UNL     1      41.943 -15.473   0.861  1.00  0.00     0.096 C 
HETATM   12  C   UNL     1      39.473 -12.976   3.782  1.00  0.00     0.031 A 
HETATM   13  C   UNL     1      39.817 -12.486   5.048  1.00  0.00     0.002 A 
HETATM   14  C   UNL     1      41.150 -12.422   5.441  1.00  0.00     0.002 A 
HETATM   15  C   UNL     1      42.146 -12.846   4.568  1.00  0.00     0.026 A 
HETATM   16  H   UNL     1      42.594 -13.165   1.597  1.00  0.00     0.135 HD
ENDROOT
BRANCH   9  17
HETATM   17  N   UNL     1      43.834 -17.205   2.366  1.00  0.00    -0.265 N 
HETATM   18  C   UNL     1      43.803 -18.042   3.470  1.00  0.00     0.270 C 
HETATM   19  O   UNL     1      43.594 -17.625   4.605  1.00  0.00    -0.266 OA
HETATM   20  H   UNL     1      43.909 -17.564   1.424  1.00  0.00     0.190 HD
BRANCH  18  21
HETATM   21  C   UNL     1      44.002 -19.492   3.204  1.00  0.00     0.033 A 
HETATM   22  C   UNL     1      43.623 -20.088   1.993  1.00  0.00     0.017 A 
HETATM   23  C   UNL     1      43.824 -21.457   1.797  1.00  0.00     0.001 A 
HETATM   24  C   UNL     1      44.410 -22.229   2.799  1.00  0.00     0.000 A 
HETATM   25  C   UNL     1      44.806 -21.636   3.997  1.00  0.00     0.001 A 
HETATM   26  C   UNL     1      44.608 -20.269   4.199  1.00  0.00     0.017 A 
ENDBRANCH  18  21
ENDBRANCH   9  17
TORSDOF 2
ENDMDL
MODEL 4
REMARK VINA RESULT:      -8.1      4.495      6.890
REMARK  2 active torsions:
REMARK  status: ('A' for Active; 'I' for Inactive)
REMARK    1  A    between atoms: N_9  and  N_11 
REMARK       I    between atoms: N_11  and  C_12 
REMARK    2  A    between atoms: C_12  and  C_13 
ROOT
HETATM    1  C   UNL     1      43.625 -14.014   3.273  1.00  0.00     0.033 C 
HETATM    2  C   UNL     1      42.101 -14.149   3.198  1.00  0.00     0.086 C 
HETATM    3  N   UNL     1      41.650 -15.252   2.304  1.00  0.00    -0.379 N 
HETATM    4  C   UNL     1      41.305 -14.830   0.941  1.00  0.00     0.150 C 
HETATM    5  C   UNL     1      42.301 -16.500   2.433  1.00  0.00     0.052 A 
HETATM    6  C   UNL     1      42.202 -17.246   3.640  1.00  0.00     0.040 A 
HETATM    7  N   UNL     1      41.428 -16.740   4.743  1.00  0.00    -0.246 NA
HETATM    8  C   UNL     1      41.823 -15.470   5.276  1.00  0.00     0.077 C 
HETATM    9  N   UNL     1      42.547 -15.514   6.381  1.00  0.00    -0.291 N 
HETATM   10  H   UNL     1      42.734 -16.466   6.720  1.00  0.00     0.188 HD
HETATM   11  C   UNL     1      41.436 -14.231   4.580  1.00  0.00     0.096 C 
HETATM   12  C   UNL     1      43.038 -17.081   1.389  1.00  0.00     0.031 A 
HETATM   13  C   UNL     1      43.663 -18.325   1.538  1.00  0.00     0.002 A 
HETATM   14  C   UNL     1      43.560 -19.027   2.736  1.00  0.00     0.002 A 
HETATM   15  C   UNL     1      42.831 -18.487   3.790  1.00  0.00     0.026 A 
HETATM   16  H   UNL     1      40.552 -16.553   4.235  1.00  0.00     0.135 HD
ENDROOT
BRANCH   9  17
HETATM   17  N   UNL     1      43.043 -14.498   7.068  1.00  0.00    -0.265 N 
HETATM   18  C   UNL     1      44.424 -14.401   7.143  1.00  0.00     0.270 C 
HETATM   19  O   UNL     1      45.170 -15.194   6.576  1.00  0.00    -0.266 OA
HETATM   20  H   UNL     1      42.435 -13.789   7.453  1.00  0.00     0.190 HD
BRANCH  18  21
HETATM   21  C   UNL     1      44.962 -13.255   7.923  1.00  0.00     0.033 A 
HETATM   22  C   UNL     1      44.257 -12.681   8.991  1.00  0.00     0.017 A 
HETATM   23  C   UNL     1      44.805 -11.600   9.686  1.00  0.00     0.001 A 
HETATM   24  C   UNL     1      46.055 -11.098   9.327  1.00  0.00     0.000 A 
HETATM   25  C   UNL     1      46.768 -11.679   8.280  1.00  0.00     0.001 A 
HETATM   26  C   UNL     1      46.227 -12.759   7.581  1.00  0.00     0.017 A 
ENDBRANCH  18  21
ENDBRANCH   9  17
TORSDOF 2
ENDMDL
MODEL 5
REMARK VINA RESULT:      -8.0      1.918      2.189
REMARK  2 active torsions:
REMARK  status: ('A' for Active; 'I' for Inactive)
REMARK    1  A    between atoms: N_9  and  N_11 
REMARK       I    between atoms: N_11  and  C_12 
REMARK    2  A    between atoms: C_12  and  C_13 
ROOT
HETATM    1  C   UNL     1      41.779 -13.529   1.687  1.00  0.00     0.033 C 
HETATM    2  C   UNL     1      40.549 -13.038   2.455  1.00  0.00     0.086 C 
HETATM    3  N   UNL     1      39.679 -12.130   1.657  1.00  0.00    -0.379 N 
HETATM    4  C   UNL     1      39.924 -10.700   1.880  1.00  0.00     0.150 C 
HETATM    5  C   UNL     1      39.374 -12.520   0.333  1.00  0.00     0.052 A 
HETATM    6  C   UNL     1      38.616 -13.697   0.082  1.00  0.00     0.040 A 
HETATM    7  N   UNL     1      38.144 -14.502   1.178  1.00  0.00    -0.246 NA
HETATM    8  C   UNL     1      39.140 -15.039   2.057  1.00  0.00     0.077 C 
HETATM    9  N   UNL     1      39.465 -16.302   1.849  1.00  0.00    -0.291 N 
HETATM   10  H   UNL     1      38.954 -16.743   1.074  1.00  0.00     0.188 HD
HETATM   11  C   UNL     1      39.743 -14.180   3.092  1.00  0.00     0.096 C 
HETATM   12  C   UNL     1      39.761 -11.766  -0.786  1.00  0.00     0.031 A 
HETATM   13  C   UNL     1      39.435 -12.167  -2.087  1.00  0.00     0.002 A 
HETATM   14  C   UNL     1      38.704 -13.332  -2.304  1.00  0.00     0.002 A 
HETATM   15  C   UNL     1      38.295 -14.100  -1.219  1.00  0.00     0.026 A 
HETATM   16  H   UNL     1      37.685 -13.757   1.720  1.00  0.00     0.135 HD
ENDROOT
BRANCH   9  17
HETATM   17  N   UNL     1      40.352 -17.031   2.506  1.00  0.00    -0.265 N 
HETATM   18  C   UNL     1      41.511 -17.378   1.829  1.00  0.00     0.270 C 
HETATM   19  O   UNL     1      41.737 -17.006   0.681  1.00  0.00    -0.266 OA
HETATM   20  H   UNL     1      40.215 -17.257   3.482  1.00  0.00     0.190 HD
BRANCH  18  21
HETATM   21  C   UNL     1      42.493 -18.202   2.582  1.00  0.00     0.033 A 
HETATM   22  C   UNL     1      42.668 -18.074   3.968  1.00  0.00     0.017 A 
HETATM   23  C   UNL     1      43.611 -18.867   4.627  1.00  0.00     0.001 A 
HETATM   24  C   UNL     1      44.372 -19.790   3.912  1.00  0.00     0.000 A 
HETATM   25  C   UNL     1      44.187 -19.934   2.537  1.00  0.00     0.001 A 
HETATM   26  C   UNL     1      43.247 -19.146   1.873  1.00  0.00     0.017 A 
ENDBRANCH  18  21
ENDBRANCH   9  17
TORSDOF 2
ENDMDL
MODEL 6
REMARK VINA RESULT:      -7.9      2.119      6.911
REMARK  2 active torsions:
REMARK  status: ('A' for Active; 'I' for Inactive)
REMARK    1  A    between atoms: N_9  and  N_11 
REMARK       I    between atoms: N_11  and  C_12 
REMARK    2  A    between atoms: C_12  and  C_13 
ROOT
HETATM    1  C   UNL     1      43.957 -17.018   1.704  1.00  0.00     0.033 C 
HETATM    2  C   UNL     1      43.076 -18.257   1.889  1.00  0.00     0.086 C 
HETATM    3  N   UNL     1      43.093 -18.791   3.279  1.00  0.00    -0.379 N 
HETATM    4  C   UNL     1      44.038 -19.892   3.498  1.00  0.00     0.150 C 
HETATM    5  C   UNL     1      42.951 -17.861   4.334  1.00  0.00     0.052 A 
HETATM    6  C   UNL     1      41.750 -17.114   4.484  1.00  0.00     0.040 A 
HETATM    7  N   UNL     1      40.659 -17.305   3.565  1.00  0.00    -0.246 NA
HETATM    8  C   UNL     1      40.932 -17.048   2.182  1.00  0.00     0.077 C 
HETATM    9  N   UNL     1      40.527 -15.875   1.727  1.00  0.00    -0.291 N 
HETATM   10  H   UNL     1      40.062 -15.292   2.434  1.00  0.00     0.188 HD
HETATM   11  C   UNL     1      41.642 -18.057   1.376  1.00  0.00     0.096 C 
HETATM   12  C   UNL     1      43.952 -17.649   5.296  1.00  0.00     0.031 A 
HETATM   13  C   UNL     1      43.782 -16.731   6.340  1.00  0.00     0.002 A 
HETATM   14  C   UNL     1      42.601 -16.004   6.453  1.00  0.00     0.002 A 
HETATM   15  C   UNL     1      41.583 -16.193   5.524  1.00  0.00     0.026 A 
HETATM   16  H   UNL     1      40.586 -18.329   3.635  1.00  0.00     0.135 HD
ENDROOT
BRANCH   9  17
HETATM   17  N   UNL     1      40.659 -15.389   0.504  1.00  0.00    -0.265 N 
HETATM   18  C   UNL     1      41.507 -14.304   0.344  1.00  0.00     0.270 C 
HETATM   19  O   UNL     1      42.143 -13.824   1.278  1.00  0.00    -0.266 OA
HETATM   20  H   UNL     1      40.214 -15.841  -0.283  1.00  0.00     0.190 HD
BRANCH  18  21
HETATM   21  C   UNL     1      41.639 -13.769  -1.037  1.00  0.00     0.033 A 
HETATM   22  C   UNL     1      42.372 -12.608  -1.322  1.00  0.00     0.017 A 
HETATM   23  C   UNL     1      42.458 -12.143  -2.637  1.00  0.00     0.001 A 
HETATM   24  C   UNL     1      41.823 -12.836  -3.667  1.00  0.00     0.000 A 
HETATM   25  C   UNL     1      41.110 -14.001  -3.390  1.00  0.00     0.001 A 
HETATM   26  C   UNL     1      41.021 -14.471  -2.080  1.00  0.00     0.017 A 
ENDBRANCH  18  21
ENDBRANCH   9  17
TORSDOF 2
ENDMDL
MODEL 7
REMARK VINA RESULT:      -7.7      2.746      7.134
REMARK  2 active torsions:
REMARK  status: ('A' for Active; 'I' for Inactive)
REMARK    1  A    between atoms: N_9  and  N_11 
REMARK       I    between atoms: N_11  and  C_12 
REMARK    2  A    between atoms: C_12  and  C_13 
ROOT
HETATM    1  C   UNL     1      40.354 -15.771   2.809  1.00  0.00     0.033 C 
HETATM    2  C   UNL     1      41.619 -14.912   2.738  1.00  0.00     0.086 C 
HETATM    3  N   UNL     1      42.789 -15.527   3.425  1.00  0.00    -0.379 N 
HETATM    4  C   UNL     1      43.002 -15.062   4.800  1.00  0.00     0.150 C 
HETATM    5  C   UNL     1      43.045 -16.894   3.174  1.00  0.00     0.052 A 
HETATM    6  C   UNL     1      43.399 -17.335   1.869  1.00  0.00     0.040 A 
HETATM    7  N   UNL     1      43.509 -16.390   0.789  1.00  0.00    -0.246 NA
HETATM    8  C   UNL     1      42.334 -15.632   0.476  1.00  0.00     0.077 C 
HETATM    9  N   UNL     1      41.635 -16.062  -0.559  1.00  0.00    -0.291 N 
HETATM   10  H   UNL     1      42.031 -16.894  -1.014  1.00  0.00     0.188 HD
HETATM   11  C   UNL     1      41.968 -14.472   1.308  1.00  0.00     0.096 C 
HETATM   12  C   UNL     1      43.001 -17.870   4.181  1.00  0.00     0.031 A 
HETATM   13  C   UNL     1      43.272 -19.216   3.909  1.00  0.00     0.002 A 
HETATM   14  C   UNL     1      43.602 -19.622   2.619  1.00  0.00     0.002 A 
HETATM   15  C   UNL     1      43.665 -18.682   1.597  1.00  0.00     0.026 A 
HETATM   16  H   UNL     1      44.143 -15.719   1.245  1.00  0.00     0.135 HD
ENDROOT
BRANCH   9  17
HETATM   17  N   UNL     1      40.516 -15.555  -1.051  1.00  0.00    -0.265 N 
HETATM   18  C   UNL     1      40.470 -15.336  -2.419  1.00  0.00     0.270 C 
HETATM   19  O   UNL     1      41.403 -15.625  -3.162  1.00  0.00    -0.266 OA
HETATM   20  H   UNL     1      39.711 -15.407  -0.457  1.00  0.00     0.190 HD
BRANCH  18  21
HETATM   21  C   UNL     1      39.206 -14.761  -2.952  1.00  0.00     0.033 A 
HETATM   22  C   UNL     1      38.342 -15.494  -3.778  1.00  0.00     0.017 A 
HETATM   23  C   UNL     1      37.170 -14.905  -4.259  1.00  0.00     0.001 A 
HETATM   24  C   UNL     1      36.854 -13.592  -3.911  1.00  0.00     0.000 A 
HETATM   25  C   UNL     1      37.700 -12.867  -3.073  1.00  0.00     0.001 A 
HETATM   26  C   UNL     1      38.872 -13.450  -2.589  1.00  0.00     0.017 A 
ENDBRANCH  18  21
ENDBRANCH   9  17
TORSDOF 2
ENDMDL
MODEL 8
REMARK VINA RESULT:      -7.2      2.767      6.724
REMARK  2 active torsions:
REMARK  status: ('A' for Active; 'I' for Inactive)
REMARK    1  A    between atoms: N_9  and  N_11 
REMARK       I    between atoms: N_11  and  C_12 
REMARK    2  A    between atoms: C_12  and  C_13 
ROOT
HETATM    1  C   UNL     1      43.572 -16.981   2.973  1.00  0.00     0.033 C 
HETATM    2  C   UNL     1      42.421 -17.556   3.804  1.00  0.00     0.086 C 
HETATM    3  N   UNL     1      42.647 -17.455   5.273  1.00  0.00    -0.379 N 
HETATM    4  C   UNL     1      43.201 -18.668   5.889  1.00  0.00     0.150 C 
HETATM    5  C   UNL     1      43.117 -16.221   5.776  1.00  0.00     0.052 A 
HETATM    6  C   UNL     1      42.318 -15.048   5.675  1.00  0.00     0.040 A 
HETATM    7  N   UNL     1      41.015 -15.109   5.066  1.00  0.00    -0.246 NA
HETATM    8  C   UNL     1      40.963 -15.554   3.705  1.00  0.00     0.077 C 
HETATM    9  N   UNL     1      40.855 -14.602   2.796  1.00  0.00    -0.291 N 
HETATM   10  H   UNL     1      40.822 -13.652   3.188  1.00  0.00     0.188 HD
HETATM   11  C   UNL     1      41.050 -16.994   3.402  1.00  0.00     0.096 C 
HETATM   12  C   UNL     1      44.356 -16.088   6.421  1.00  0.00     0.031 A 
HETATM   13  C   UNL     1      44.793 -14.856   6.923  1.00  0.00     0.002 A 
HETATM   14  C   UNL     1      43.996 -13.722   6.797  1.00  0.00     0.002 A 
HETATM   15  C   UNL     1      42.757 -13.816   6.172  1.00  0.00     0.026 A 
HETATM   16  H   UNL     1      40.632 -15.891   5.616  1.00  0.00     0.135 HD
ENDROOT
BRANCH   9  17
HETATM   17  N   UNL     1      40.795 -14.737   1.481  1.00  0.00    -0.265 N 
HETATM   18  C   UNL     1      41.639 -13.940   0.725  1.00  0.00     0.270 C 
HETATM   19  O   UNL     1      42.439 -13.161   1.235  1.00  0.00    -0.266 OA
HETATM   20  H   UNL     1      40.209 -15.446   1.061  1.00  0.00     0.190 HD
BRANCH  18  21
HETATM   21  C   UNL     1      41.553 -14.103  -0.751  1.00  0.00     0.033 A 
HETATM   22  C   UNL     1      40.970 -15.231  -1.345  1.00  0.00     0.017 A 
HETATM   23  C   UNL     1      40.922 -15.340  -2.737  1.00  0.00     0.001 A 
HETATM   24  C   UNL     1      41.444 -14.324  -3.536  1.00  0.00     0.000 A 
HETATM   25  C   UNL     1      42.007 -13.191  -2.949  1.00  0.00     0.001 A 
HETATM   26  C   UNL     1      42.057 -13.077  -1.560  1.00  0.00     0.017 A 
ENDBRANCH  18  21
ENDBRANCH   9  17
TORSDOF 2
ENDMDL
MODEL 9
REMARK VINA RESULT:      -7.1      7.351      9.801
REMARK  2 active torsions:
REMARK  status: ('A' for Active; 'I' for Inactive)
REMARK    1  A    between atoms: N_9  and  N_11 
REMARK       I    between atoms: N_11  and  C_12 
REMARK    2  A    between atoms: C_12  and  C_13 
ROOT
HETATM    1  C   UNL     1      39.989 -11.309   9.413  1.00  0.00     0.033 C 
HETATM    2  C   UNL     1      40.522  -9.922   9.043  1.00  0.00     0.086 C 
HETATM    3  N   UNL     1      40.691  -9.023  10.219  1.00  0.00    -0.379 N 
HETATM    4  C   UNL     1      39.564  -8.113  10.458  1.00  0.00     0.150 C 
HETATM    5  C   UNL     1      41.322  -9.561  11.363  1.00  0.00     0.052 A 
HETATM    6  C   UNL     1      42.680  -9.981  11.310  1.00  0.00     0.040 A 
HETATM    7  N   UNL     1      43.430  -9.854  10.088  1.00  0.00    -0.246 NA
HETATM    8  C   UNL     1      42.918 -10.548   8.945  1.00  0.00     0.077 C 
HETATM    9  N   UNL     1      43.504 -11.699   8.664  1.00  0.00    -0.291 N 
HETATM   10  H   UNL     1      44.262 -11.949   9.311  1.00  0.00     0.188 HD
HETATM   11  C   UNL     1      41.793  -9.976   8.183  1.00  0.00     0.096 C 
HETATM   12  C   UNL     1      40.672  -9.677  12.602  1.00  0.00     0.031 A 
HETATM   13  C   UNL     1      41.324 -10.202  13.725  1.00  0.00     0.002 A 
HETATM   14  C   UNL     1      42.649 -10.618  13.639  1.00  0.00     0.002 A 
HETATM   15  C   UNL     1      43.329 -10.510  12.431  1.00  0.00     0.026 A 
HETATM   16  H   UNL     1      43.240  -8.859   9.902  1.00  0.00     0.135 HD
ENDROOT
BRANCH   9  17
HETATM   17  N   UNL     1      43.223 -12.534   7.678  1.00  0.00    -0.265 N 
HETATM   18  C   UNL     1      44.176 -13.492   7.371  1.00  0.00     0.270 C 
HETATM   19  O   UNL     1      45.226 -13.598   7.997  1.00  0.00    -0.266 OA
HETATM   20  H   UNL     1      42.319 -12.513   7.225  1.00  0.00     0.190 HD
BRANCH  18  21
HETATM   21  C   UNL     1      43.843 -14.419   6.257  1.00  0.00     0.033 A 
HETATM   22  C   UNL     1      43.535 -13.959   4.968  1.00  0.00     0.017 A 
HETATM   23  C   UNL     1      43.222 -14.872   3.959  1.00  0.00     0.001 A 
HETATM   24  C   UNL     1      43.224 -16.240   4.227  1.00  0.00     0.000 A 
HETATM   25  C   UNL     1      43.549 -16.703   5.501  1.00  0.00     0.001 A 
HETATM   26  C   UNL     1      43.864 -15.796   6.514  1.00  0.00     0.017 A 
ENDBRANCH  18  21
ENDBRANCH   9  17
TORSDOF 2
ENDMDL
MODEL 10
REMARK VINA RESULT:      -7.1      2.886      7.223
REMARK  2 active torsions:
REMARK  status: ('A' for Active; 'I' for Inactive)
REMARK    1  A    between atoms: N_9  and  N_11 
REMARK       I    between atoms: N_11  and  C_12 
REMARK    2  A    between atoms: C_12  and  C_13 
ROOT
HETATM    1  C   UNL     1      41.338 -15.572   5.885  1.00  0.00     0.033 C 
HETATM    2  C   UNL     1      42.704 -15.027   5.460  1.00  0.00     0.086 C 
HETATM    3  N   UNL     1      43.846 -15.707   6.132  1.00  0.00    -0.379 N 
HETATM    4  C   UNL     1      44.357 -15.010   7.319  1.00  0.00     0.150 C 
HETATM    5  C   UNL     1      43.819 -17.119   6.191  1.00  0.00     0.052 A 
HETATM    6  C   UNL     1      43.874 -17.893   5.000  1.00  0.00     0.040 A 
HETATM    7  N   UNL     1      43.969 -17.245   3.718  1.00  0.00    -0.246 NA
HETATM    8  C   UNL     1      42.907 -16.348   3.372  1.00  0.00     0.077 C 
HETATM    9  N   UNL     1      41.986 -16.837   2.561  1.00  0.00    -0.291 N 
HETATM   10  H   UNL     1      42.153 -17.811   2.279  1.00  0.00     0.188 HD
HETATM   11  C   UNL     1      42.887 -14.986   3.935  1.00  0.00     0.096 C 
HETATM   12  C   UNL     1      43.771 -17.825   7.403  1.00  0.00     0.031 A 
HETATM   13  C   UNL     1      43.758 -19.224   7.436  1.00  0.00     0.002 A 
HETATM   14  C   UNL     1      43.799 -19.957   6.253  1.00  0.00     0.002 A 
HETATM   15  C   UNL     1      43.856 -19.292   5.033  1.00  0.00     0.026 A 
HETATM   16  H   UNL     1      44.775 -16.638   3.920  1.00  0.00     0.135 HD
ENDROOT
BRANCH   9  17
HETATM   17  N   UNL     1      40.907 -16.229   2.097  1.00  0.00    -0.265 N 
HETATM   18  C   UNL     1      41.060 -15.451   0.960  1.00  0.00     0.270 C 
HETATM   19  O   UNL     1      42.135 -15.346   0.376  1.00  0.00    -0.266 OA
HETATM   20  H   UNL     1      40.001 -16.390   2.517  1.00  0.00     0.190 HD
BRANCH  18  21
HETATM   21  C   UNL     1      39.837 -14.772   0.456  1.00  0.00     0.033 A 
HETATM   22  C   UNL     1      39.729 -14.309  -0.864  1.00  0.00     0.017 A 
HETATM   23  C   UNL     1      38.560 -13.671  -1.284  1.00  0.00     0.001 A 
HETATM   24  C   UNL     1      37.497 -13.501  -0.398  1.00  0.00     0.000 A 
HETATM   25  C   UNL     1      37.593 -13.977   0.909  1.00  0.00     0.001 A 
HETATM   26  C   UNL     1      38.758 -14.616   1.335  1.00  0.00     0.017 A 
ENDBRANCH  18  21
ENDBRANCH   9  17
TORSDOF 2
ENDMDL
