MODEL 1
REMARK VINA RESULT:      -8.7      0.000      0.000
REMARK  10 active torsions:
REMARK  status: ('A' for Active; 'I' for Inactive)
REMARK    1  A    between atoms: N_5  and  C_7 
REMARK    2  A    between atoms: C_7  and  C_8 
REMARK    3  A    between atoms: C_8  and  C_9 
REMARK    4  A    between atoms: C_9  and  N_10 
REMARK       I    between atoms: N_10  and  C_11 
REMARK    5  A    between atoms: C_11  and  C_12 
REMARK    6  A    between atoms: C_12  and  C_13 
REMARK    7  A    between atoms: C_13  and  C_14 
REMARK    8  A    between atoms: C_14  and  N_15 
REMARK       I    between atoms: N_15  and  C_16 
REMARK    9  A    between atoms: C_16  and  C_17 
REMARK   10  A    between atoms: C_17  and  N_18 
ROOT
HETATM    1  N   UNL     1      43.975 -13.437   7.737  1.00  0.00    -0.360 N 
HETATM    2  C   UNL     1      43.998 -13.831   6.416  1.00  0.00     0.235 C 
HETATM    3  O   UNL     1      44.976 -13.675   5.687  1.00  0.00    -0.272 OA
HETATM    4  H   UNL     1      43.085 -13.446   8.234  1.00  0.00     0.162 HD
ENDROOT
BRANCH   1   5
HETATM    5  C   UNL     1      45.149 -12.896   8.389  1.00  0.00     0.123 C 
BRANCH   5   6
HETATM    6  C   UNL     1      44.873 -11.546   9.050  1.00  0.00     0.029 C 
BRANCH   6   7
HETATM    7  C   UNL     1      43.627 -11.600   9.930  1.00  0.00     0.104 C 
BRANCH   7   8
HETATM    8  C   UNL     1      42.426 -10.830   9.404  1.00  0.00     0.217 C 
HETATM    9  N   UNL     1      41.201 -11.156   9.935  1.00  0.00    -0.361 N 
HETATM   10  H   UNL     1      41.109 -12.004  10.484  1.00  0.00     0.162 HD
HETATM   11  O   UNL     1      42.548  -9.867   8.643  1.00  0.00    -0.274 OA
BRANCH   9  12
HETATM   12  C   UNL     1      39.977 -10.538   9.467  1.00  0.00     0.124 C 
BRANCH  12  13
HETATM   13  C   UNL     1      39.522  -9.366  10.333  1.00  0.00     0.047 C 
BRANCH  13  14
HETATM   14  C   UNL     1      39.077  -9.692  11.761  1.00  0.00     0.236 C 
BRANCH  14  15
HETATM   15  N   UNL     1      40.112  -9.403  12.824  1.00  0.00    -0.071 N 
HETATM   16  C   UNL     1      40.854 -10.622  13.304  1.00  0.00     0.235 C 
HETATM   17  C   UNL     1      41.839 -10.253  14.404  1.00  0.00     0.032 C 
HETATM   18  C   UNL     1      42.807  -9.137  14.002  1.00  0.00    -0.016 C 
HETATM   19  C   UNL     1      43.849  -9.622  12.991  1.00  0.00     0.010 C 
HETATM   20  C   UNL     1      42.018  -7.934  13.478  1.00  0.00     0.032 C 
HETATM   21  C   UNL     1      41.045  -8.301  12.366  1.00  0.00     0.235 C 
HETATM   22  H   UNL     1      39.587  -8.976  13.619  1.00  0.00     0.279 HD
ENDBRANCH  14  15
ENDBRANCH  13  14
ENDBRANCH  12  13
ENDBRANCH   9  12
ENDBRANCH   7   8
ENDBRANCH   6   7
ENDBRANCH   5   6
ENDBRANCH   1   5
BRANCH   2  23
HETATM   23  C   UNL     1      42.685 -14.394   5.891  1.00  0.00     0.235 C 
BRANCH  23  24
HETATM   24  N   UNL     1      42.975 -15.521   5.024  1.00  0.00    -0.299 N 
HETATM   25  C   UNL     1      43.086 -16.787   5.592  1.00  0.00     0.262 C 
HETATM   26  O   UNL     1      42.832 -17.012   6.775  1.00  0.00    -0.267 OA
HETATM   27  C   UNL     1      43.476 -17.822   4.651  1.00  0.00     0.075 A 
HETATM   28  C   UNL     1      43.545 -17.476   3.317  1.00  0.00     0.115 A 
HETATM   29  C   UNL     1      43.847 -19.187   4.881  1.00  0.00    -0.026 A 
HETATM   30  S   UNL     1      44.009 -18.793   2.340  1.00  0.00    -0.073 SA
HETATM   31  N   UNL     1      43.299 -16.252   2.783  1.00  0.00    -0.235 NA
HETATM   32  C   UNL     1      44.182 -19.811   3.692  1.00  0.00    -0.008 A 
HETATM   33  C   UNL     1      44.640 -21.231   3.558  1.00  0.00     0.047 C 
HETATM   34  C   UNL     1      45.119 -21.762   4.918  1.00  0.00     0.005 C 
HETATM   35  C   UNL     1      44.133 -21.409   6.040  1.00  0.00     0.005 C 
HETATM   36  C   UNL     1      43.963 -19.889   6.203  1.00  0.00     0.041 C 
HETATM   37  C   UNL     1      43.049 -15.331   3.657  1.00  0.00     0.214 C 
ENDBRANCH  23  24
ENDBRANCH   2  23
TORSDOF 10
ENDMDL
MODEL 2
REMARK VINA RESULT:      -8.6      2.567      4.523
REMARK  10 active torsions:
REMARK  status: ('A' for Active; 'I' for Inactive)
REMARK    1  A    between atoms: N_5  and  C_7 
REMARK    2  A    between atoms: C_7  and  C_8 
REMARK    3  A    between atoms: C_8  and  C_9 
REMARK    4  A    between atoms: C_9  and  N_10 
REMARK       I    between atoms: N_10  and  C_11 
REMARK    5  A    between atoms: C_11  and  C_12 
REMARK    6  A    between atoms: C_12  and  C_13 
REMARK    7  A    between atoms: C_13  and  C_14 
REMARK    8  A    between atoms: C_14  and  N_15 
REMARK       I    between atoms: N_15  and  C_16 
REMARK    9  A    between atoms: C_16  and  C_17 
REMARK   10  A    between atoms: C_17  and  N_18 
ROOT
HETATM    1  N   UNL     1      39.499 -13.865   3.124  1.00  0.00    -0.360 N 
HETATM    2  C   UNL     1      40.341 -14.478   2.221  1.00  0.00     0.235 C 
HETATM    3  O   UNL     1      41.138 -13.857   1.521  1.00  0.00    -0.272 OA
HETATM    4  H   UNL     1      38.754 -14.417   3.550  1.00  0.00     0.162 HD
ENDROOT
BRANCH   1   5
HETATM    5  C   UNL     1      39.566 -12.443   3.382  1.00  0.00     0.123 C 
BRANCH   5   6
HETATM    6  C   UNL     1      39.808 -12.134   4.860  1.00  0.00     0.029 C 
BRANCH   6   7
HETATM    7  C   UNL     1      41.182 -11.506   5.081  1.00  0.00     0.104 C 
BRANCH   7   8
HETATM    8  C   UNL     1      42.349 -12.480   5.073  1.00  0.00     0.217 C 
HETATM    9  N   UNL     1      42.746 -12.982   6.289  1.00  0.00    -0.361 N 
HETATM   10  H   UNL     1      42.400 -12.549   7.139  1.00  0.00     0.162 HD
HETATM   11  O   UNL     1      42.835 -12.912   4.024  1.00  0.00    -0.274 OA
BRANCH   9  12
HETATM   12  C   UNL     1      43.886 -13.865   6.417  1.00  0.00     0.124 C 
BRANCH  12  13
HETATM   13  C   UNL     1      44.499 -13.864   7.816  1.00  0.00     0.047 C 
BRANCH  13  14
HETATM   14  C   UNL     1      44.680 -12.503   8.491  1.00  0.00     0.236 C 
BRANCH  14  15
HETATM   15  N   UNL     1      43.793 -12.274   9.693  1.00  0.00    -0.071 N 
HETATM   16  C   UNL     1      44.514 -12.356  11.012  1.00  0.00     0.235 C 
HETATM   17  C   UNL     1      43.543 -12.165  12.168  1.00  0.00     0.032 C 
HETATM   18  C   UNL     1      42.724 -10.876  12.064  1.00  0.00    -0.016 C 
HETATM   19  C   UNL     1      43.574  -9.634  12.343  1.00  0.00     0.010 C 
HETATM   20  C   UNL     1      42.043 -10.807  10.694  1.00  0.00     0.032 C 
HETATM   21  C   UNL     1      43.017 -10.982   9.537  1.00  0.00     0.235 C 
HETATM   22  H   UNL     1      43.060 -13.017   9.647  1.00  0.00     0.279 HD
ENDBRANCH  14  15
ENDBRANCH  13  14
ENDBRANCH  12  13
ENDBRANCH   9  12
ENDBRANCH   7   8
ENDBRANCH   6   7
ENDBRANCH   5   6
ENDBRANCH   1   5
BRANCH   2  23
HETATM   23  C   UNL     1      40.150 -15.982   2.083  1.00  0.00     0.235 C 
BRANCH  23  24
HETATM   24  N   UNL     1      41.156 -16.655   2.884  1.00  0.00    -0.299 N 
HETATM   25  C   UNL     1      41.834 -17.737   2.329  1.00  0.00     0.262 C 
HETATM   26  O   UNL     1      41.705 -18.074   1.153  1.00  0.00    -0.267 OA
HETATM   27  C   UNL     1      42.743 -18.395   3.250  1.00  0.00     0.075 A 
HETATM   28  C   UNL     1      42.939 -17.805   4.482  1.00  0.00     0.115 A 
HETATM   29  C   UNL     1      43.477 -19.618   3.108  1.00  0.00    -0.026 A 
HETATM   30  S   UNL     1      44.033 -18.690   5.446  1.00  0.00    -0.073 SA
HETATM   31  N   UNL     1      42.354 -16.669   4.939  1.00  0.00    -0.235 NA
HETATM   32  C   UNL     1      44.201 -19.892   4.255  1.00  0.00    -0.008 A 
HETATM   33  C   UNL     1      45.063 -21.099   4.467  1.00  0.00     0.047 C 
HETATM   34  C   UNL     1      44.695 -22.196   3.456  1.00  0.00     0.005 C 
HETATM   35  C   UNL     1      44.557 -21.630   2.036  1.00  0.00     0.005 C 
HETATM   36  C   UNL     1      43.451 -20.565   1.943  1.00  0.00     0.041 C 
HETATM   37  C   UNL     1      41.478 -16.160   4.134  1.00  0.00     0.214 C 
ENDBRANCH  23  24
ENDBRANCH   2  23
TORSDOF 10
ENDMDL
MODEL 3
REMARK VINA RESULT:      -8.4      2.476      3.408
REMARK  10 active torsions:
REMARK  status: ('A' for Active; 'I' for Inactive)
REMARK    1  A    between atoms: N_5  and  C_7 
REMARK    2  A    between atoms: C_7  and  C_8 
REMARK    3  A    between atoms: C_8  and  C_9 
REMARK    4  A    between atoms: C_9  and  N_10 
REMARK       I    between atoms: N_10  and  C_11 
REMARK    5  A    between atoms: C_11  and  C_12 
REMARK    6  A    between atoms: C_12  and  C_13 
REMARK    7  A    between atoms: C_13  and  C_14 
REMARK    8  A    between atoms: C_14  and  N_15 
REMARK       I    between atoms: N_15  and  C_16 
REMARK    9  A    between atoms: C_16  and  C_17 
REMARK   10  A    between atoms: C_17  and  N_18 
ROOT
HETATM    1  N   UNL     1      40.707 -13.085   2.937  1.00  0.00    -0.360 N 
HETATM    2  C   UNL     1      41.606 -14.001   2.435  1.00  0.00     0.235 C 
HETATM    3  O   UNL     1      42.715 -13.686   2.008  1.00  0.00    -0.272 OA
HETATM    4  H   UNL     1      39.751 -13.389   3.120  1.00  0.00     0.162 HD
ENDROOT
BRANCH   1   5
HETATM    5  C   UNL     1      41.050 -11.686   3.087  1.00  0.00     0.123 C 
BRANCH   5   6
HETATM    6  C   UNL     1      41.465 -11.343   4.518  1.00  0.00     0.029 C 
BRANCH   6   7
HETATM    7  C   UNL     1      40.880 -12.335   5.521  1.00  0.00     0.104 C 
BRANCH   7   8
HETATM    8  C   UNL     1      39.833 -11.764   6.463  1.00  0.00     0.217 C 
HETATM    9  N   UNL     1      40.100 -11.844   7.808  1.00  0.00    -0.361 N 
HETATM   10  H   UNL     1      40.856 -12.441   8.127  1.00  0.00     0.162 HD
HETATM   11  O   UNL     1      38.854 -11.135   6.051  1.00  0.00    -0.274 OA
BRANCH   9  12
HETATM   12  C   UNL     1      39.150 -11.394   8.804  1.00  0.00     0.124 C 
BRANCH  12  13
HETATM   13  C   UNL     1      39.765 -10.469   9.852  1.00  0.00     0.047 C 
BRANCH  13  14
HETATM   14  C   UNL     1      40.759 -11.096  10.833  1.00  0.00     0.236 C 
BRANCH  14  15
HETATM   15  N   UNL     1      41.551 -10.100  11.649  1.00  0.00    -0.071 N 
HETATM   16  C   UNL     1      40.707  -9.222  12.532  1.00  0.00     0.235 C 
HETATM   17  C   UNL     1      41.574  -8.218  13.279  1.00  0.00     0.032 C 
HETATM   18  C   UNL     1      42.711  -8.871  14.070  1.00  0.00    -0.016 C 
HETATM   19  C   UNL     1      42.195  -9.610  15.307  1.00  0.00     0.010 C 
HETATM   20  C   UNL     1      43.518  -9.790  13.149  1.00  0.00     0.032 C 
HETATM   21  C   UNL     1      42.652 -10.804  12.415  1.00  0.00     0.235 C 
HETATM   22  H   UNL     1      42.062  -9.511  10.953  1.00  0.00     0.279 HD
ENDBRANCH  14  15
ENDBRANCH  13  14
ENDBRANCH  12  13
ENDBRANCH   9  12
ENDBRANCH   7   8
ENDBRANCH   6   7
ENDBRANCH   5   6
ENDBRANCH   1   5
BRANCH   2  23
HETATM   23  C   UNL     1      41.092 -15.432   2.361  1.00  0.00     0.235 C 
BRANCH  23  24
HETATM   24  N   UNL     1      42.008 -16.294   3.084  1.00  0.00    -0.299 N 
HETATM   25  C   UNL     1      42.441 -17.467   2.472  1.00  0.00     0.262 C 
HETATM   26  O   UNL     1      42.178 -17.747   1.303  1.00  0.00    -0.267 OA
HETATM   27  C   UNL     1      43.272 -18.301   3.322  1.00  0.00     0.075 A 
HETATM   28  C   UNL     1      43.651 -17.786   4.545  1.00  0.00     0.115 A 
HETATM   29  C   UNL     1      43.762 -19.633   3.115  1.00  0.00    -0.026 A 
HETATM   30  S   UNL     1      44.625 -18.877   5.422  1.00  0.00    -0.073 SA
HETATM   31  N   UNL     1      43.313 -16.574   5.054  1.00  0.00    -0.235 NA
HETATM   32  C   UNL     1      44.495 -20.061   4.207  1.00  0.00    -0.008 A 
HETATM   33  C   UNL     1      45.135 -21.408   4.346  1.00  0.00     0.047 C 
HETATM   34  C   UNL     1      44.511 -22.396   3.349  1.00  0.00     0.005 C 
HETATM   35  C   UNL     1      44.387 -21.780   1.948  1.00  0.00     0.005 C 
HETATM   36  C   UNL     1      43.489 -20.531   1.944  1.00  0.00     0.041 C 
HETATM   37  C   UNL     1      42.494 -15.896   4.316  1.00  0.00     0.214 C 
ENDBRANCH  23  24
ENDBRANCH   2  23
TORSDOF 10
ENDMDL
MODEL 4
REMARK VINA RESULT:      -8.4      2.085      3.625
REMARK  10 active torsions:
REMARK  status: ('A' for Active; 'I' for Inactive)
REMARK    1  A    between atoms: N_5  and  C_7 
REMARK    2  A    between atoms: C_7  and  C_8 
REMARK    3  A    between atoms: C_8  and  C_9 
REMARK    4  A    between atoms: C_9  and  N_10 
REMARK       I    between atoms: N_10  and  C_11 
REMARK    5  A    between atoms: C_11  and  C_12 
REMARK    6  A    between atoms: C_12  and  C_13 
REMARK    7  A    between atoms: C_13  and  C_14 
REMARK    8  A    between atoms: C_14  and  N_15 
REMARK       I    between atoms: N_15  and  C_16 
REMARK    9  A    between atoms: C_16  and  C_17 
REMARK   10  A    between atoms: C_17  and  N_18 
ROOT
HETATM    1  N   UNL     1      39.867 -13.015   6.445  1.00  0.00    -0.360 N 
HETATM    2  C   UNL     1      40.641 -13.555   5.440  1.00  0.00     0.235 C 
HETATM    3  O   UNL     1      41.548 -12.936   4.887  1.00  0.00    -0.272 OA
HETATM    4  H   UNL     1      39.033 -13.521   6.743  1.00  0.00     0.162 HD
ENDROOT
BRANCH   1   5
HETATM    5  C   UNL     1      40.137 -11.702   6.990  1.00  0.00     0.123 C 
BRANCH   5   6
HETATM    6  C   UNL     1      39.387 -11.454   8.299  1.00  0.00     0.029 C 
BRANCH   6   7
HETATM    7  C   UNL     1      38.897 -10.012   8.397  1.00  0.00     0.104 C 
BRANCH   7   8
HETATM    8  C   UNL     1      39.167  -9.323   9.724  1.00  0.00     0.217 C 
HETATM    9  N   UNL     1      38.979 -10.072  10.861  1.00  0.00    -0.361 N 
HETATM   10  H   UNL     1      38.488 -10.957  10.794  1.00  0.00     0.162 HD
HETATM   11  O   UNL     1      39.662  -8.194   9.788  1.00  0.00    -0.274 OA
BRANCH   9  12
HETATM   12  C   UNL     1      39.140  -9.506  12.184  1.00  0.00     0.124 C 
BRANCH  12  13
HETATM   13  C   UNL     1      40.399  -9.993  12.900  1.00  0.00     0.047 C 
BRANCH  13  14
HETATM   14  C   UNL     1      41.743  -9.570  12.303  1.00  0.00     0.236 C 
BRANCH  14  15
HETATM   15  N   UNL     1      42.388 -10.605  11.410  1.00  0.00    -0.071 N 
HETATM   16  C   UNL     1      42.704 -10.108  10.025  1.00  0.00     0.235 C 
HETATM   17  C   UNL     1      43.303 -11.222   9.178  1.00  0.00     0.032 C 
HETATM   18  C   UNL     1      44.524 -11.883   9.822  1.00  0.00    -0.016 C 
HETATM   19  C   UNL     1      45.750 -10.966   9.796  1.00  0.00     0.010 C 
HETATM   20  C   UNL     1      44.177 -12.333  11.244  1.00  0.00     0.032 C 
HETATM   21  C   UNL     1      43.593 -11.214  12.095  1.00  0.00     0.235 C 
HETATM   22  H   UNL     1      41.703 -11.392  11.353  1.00  0.00     0.279 HD
ENDBRANCH  14  15
ENDBRANCH  13  14
ENDBRANCH  12  13
ENDBRANCH   9  12
ENDBRANCH   7   8
ENDBRANCH   6   7
ENDBRANCH   5   6
ENDBRANCH   1   5
BRANCH   2  23
HETATM   23  C   UNL     1      40.233 -14.952   4.995  1.00  0.00     0.235 C 
BRANCH  23  24
HETATM   24  N   UNL     1      41.358 -15.849   5.184  1.00  0.00    -0.299 N 
HETATM   25  C   UNL     1      41.733 -16.678   4.130  1.00  0.00     0.262 C 
HETATM   26  O   UNL     1      41.231 -16.601   3.009  1.00  0.00    -0.267 OA
HETATM   27  C   UNL     1      42.802 -17.603   4.461  1.00  0.00     0.075 A 
HETATM   28  C   UNL     1      43.409 -17.460   5.692  1.00  0.00     0.115 A 
HETATM   29  C   UNL     1      43.338 -18.702   3.713  1.00  0.00    -0.026 A 
HETATM   30  S   UNL     1      44.644 -18.610   5.932  1.00  0.00    -0.073 SA
HETATM   31  N   UNL     1      43.099 -16.546   6.648  1.00  0.00    -0.235 NA
HETATM   32  C   UNL     1      44.335 -19.341   4.427  1.00  0.00    -0.008 A 
HETATM   33  C   UNL     1      45.098 -20.544   3.963  1.00  0.00     0.047 C 
HETATM   34  C   UNL     1      44.343 -21.240   2.820  1.00  0.00     0.005 C 
HETATM   35  C   UNL     1      43.850 -20.231   1.773  1.00  0.00     0.005 C 
HETATM   36  C   UNL     1      42.877 -19.203   2.375  1.00  0.00     0.041 C 
HETATM   37  C   UNL     1      42.080 -15.801   6.361  1.00  0.00     0.214 C 
ENDBRANCH  23  24
ENDBRANCH   2  23
TORSDOF 10
ENDMDL
MODEL 5
REMARK VINA RESULT:      -8.3      7.131     10.036
REMARK  10 active torsions:
REMARK  status: ('A' for Active; 'I' for Inactive)
REMARK    1  A    between atoms: N_5  and  C_7 
REMARK    2  A    between atoms: C_7  and  C_8 
REMARK    3  A    between atoms: C_8  and  C_9 
REMARK    4  A    between atoms: C_9  and  N_10 
REMARK       I    between atoms: N_10  and  C_11 
REMARK    5  A    between atoms: C_11  and  C_12 
REMARK    6  A    between atoms: C_12  and  C_13 
REMARK    7  A    between atoms: C_13  and  C_14 
REMARK    8  A    between atoms: C_14  and  N_15 
REMARK       I    between atoms: N_15  and  C_16 
REMARK    9  A    between atoms: C_16  and  C_17 
REMARK   10  A    between atoms: C_17  and  N_18 
ROOT
HETATM    1  N   UNL     1      40.002 -13.923   1.666  1.00  0.00    -0.360 N 
HETATM    2  C   UNL     1      40.544 -15.189   1.748  1.00  0.00     0.235 C 
HETATM    3  O   UNL     1      39.906 -16.166   2.133  1.00  0.00    -0.272 OA
HETATM    4  H   UNL     1      40.627 -13.135   1.498  1.00  0.00     0.162 HD
ENDROOT
BRANCH   1   5
HETATM    5  C   UNL     1      38.602 -13.676   1.939  1.00  0.00     0.123 C 
BRANCH   5   6
HETATM    6  C   UNL     1      37.706 -14.072   0.765  1.00  0.00     0.029 C 
BRANCH   6   7
HETATM    7  C   UNL     1      37.509 -12.907  -0.202  1.00  0.00     0.104 C 
BRANCH   7   8
HETATM    8  C   UNL     1      38.051 -13.130  -1.605  1.00  0.00     0.217 C 
HETATM    9  N   UNL     1      38.474 -14.401  -1.911  1.00  0.00    -0.361 N 
HETATM   10  H   UNL     1      38.601 -15.074  -1.162  1.00  0.00     0.162 HD
HETATM   11  O   UNL     1      37.992 -12.258  -2.476  1.00  0.00    -0.274 OA
BRANCH   9  12
HETATM   12  C   UNL     1      39.070 -14.721  -3.191  1.00  0.00     0.124 C 
BRANCH  12  13
HETATM   13  C   UNL     1      40.569 -15.003  -3.108  1.00  0.00     0.047 C 
BRANCH  13  14
HETATM   14  C   UNL     1      41.369 -14.196  -2.083  1.00  0.00     0.236 C 
BRANCH  14  15
HETATM   15  N   UNL     1      41.367 -12.703  -2.318  1.00  0.00    -0.071 N 
HETATM   16  C   UNL     1      41.292 -11.884  -1.057  1.00  0.00     0.235 C 
HETATM   17  C   UNL     1      41.244 -10.398  -1.384  1.00  0.00     0.032 C 
HETATM   18  C   UNL     1      42.399  -9.936  -2.276  1.00  0.00    -0.016 C 
HETATM   19  C   UNL     1      43.729  -9.906  -1.519  1.00  0.00     0.010 C 
HETATM   20  C   UNL     1      42.471 -10.821  -3.524  1.00  0.00     0.032 C 
HETATM   21  C   UNL     1      42.535 -12.306  -3.196  1.00  0.00     0.235 C 
HETATM   22  H   UNL     1      40.528 -12.514  -2.910  1.00  0.00     0.279 HD
ENDBRANCH  14  15
ENDBRANCH  13  14
ENDBRANCH  12  13
ENDBRANCH   9  12
ENDBRANCH   7   8
ENDBRANCH   6   7
ENDBRANCH   5   6
ENDBRANCH   1   5
BRANCH   2  23
HETATM   23  C   UNL     1      42.026 -15.276   1.411  1.00  0.00     0.235 C 
BRANCH  23  24
HETATM   24  N   UNL     1      42.667 -16.165   2.362  1.00  0.00    -0.299 N 
HETATM   25  C   UNL     1      43.098 -17.413   1.920  1.00  0.00     0.262 C 
HETATM   26  O   UNL     1      43.066 -17.750   0.737  1.00  0.00    -0.267 OA
HETATM   27  C   UNL     1      43.632 -18.258   2.973  1.00  0.00     0.075 A 
HETATM   28  C   UNL     1      43.788 -17.694   4.223  1.00  0.00     0.115 A 
HETATM   29  C   UNL     1      44.012 -19.640   2.946  1.00  0.00    -0.026 A 
HETATM   30  S   UNL     1      44.429 -18.804   5.347  1.00  0.00    -0.073 SA
HETATM   31  N   UNL     1      43.477 -16.423   4.584  1.00  0.00    -0.235 NA
HETATM   32  C   UNL     1      44.442 -20.054   4.194  1.00  0.00    -0.008 A 
HETATM   33  C   UNL     1      44.892 -21.442   4.538  1.00  0.00     0.047 C 
HETATM   34  C   UNL     1      44.398 -22.436   3.476  1.00  0.00     0.005 C 
HETATM   35  C   UNL     1      44.647 -21.913   2.054  1.00  0.00     0.005 C 
HETATM   36  C   UNL     1      43.907 -20.590   1.789  1.00  0.00     0.041 C 
HETATM   37  C   UNL     1      42.914 -15.727   3.649  1.00  0.00     0.214 C 
ENDBRANCH  23  24
ENDBRANCH   2  23
TORSDOF 10
ENDMDL
MODEL 6
REMARK VINA RESULT:      -8.3      2.745      4.008
REMARK  10 active torsions:
REMARK  status: ('A' for Active; 'I' for Inactive)
REMARK    1  A    between atoms: N_5  and  C_7 
REMARK    2  A    between atoms: C_7  and  C_8 
REMARK    3  A    between atoms: C_8  and  C_9 
REMARK    4  A    between atoms: C_9  and  N_10 
REMARK       I    between atoms: N_10  and  C_11 
REMARK    5  A    between atoms: C_11  and  C_12 
REMARK    6  A    between atoms: C_12  and  C_13 
REMARK    7  A    between atoms: C_13  and  C_14 
REMARK    8  A    between atoms: C_14  and  N_15 
REMARK       I    between atoms: N_15  and  C_16 
REMARK    9  A    between atoms: C_16  and  C_17 
REMARK   10  A    between atoms: C_17  and  N_18 
ROOT
HETATM    1  N   UNL     1      40.264 -13.688   3.208  1.00  0.00    -0.360 N 
HETATM    2  C   UNL     1      40.875 -13.902   4.425  1.00  0.00     0.235 C 
HETATM    3  O   UNL     1      41.805 -13.212   4.838  1.00  0.00    -0.272 OA
HETATM    4  H   UNL     1      39.614 -14.392   2.857  1.00  0.00     0.162 HD
ENDROOT
BRANCH   1   5
HETATM    5  C   UNL     1      40.616 -12.563   2.368  1.00  0.00     0.123 C 
BRANCH   5   6
HETATM    6  C   UNL     1      39.614 -11.414   2.491  1.00  0.00     0.029 C 
BRANCH   6   7
HETATM    7  C   UNL     1      40.057 -10.400   3.542  1.00  0.00     0.104 C 
BRANCH   7   8
HETATM    8  C   UNL     1      39.357 -10.511   4.887  1.00  0.00     0.217 C 
HETATM    9  N   UNL     1      40.130 -10.886   5.959  1.00  0.00    -0.361 N 
HETATM   10  H   UNL     1      41.057 -11.262   5.792  1.00  0.00     0.162 HD
HETATM   11  O   UNL     1      38.187 -10.153   5.048  1.00  0.00    -0.274 OA
BRANCH   9  12
HETATM   12  C   UNL     1      39.564 -11.090   7.276  1.00  0.00     0.124 C 
BRANCH  12  13
HETATM   13  C   UNL     1      40.291 -10.315   8.374  1.00  0.00     0.047 C 
BRANCH  13  14
HETATM   14  C   UNL     1      41.805 -10.515   8.475  1.00  0.00     0.236 C 
BRANCH  14  15
HETATM   15  N   UNL     1      42.281 -11.064   9.800  1.00  0.00    -0.071 N 
HETATM   16  C   UNL     1      43.712 -10.729  10.124  1.00  0.00     0.235 C 
HETATM   17  C   UNL     1      44.125 -11.360  11.447  1.00  0.00     0.032 C 
HETATM   18  C   UNL     1      43.194 -10.998  12.607  1.00  0.00    -0.016 C 
HETATM   19  C   UNL     1      43.368  -9.542  13.046  1.00  0.00     0.010 C 
HETATM   20  C   UNL     1      41.745 -11.310  12.222  1.00  0.00     0.032 C 
HETATM   21  C   UNL     1      41.328 -10.666  10.908  1.00  0.00     0.235 C 
HETATM   22  H   UNL     1      42.170 -12.100   9.730  1.00  0.00     0.279 HD
ENDBRANCH  14  15
ENDBRANCH  13  14
ENDBRANCH  12  13
ENDBRANCH   9  12
ENDBRANCH   7   8
ENDBRANCH   6   7
ENDBRANCH   5   6
ENDBRANCH   1   5
BRANCH   2  23
HETATM   23  C   UNL     1      40.374 -15.120   5.190  1.00  0.00     0.235 C 
BRANCH  23  24
HETATM   24  N   UNL     1      41.468 -16.062   5.332  1.00  0.00    -0.299 N 
HETATM   25  C   UNL     1      41.828 -16.836   4.232  1.00  0.00     0.262 C 
HETATM   26  O   UNL     1      41.341 -16.673   3.114  1.00  0.00    -0.267 OA
HETATM   27  C   UNL     1      42.864 -17.813   4.514  1.00  0.00     0.075 A 
HETATM   28  C   UNL     1      43.462 -17.766   5.756  1.00  0.00     0.115 A 
HETATM   29  C   UNL     1      43.372 -18.881   3.703  1.00  0.00    -0.026 A 
HETATM   30  S   UNL     1      44.658 -18.969   5.934  1.00  0.00    -0.073 SA
HETATM   31  N   UNL     1      43.171 -16.905   6.764  1.00  0.00    -0.235 NA
HETATM   32  C   UNL     1      44.342 -19.595   4.385  1.00  0.00    -0.008 A 
HETATM   33  C   UNL     1      45.071 -20.791   3.852  1.00  0.00     0.047 C 
HETATM   34  C   UNL     1      44.307 -21.389   2.662  1.00  0.00     0.005 C 
HETATM   35  C   UNL     1      43.857 -20.301   1.676  1.00  0.00     0.005 C 
HETATM   36  C   UNL     1      42.910 -19.282   2.333  1.00  0.00     0.041 C 
HETATM   37  C   UNL     1      42.179 -16.111   6.516  1.00  0.00     0.214 C 
ENDBRANCH  23  24
ENDBRANCH   2  23
TORSDOF 10
ENDMDL
MODEL 7
REMARK VINA RESULT:      -8.2      2.081      3.255
REMARK  10 active torsions:
REMARK  status: ('A' for Active; 'I' for Inactive)
REMARK    1  A    between atoms: N_5  and  C_7 
REMARK    2  A    between atoms: C_7  and  C_8 
REMARK    3  A    between atoms: C_8  and  C_9 
REMARK    4  A    between atoms: C_9  and  N_10 
REMARK       I    between atoms: N_10  and  C_11 
REMARK    5  A    between atoms: C_11  and  C_12 
REMARK    6  A    between atoms: C_12  and  C_13 
REMARK    7  A    between atoms: C_13  and  C_14 
REMARK    8  A    between atoms: C_14  and  N_15 
REMARK       I    between atoms: N_15  and  C_16 
REMARK    9  A    between atoms: C_16  and  C_17 
REMARK   10  A    between atoms: C_17  and  N_18 
ROOT
HETATM    1  N   UNL     1      40.343 -12.039   5.399  1.00  0.00    -0.360 N 
HETATM    2  C   UNL     1      41.151 -13.135   5.615  1.00  0.00     0.235 C 
HETATM    3  O   UNL     1      42.378 -13.083   5.562  1.00  0.00    -0.272 OA
HETATM    4  H   UNL     1      39.339 -12.185   5.296  1.00  0.00     0.162 HD
ENDROOT
BRANCH   1   5
HETATM    5  C   UNL     1      40.895 -10.717   5.190  1.00  0.00     0.123 C 
BRANCH   5   6
HETATM    6  C   UNL     1      41.049  -9.942   6.499  1.00  0.00     0.029 C 
BRANCH   6   7
HETATM    7  C   UNL     1      39.703  -9.427   7.004  1.00  0.00     0.104 C 
BRANCH   7   8
HETATM    8  C   UNL     1      39.367  -9.791   8.441  1.00  0.00     0.217 C 
HETATM    9  N   UNL     1      39.674  -8.860   9.404  1.00  0.00    -0.361 N 
HETATM   10  H   UNL     1      40.278  -8.080   9.163  1.00  0.00     0.162 HD
HETATM   11  O   UNL     1      38.727 -10.806   8.727  1.00  0.00    -0.274 OA
BRANCH   9  12
HETATM   12  C   UNL     1      39.462  -9.118  10.813  1.00  0.00     0.124 C 
BRANCH  12  13
HETATM   13  C   UNL     1      40.749  -9.446  11.568  1.00  0.00     0.047 C 
BRANCH  13  14
HETATM   14  C   UNL     1      41.022 -10.924  11.861  1.00  0.00     0.236 C 
BRANCH  14  15
HETATM   15  N   UNL     1      42.140 -11.530  11.045  1.00  0.00    -0.071 N 
HETATM   16  C   UNL     1      42.555 -10.699   9.860  1.00  0.00     0.235 C 
HETATM   17  C   UNL     1      43.648 -11.403   9.067  1.00  0.00     0.032 C 
HETATM   18  C   UNL     1      44.857 -11.796   9.919  1.00  0.00    -0.016 C 
HETATM   19  C   UNL     1      45.692 -10.578  10.323  1.00  0.00     0.010 C 
HETATM   20  C   UNL     1      44.391 -12.600  11.136  1.00  0.00     0.032 C 
HETATM   21  C   UNL     1      43.310 -11.889  11.938  1.00  0.00     0.235 C 
HETATM   22  H   UNL     1      41.779 -12.454  10.717  1.00  0.00     0.279 HD
ENDBRANCH  14  15
ENDBRANCH  13  14
ENDBRANCH  12  13
ENDBRANCH   9  12
ENDBRANCH   7   8
ENDBRANCH   6   7
ENDBRANCH   5   6
ENDBRANCH   1   5
BRANCH   2  23
HETATM   23  C   UNL     1      40.409 -14.446   5.835  1.00  0.00     0.235 C 
BRANCH  23  24
HETATM   24  N   UNL     1      40.920 -15.433   4.901  1.00  0.00    -0.299 N 
HETATM   25  C   UNL     1      41.607 -16.533   5.406  1.00  0.00     0.262 C 
HETATM   26  O   UNL     1      41.697 -16.769   6.611  1.00  0.00    -0.267 OA
HETATM   27  C   UNL     1      42.160 -17.401   4.382  1.00  0.00     0.075 A 
HETATM   28  C   UNL     1      41.827 -17.131   3.071  1.00  0.00     0.115 A 
HETATM   29  C   UNL     1      43.052 -18.517   4.500  1.00  0.00    -0.026 A 
HETATM   30  S   UNL     1      42.546 -18.236   1.990  1.00  0.00    -0.073 SA
HETATM   31  N   UNL     1      41.041 -16.117   2.626  1.00  0.00    -0.235 NA
HETATM   32  C   UNL     1      43.352 -19.039   3.254  1.00  0.00    -0.008 A 
HETATM   33  C   UNL     1      44.271 -20.194   2.997  1.00  0.00     0.047 C 
HETATM   34  C   UNL     1      45.174 -20.432   4.217  1.00  0.00     0.005 C 
HETATM   35  C   UNL     1      44.372 -20.406   5.526  1.00  0.00     0.005 C 
HETATM   36  C   UNL     1      43.683 -19.050   5.754  1.00  0.00     0.041 C 
HETATM   37  C   UNL     1      40.643 -15.306   3.553  1.00  0.00     0.214 C 
ENDBRANCH  23  24
ENDBRANCH   2  23
TORSDOF 10
ENDMDL
MODEL 8
REMARK VINA RESULT:      -8.1      5.502      9.562
REMARK  10 active torsions:
REMARK  status: ('A' for Active; 'I' for Inactive)
REMARK    1  A    between atoms: N_5  and  C_7 
REMARK    2  A    between atoms: C_7  and  C_8 
REMARK    3  A    between atoms: C_8  and  C_9 
REMARK    4  A    between atoms: C_9  and  N_10 
REMARK       I    between atoms: N_10  and  C_11 
REMARK    5  A    between atoms: C_11  and  C_12 
REMARK    6  A    between atoms: C_12  and  C_13 
REMARK    7  A    between atoms: C_13  and  C_14 
REMARK    8  A    between atoms: C_14  and  N_15 
REMARK       I    between atoms: N_15  and  C_16 
REMARK    9  A    between atoms: C_16  and  C_17 
REMARK   10  A    between atoms: C_17  and  N_18 
ROOT
HETATM    1  N   UNL     1      42.229 -15.968   1.138  1.00  0.00    -0.360 N 
HETATM    2  C   UNL     1      40.955 -15.873   1.657  1.00  0.00     0.235 C 
HETATM    3  O   UNL     1      40.248 -16.854   1.877  1.00  0.00    -0.272 OA
HETATM    4  H   UNL     1      42.694 -15.115   0.828  1.00  0.00     0.162 HD
ENDROOT
BRANCH   1   5
HETATM    5  C   UNL     1      42.863 -17.248   0.909  1.00  0.00     0.123 C 
BRANCH   5   6
HETATM    6  C   UNL     1      44.087 -17.455   1.801  1.00  0.00     0.029 C 
BRANCH   6   7
HETATM    7  C   UNL     1      44.084 -18.843   2.438  1.00  0.00     0.104 C 
BRANCH   7   8
HETATM    8  C   UNL     1      43.503 -18.911   3.842  1.00  0.00     0.217 C 
HETATM    9  N   UNL     1      44.366 -19.262   4.853  1.00  0.00    -0.361 N 
HETATM   10  H   UNL     1      45.273 -19.649   4.616  1.00  0.00     0.162 HD
HETATM   11  O   UNL     1      42.354 -18.540   4.094  1.00  0.00    -0.274 OA
BRANCH   9  12
HETATM   12  C   UNL     1      43.916 -19.424   6.219  1.00  0.00     0.124 C 
BRANCH  12  13
HETATM   13  C   UNL     1      44.206 -18.211   7.100  1.00  0.00     0.047 C 
BRANCH  13  14
HETATM   14  C   UNL     1      42.999 -17.422   7.613  1.00  0.00     0.236 C 
BRANCH  14  15
HETATM   15  N   UNL     1      42.953 -15.980   7.165  1.00  0.00    -0.071 N 
HETATM   16  C   UNL     1      44.301 -15.396   6.837  1.00  0.00     0.235 C 
HETATM   17  C   UNL     1      44.172 -13.931   6.444  1.00  0.00     0.032 C 
HETATM   18  C   UNL     1      43.175 -13.695   5.307  1.00  0.00    -0.016 C 
HETATM   19  C   UNL     1      43.715 -14.190   3.962  1.00  0.00     0.010 C 
HETATM   20  C   UNL     1      41.832 -14.342   5.656  1.00  0.00     0.032 C 
HETATM   21  C   UNL     1      41.960 -15.811   6.034  1.00  0.00     0.235 C 
HETATM   22  H   UNL     1      42.526 -15.453   7.959  1.00  0.00     0.279 HD
ENDBRANCH  14  15
ENDBRANCH  13  14
ENDBRANCH  12  13
ENDBRANCH   9  12
ENDBRANCH   7   8
ENDBRANCH   6   7
ENDBRANCH   5   6
ENDBRANCH   1   5
BRANCH   2  23
HETATM   23  C   UNL     1      40.445 -14.453   1.852  1.00  0.00     0.235 C 
BRANCH  23  24
HETATM   24  N   UNL     1      40.531 -13.748   0.587  1.00  0.00    -0.299 N 
HETATM   25  C   UNL     1      41.527 -12.788   0.425  1.00  0.00     0.262 C 
HETATM   26  O   UNL     1      42.409 -12.595   1.261  1.00  0.00    -0.267 OA
HETATM   27  C   UNL     1      41.458 -12.077  -0.838  1.00  0.00     0.075 A 
HETATM   28  C   UNL     1      40.540 -12.518  -1.768  1.00  0.00     0.115 A 
HETATM   29  C   UNL     1      42.188 -10.930  -1.293  1.00  0.00    -0.026 A 
HETATM   30  S   UNL     1      40.583 -11.589  -3.197  1.00  0.00    -0.073 SA
HETATM   31  N   UNL     1      39.669 -13.550  -1.622  1.00  0.00    -0.235 NA
HETATM   32  C   UNL     1      41.777 -10.559  -2.561  1.00  0.00    -0.008 A 
HETATM   33  C   UNL     1      42.307  -9.391  -3.336  1.00  0.00     0.047 C 
HETATM   34  C   UNL     1      43.018  -8.409  -2.392  1.00  0.00     0.005 C 
HETATM   35  C   UNL     1      43.960  -9.140  -1.425  1.00  0.00     0.005 C 
HETATM   36  C   UNL     1      43.207 -10.137  -0.528  1.00  0.00     0.041 C 
HETATM   37  C   UNL     1      39.689 -14.101  -0.451  1.00  0.00     0.214 C 
ENDBRANCH  23  24
ENDBRANCH   2  23
TORSDOF 10
ENDMDL
MODEL 9
REMARK VINA RESULT:      -8.1      2.435      3.884
REMARK  10 active torsions:
REMARK  status: ('A' for Active; 'I' for Inactive)
REMARK    1  A    between atoms: N_5  and  C_7 
REMARK    2  A    between atoms: C_7  and  C_8 
REMARK    3  A    between atoms: C_8  and  C_9 
REMARK    4  A    between atoms: C_9  and  N_10 
REMARK       I    between atoms: N_10  and  C_11 
REMARK    5  A    between atoms: C_11  and  C_12 
REMARK    6  A    between atoms: C_12  and  C_13 
REMARK    7  A    between atoms: C_13  and  C_14 
REMARK    8  A    between atoms: C_14  and  N_15 
REMARK       I    between atoms: N_15  and  C_16 
REMARK    9  A    between atoms: C_16  and  C_17 
REMARK   10  A    between atoms: C_17  and  N_18 
ROOT
HETATM    1  N   UNL     1      41.174 -12.995   3.514  1.00  0.00    -0.360 N 
HETATM    2  C   UNL     1      41.135 -14.355   3.292  1.00  0.00     0.235 C 
HETATM    3  O   UNL     1      40.257 -15.083   3.749  1.00  0.00    -0.272 OA
HETATM    4  H   UNL     1      42.012 -12.480   3.246  1.00  0.00     0.162 HD
ENDROOT
BRANCH   1   5
HETATM    5  C   UNL     1      40.115 -12.311   4.226  1.00  0.00     0.123 C 
BRANCH   5   6
HETATM    6  C   UNL     1      40.656 -11.263   5.198  1.00  0.00     0.029 C 
BRANCH   6   7
HETATM    7  C   UNL     1      39.527 -10.450   5.828  1.00  0.00     0.104 C 
BRANCH   7   8
HETATM    8  C   UNL     1      39.469 -10.487   7.346  1.00  0.00     0.217 C 
HETATM    9  N   UNL     1      39.310  -9.284   7.990  1.00  0.00    -0.361 N 
HETATM   10  H   UNL     1      39.439  -8.423   7.468  1.00  0.00     0.162 HD
HETATM   11  O   UNL     1      39.427 -11.549   7.974  1.00  0.00    -0.274 OA
BRANCH   9  12
HETATM   12  C   UNL     1      39.307  -9.184   9.434  1.00  0.00     0.124 C 
BRANCH  12  13
HETATM   13  C   UNL     1      40.693  -9.343  10.055  1.00  0.00     0.047 C 
BRANCH  13  14
HETATM   14  C   UNL     1      40.950 -10.620  10.858  1.00  0.00     0.236 C 
BRANCH  14  15
HETATM   15  N   UNL     1      42.155 -11.414  10.408  1.00  0.00    -0.071 N 
HETATM   16  C   UNL     1      42.804 -10.887   9.157  1.00  0.00     0.235 C 
HETATM   17  C   UNL     1      43.974 -11.769   8.745  1.00  0.00     0.032 C 
HETATM   18  C   UNL     1      45.003 -11.970   9.861  1.00  0.00    -0.016 C 
HETATM   19  C   UNL     1      45.822 -10.703  10.119  1.00  0.00     0.010 C 
HETATM   20  C   UNL     1      44.299 -12.463  11.129  1.00  0.00     0.032 C 
HETATM   21  C   UNL     1      43.138 -11.571  11.549  1.00  0.00     0.235 C 
HETATM   22  H   UNL     1      41.805 -12.384  10.239  1.00  0.00     0.279 HD
ENDBRANCH  14  15
ENDBRANCH  13  14
ENDBRANCH  12  13
ENDBRANCH   9  12
ENDBRANCH   7   8
ENDBRANCH   6   7
ENDBRANCH   5   6
ENDBRANCH   1   5
BRANCH   2  23
HETATM   23  C   UNL     1      42.318 -14.912   2.512  1.00  0.00     0.235 C 
BRANCH  23  24
HETATM   24  N   UNL     1      42.932 -15.972   3.290  1.00  0.00    -0.299 N 
HETATM   25  C   UNL     1      43.272 -17.159   2.646  1.00  0.00     0.262 C 
HETATM   26  O   UNL     1      43.187 -17.305   1.428  1.00  0.00    -0.267 OA
HETATM   27  C   UNL     1      43.785 -18.185   3.537  1.00  0.00     0.075 A 
HETATM   28  C   UNL     1      44.010 -17.831   4.851  1.00  0.00     0.115 A 
HETATM   29  C   UNL     1      44.079 -19.565   3.284  1.00  0.00    -0.026 A 
HETATM   30  S   UNL     1      44.615 -19.136   5.767  1.00  0.00    -0.073 SA
HETATM   31  N   UNL     1      43.787 -16.616   5.415  1.00  0.00    -0.235 NA
HETATM   32  C   UNL     1      44.519 -20.191   4.436  1.00  0.00    -0.008 A 
HETATM   33  C   UNL     1      44.893 -21.638   4.547  1.00  0.00     0.047 C 
HETATM   34  C   UNL     1      44.310 -22.426   3.364  1.00  0.00     0.005 C 
HETATM   35  C   UNL     1      44.549 -21.703   2.031  1.00  0.00     0.005 C 
HETATM   36  C   UNL     1      43.884 -20.316   2.000  1.00  0.00     0.041 C 
HETATM   37  C   UNL     1      43.241 -15.754   4.620  1.00  0.00     0.214 C 
ENDBRANCH  23  24
ENDBRANCH   2  23
TORSDOF 10
ENDMDL
MODEL 10
REMARK VINA RESULT:      -8.0      5.508      9.660
REMARK  10 active torsions:
REMARK  status: ('A' for Active; 'I' for Inactive)
REMARK    1  A    between atoms: N_5  and  C_7 
REMARK    2  A    between atoms: C_7  and  C_8 
REMARK    3  A    between atoms: C_8  and  C_9 
REMARK    4  A    between atoms: C_9  and  N_10 
REMARK       I    between atoms: N_10  and  C_11 
REMARK    5  A    between atoms: C_11  and  C_12 
REMARK    6  A    between atoms: C_12  and  C_13 
REMARK    7  A    between atoms: C_13  and  C_14 
REMARK    8  A    between atoms: C_14  and  N_15 
REMARK       I    between atoms: N_15  and  C_16 
REMARK    9  A    between atoms: C_16  and  C_17 
REMARK   10  A    between atoms: C_17  and  N_18 
ROOT
HETATM    1  N   UNL     1      40.518 -12.530   4.072  1.00  0.00    -0.360 N 
HETATM    2  C   UNL     1      40.756 -13.685   4.786  1.00  0.00     0.235 C 
HETATM    3  O   UNL     1      39.857 -14.391   5.237  1.00  0.00    -0.272 OA
HETATM    4  H   UNL     1      41.302 -11.910   3.871  1.00  0.00     0.162 HD
ENDROOT
BRANCH   1   5
HETATM    5  C   UNL     1      39.176 -12.118   3.719  1.00  0.00     0.123 C 
BRANCH   5   6
HETATM    6  C   UNL     1      38.956 -12.102   2.206  1.00  0.00     0.029 C 
BRANCH   6   7
HETATM    7  C   UNL     1      38.921 -13.516   1.633  1.00  0.00     0.104 C 
BRANCH   7   8
HETATM    8  C   UNL     1      40.002 -13.830   0.612  1.00  0.00     0.217 C 
HETATM    9  N   UNL     1      40.067 -15.124   0.155  1.00  0.00    -0.361 N 
HETATM   10  H   UNL     1      39.549 -15.847   0.644  1.00  0.00     0.162 HD
HETATM   11  O   UNL     1      40.703 -12.948   0.108  1.00  0.00    -0.274 OA
BRANCH   9  12
HETATM   12  C   UNL     1      41.094 -15.559  -0.769  1.00  0.00     0.124 C 
BRANCH  12  13
HETATM   13  C   UNL     1      40.646 -15.532  -2.229  1.00  0.00     0.047 C 
BRANCH  13  14
HETATM   14  C   UNL     1      41.455 -14.653  -3.185  1.00  0.00     0.236 C 
BRANCH  14  15
HETATM   15  N   UNL     1      41.463 -13.183  -2.835  1.00  0.00    -0.071 N 
HETATM   16  C   UNL     1      42.840 -12.587  -2.723  1.00  0.00     0.235 C 
HETATM   17  C   UNL     1      42.760 -11.121  -2.320  1.00  0.00     0.032 C 
HETATM   18  C   UNL     1      41.869 -10.287  -3.244  1.00  0.00    -0.016 C 
HETATM   19  C   UNL     1      42.519 -10.057  -4.610  1.00  0.00     0.010 C 
HETATM   20  C   UNL     1      40.494 -10.949  -3.369  1.00  0.00     0.032 C 
HETATM   21  C   UNL     1      40.574 -12.411  -3.787  1.00  0.00     0.235 C 
HETATM   22  H   UNL     1      40.973 -13.111  -1.916  1.00  0.00     0.279 HD
ENDBRANCH  14  15
ENDBRANCH  13  14
ENDBRANCH  12  13
ENDBRANCH   9  12
ENDBRANCH   7   8
ENDBRANCH   6   7
ENDBRANCH   5   6
ENDBRANCH   1   5
BRANCH   2  23
HETATM   23  C   UNL     1      42.225 -13.981   5.057  1.00  0.00     0.235 C 
BRANCH  23  24
HETATM   24  N   UNL     1      42.609 -15.161   4.304  1.00  0.00    -0.299 N 
HETATM   25  C   UNL     1      42.792 -16.358   4.991  1.00  0.00     0.262 C 
HETATM   26  O   UNL     1      42.527 -16.490   6.185  1.00  0.00    -0.267 OA
HETATM   27  C   UNL     1      43.272 -17.446   4.158  1.00  0.00     0.075 A 
HETATM   28  C   UNL     1      43.347 -17.222   2.799  1.00  0.00     0.115 A 
HETATM   29  C   UNL     1      43.728 -18.756   4.521  1.00  0.00    -0.026 A 
HETATM   30  S   UNL     1      43.921 -18.589   1.958  1.00  0.00    -0.073 SA
HETATM   31  N   UNL     1      43.033 -16.072   2.148  1.00  0.00    -0.235 NA
HETATM   32  C   UNL     1      44.130 -19.463   3.402  1.00  0.00    -0.008 A 
HETATM   33  C   UNL     1      44.686 -20.854   3.410  1.00  0.00     0.047 C 
HETATM   34  C   UNL     1      45.168 -21.223   4.822  1.00  0.00     0.005 C 
HETATM   35  C   UNL     1      44.135 -20.835   5.890  1.00  0.00     0.005 C 
HETATM   36  C   UNL     1      43.861 -19.322   5.905  1.00  0.00     0.041 C 
HETATM   37  C   UNL     1      42.701 -15.093   2.927  1.00  0.00     0.214 C 
ENDBRANCH  23  24
ENDBRANCH   2  23
TORSDOF 10
ENDMDL
