MODEL 1
REMARK VINA RESULT:      -9.3      0.000      0.000
REMARK  6 active torsions:
REMARK  status: ('A' for Active; 'I' for Inactive)
REMARK    1  A    between atoms: C_4  and  C_5 
REMARK    2  A    between atoms: C_5  and  O_6 
REMARK    3  A    between atoms: O_6  and  C_7 
REMARK    4  A    between atoms: C_10  and  C_11 
REMARK    5  A    between atoms: C_17  and  C_18 
REMARK    6  A    between atoms: C_27  and  N_28 
ROOT
HETATM    1  C   UNL     1      41.256 -15.584  -0.812  1.00  0.00     0.072 A 
HETATM    2  N   UNL     1      40.521 -16.157  -1.832  1.00  0.00    -0.274 N 
HETATM    3  H   UNL     1      40.133 -17.093  -1.860  1.00  0.00     0.189 HD
HETATM    4  N   UNL     1      40.343 -15.359  -2.903  1.00  0.00    -0.148 NA
HETATM    5  C   UNL     1      40.995 -14.260  -2.549  1.00  0.00     0.199 A 
HETATM    6  C   UNL     1      41.557 -14.311  -1.270  1.00  0.00     0.040 A 
HETATM    7  C   UNL     1      42.295 -13.138  -0.726  1.00  0.00     0.106 A 
HETATM    8  C   UNL     1      42.437 -12.045  -1.779  1.00  0.00     0.081 A 
HETATM    9  C   UNL     1      43.261 -10.934  -1.434  1.00  0.00     0.100 C 
HETATM   10  N   UNL     1      43.930 -10.031  -1.145  1.00  0.00    -0.191 NA
HETATM   11  C   UNL     1      41.857 -12.122  -3.006  1.00  0.00     0.140 A 
HETATM   12  O   UNL     1      41.076 -13.219  -3.395  1.00  0.00    -0.277 OA
ENDROOT
BRANCH   7  13
HETATM   13  C   UNL     1      41.516 -12.681   0.500  1.00  0.00    -0.041 A 
HETATM   14  C   UNL     1      42.093 -12.790   1.771  1.00  0.00     0.027 A 
HETATM   15  C   UNL     1      41.378 -12.350   2.875  1.00  0.00     0.116 A 
HETATM   16  N   UNL     1      40.145 -11.808   2.803  1.00  0.00    -0.273 NA
HETATM   17  C   UNL     1      39.601 -11.704   1.573  1.00  0.00     0.116 A 
HETATM   18  C   UNL     1      40.235 -12.116   0.411  1.00  0.00     0.027 A 
ENDBRANCH   7  13
BRANCH  11  19
HETATM   19  N   UNL     1      41.958 -11.165  -3.994  1.00  0.00    -0.282 NA
HETATM   20  H   UNL     1      42.352 -10.272  -3.713  1.00  0.00     0.126 HD
HETATM   21  H   UNL     1      41.098 -11.076  -4.531  1.00  0.00     0.126 HD
ENDBRANCH  11  19
BRANCH   1  22
HETATM   22  C   UNL     1      41.575 -16.288   0.424  1.00  0.00    -0.007 A 
HETATM   23  C   UNL     1      42.833 -16.867   0.611  1.00  0.00     0.016 A 
HETATM   24  C   UNL     1      43.141 -17.522   1.807  1.00  0.00     0.037 A 
HETATM   25  C   UNL     1      42.199 -17.614   2.834  1.00  0.00     0.069 A 
HETATM   26  C   UNL     1      40.934 -17.061   2.645  1.00  0.00     0.037 A 
HETATM   27  C   UNL     1      40.626 -16.397   1.450  1.00  0.00     0.016 A 
BRANCH  25  28
HETATM   28  O   UNL     1      42.638 -18.261   3.954  1.00  0.00    -0.347 OA
BRANCH  28  29
HETATM   29  C   UNL     1      44.041 -18.514   4.054  1.00  0.00     0.214 C 
BRANCH  29  30
HETATM   30  C   UNL     1      44.303 -20.001   3.962  1.00  0.00    -0.034 A 
HETATM   31  C   UNL     1      44.595 -20.734   5.124  1.00  0.00     0.009 A 
HETATM   32  C   UNL     1      44.817 -22.110   5.058  1.00  0.00     0.001 A 
HETATM   33  C   UNL     1      44.740 -22.773   3.835  1.00  0.00     0.000 A 
HETATM   34  C   UNL     1      44.435 -22.061   2.677  1.00  0.00     0.001 A 
HETATM   35  C   UNL     1      44.211 -20.683   2.740  1.00  0.00     0.009 A 
ENDBRANCH  29  30
ENDBRANCH  28  29
ENDBRANCH  25  28
ENDBRANCH   1  22
TORSDOF 6
ENDMDL
MODEL 2
REMARK VINA RESULT:      -8.6      1.904      2.447
REMARK  6 active torsions:
REMARK  status: ('A' for Active; 'I' for Inactive)
REMARK    1  A    between atoms: C_4  and  C_5 
REMARK    2  A    between atoms: C_5  and  O_6 
REMARK    3  A    between atoms: O_6  and  C_7 
REMARK    4  A    between atoms: C_10  and  C_11 
REMARK    5  A    between atoms: C_17  and  C_18 
REMARK    6  A    between atoms: C_27  and  N_28 
ROOT
HETATM    1  C   UNL     1      41.099 -15.214  -1.193  1.00  0.00     0.072 A 
HETATM    2  N   UNL     1      40.584 -15.888  -2.283  1.00  0.00    -0.274 N 
HETATM    3  H   UNL     1      40.199 -16.826  -2.302  1.00  0.00     0.189 HD
HETATM    4  N   UNL     1      40.641 -15.197  -3.439  1.00  0.00    -0.148 NA
HETATM    5  C   UNL     1      41.218 -14.065  -3.064  1.00  0.00     0.199 A 
HETATM    6  C   UNL     1      41.503 -13.989  -1.698  1.00  0.00     0.040 A 
HETATM    7  C   UNL     1      42.127 -12.763  -1.127  1.00  0.00     0.106 A 
HETATM    8  C   UNL     1      42.497 -11.775  -2.228  1.00  0.00     0.081 A 
HETATM    9  C   UNL     1      43.245 -10.629  -1.827  1.00  0.00     0.100 C 
HETATM   10  N   UNL     1      43.850  -9.697  -1.493  1.00  0.00    -0.191 NA
HETATM   11  C   UNL     1      42.183 -11.973  -3.535  1.00  0.00     0.140 A 
HETATM   12  O   UNL     1      41.486 -13.108  -3.971  1.00  0.00    -0.277 OA
ENDROOT
BRANCH   7  13
HETATM   13  C   UNL     1      41.117 -12.197  -0.139  1.00  0.00    -0.041 A 
HETATM   14  C   UNL     1      41.481 -12.016   1.202  1.00  0.00     0.027 A 
HETATM   15  C   UNL     1      40.555 -11.480   2.084  1.00  0.00     0.116 A 
HETATM   16  N   UNL     1      39.308 -11.109   1.730  1.00  0.00    -0.273 NA
HETATM   17  C   UNL     1      38.970 -11.283   0.436  1.00  0.00     0.116 A 
HETATM   18  C   UNL     1      39.822 -11.812  -0.521  1.00  0.00     0.027 A 
ENDBRANCH   7  13
BRANCH  11  19
HETATM   19  N   UNL     1      42.496 -11.115  -4.567  1.00  0.00    -0.282 NA
HETATM   20  H   UNL     1      43.179 -11.453  -5.239  1.00  0.00     0.126 HD
HETATM   21  H   UNL     1      42.688 -10.171  -4.237  1.00  0.00     0.126 HD
ENDBRANCH  11  19
BRANCH   1  22
HETATM   22  C   UNL     1      41.146 -15.794   0.143  1.00  0.00    -0.007 A 
HETATM   23  C   UNL     1      40.217 -15.418   1.117  1.00  0.00     0.016 A 
HETATM   24  C   UNL     1      40.253 -15.993   2.391  1.00  0.00     0.037 A 
HETATM   25  C   UNL     1      41.218 -16.949   2.716  1.00  0.00     0.069 A 
HETATM   26  C   UNL     1      42.163 -17.311   1.757  1.00  0.00     0.037 A 
HETATM   27  C   UNL     1      42.123 -16.741   0.478  1.00  0.00     0.016 A 
BRANCH  25  28
HETATM   28  O   UNL     1      41.125 -17.444   3.986  1.00  0.00    -0.347 OA
BRANCH  28  29
HETATM   29  C   UNL     1      41.492 -16.570   5.055  1.00  0.00     0.214 C 
BRANCH  29  30
HETATM   30  C   UNL     1      42.631 -17.174   5.846  1.00  0.00    -0.034 A 
HETATM   31  C   UNL     1      42.559 -17.230   7.247  1.00  0.00     0.009 A 
HETATM   32  C   UNL     1      43.592 -17.805   7.989  1.00  0.00     0.001 A 
HETATM   33  C   UNL     1      44.705 -18.338   7.341  1.00  0.00     0.000 A 
HETATM   34  C   UNL     1      44.781 -18.304   5.950  1.00  0.00     0.001 A 
HETATM   35  C   UNL     1      43.747 -17.731   5.205  1.00  0.00     0.009 A 
ENDBRANCH  29  30
ENDBRANCH  28  29
ENDBRANCH  25  28
ENDBRANCH   1  22
TORSDOF 6
ENDMDL
MODEL 3
REMARK VINA RESULT:      -8.5      2.504      4.793
REMARK  6 active torsions:
REMARK  status: ('A' for Active; 'I' for Inactive)
REMARK    1  A    between atoms: C_4  and  C_5 
REMARK    2  A    between atoms: C_5  and  O_6 
REMARK    3  A    between atoms: O_6  and  C_7 
REMARK    4  A    between atoms: C_10  and  C_11 
REMARK    5  A    between atoms: C_17  and  C_18 
REMARK    6  A    between atoms: C_27  and  N_28 
ROOT
HETATM    1  C   UNL     1      40.879 -14.237   4.268  1.00  0.00     0.072 A 
HETATM    2  N   UNL     1      41.180 -13.936   5.582  1.00  0.00    -0.274 N 
HETATM    3  H   UNL     1      41.765 -14.467   6.217  1.00  0.00     0.189 HD
HETATM    4  N   UNL     1      40.591 -12.815   6.042  1.00  0.00    -0.148 NA
HETATM    5  C   UNL     1      39.892 -12.411   4.992  1.00  0.00     0.199 A 
HETATM    6  C   UNL     1      40.039 -13.214   3.858  1.00  0.00     0.040 A 
HETATM    7  C   UNL     1      39.336 -12.866   2.593  1.00  0.00     0.106 A 
HETATM    8  C   UNL     1      38.402 -11.679   2.795  1.00  0.00     0.081 A 
HETATM    9  C   UNL     1      37.552 -11.345   1.700  1.00  0.00     0.100 C 
HETATM   10  N   UNL     1      36.866 -11.077   0.804  1.00  0.00    -0.191 NA
HETATM   11  C   UNL     1      38.330 -10.986   3.962  1.00  0.00     0.140 A 
HETATM   12  O   UNL     1      39.120 -11.312   5.073  1.00  0.00    -0.277 OA
ENDROOT
BRANCH   7  13
HETATM   13  C   UNL     1      40.426 -12.593   1.565  1.00  0.00    -0.041 A 
HETATM   14  C   UNL     1      40.672 -13.524   0.548  1.00  0.00     0.027 A 
HETATM   15  C   UNL     1      41.655 -13.249  -0.392  1.00  0.00     0.116 A 
HETATM   16  N   UNL     1      42.397 -12.123  -0.395  1.00  0.00    -0.273 NA
HETATM   17  C   UNL     1      42.148 -11.232   0.587  1.00  0.00     0.116 A 
HETATM   18  C   UNL     1      41.190 -11.416   1.571  1.00  0.00     0.027 A 
ENDBRANCH   7  13
BRANCH  11  19
HETATM   19  N   UNL     1      37.502  -9.910   4.198  1.00  0.00    -0.282 NA
HETATM   20  H   UNL     1      36.750 -10.061   4.864  1.00  0.00     0.126 HD
HETATM   21  H   UNL     1      37.194  -9.465   3.335  1.00  0.00     0.126 HD
ENDBRANCH  11  19
BRANCH   1  22
HETATM   22  C   UNL     1      41.401 -15.417   3.589  1.00  0.00    -0.007 A 
HETATM   23  C   UNL     1      42.765 -15.719   3.632  1.00  0.00     0.016 A 
HETATM   24  C   UNL     1      43.259 -16.863   2.997  1.00  0.00     0.037 A 
HETATM   25  C   UNL     1      42.401 -17.721   2.306  1.00  0.00     0.069 A 
HETATM   26  C   UNL     1      41.044 -17.413   2.238  1.00  0.00     0.037 A 
HETATM   27  C   UNL     1      40.546 -16.271   2.880  1.00  0.00     0.016 A 
BRANCH  25  28
HETATM   28  O   UNL     1      43.010 -18.811   1.752  1.00  0.00    -0.347 OA
BRANCH  28  29
HETATM   29  C   UNL     1      44.385 -19.026   2.076  1.00  0.00     0.214 C 
BRANCH  29  30
HETATM   30  C   UNL     1      44.519 -20.233   2.978  1.00  0.00    -0.034 A 
HETATM   31  C   UNL     1      44.618 -20.061   4.368  1.00  0.00     0.009 A 
HETATM   32  C   UNL     1      44.719 -21.166   5.215  1.00  0.00     0.001 A 
HETATM   33  C   UNL     1      44.714 -22.455   4.685  1.00  0.00     0.000 A 
HETATM   34  C   UNL     1      44.600 -22.640   3.309  1.00  0.00     0.001 A 
HETATM   35  C   UNL     1      44.496 -21.536   2.460  1.00  0.00     0.009 A 
ENDBRANCH  29  30
ENDBRANCH  28  29
ENDBRANCH  25  28
ENDBRANCH   1  22
TORSDOF 6
ENDMDL
MODEL 4
REMARK VINA RESULT:      -8.3      2.580      4.902
REMARK  6 active torsions:
REMARK  status: ('A' for Active; 'I' for Inactive)
REMARK    1  A    between atoms: C_4  and  C_5 
REMARK    2  A    between atoms: C_5  and  O_6 
REMARK    3  A    between atoms: O_6  and  C_7 
REMARK    4  A    between atoms: C_10  and  C_11 
REMARK    5  A    between atoms: C_17  and  C_18 
REMARK    6  A    between atoms: C_27  and  N_28 
ROOT
HETATM    1  C   UNL     1      41.116 -12.945   4.669  1.00  0.00     0.072 A 
HETATM    2  N   UNL     1      41.661 -11.924   5.423  1.00  0.00    -0.274 N 
HETATM    3  H   UNL     1      42.350 -12.004   6.162  1.00  0.00     0.189 HD
HETATM    4  N   UNL     1      41.178 -10.701   5.129  1.00  0.00    -0.148 NA
HETATM    5  C   UNL     1      40.299 -10.966   4.173  1.00  0.00     0.199 A 
HETATM    6  C   UNL     1      40.224 -12.315   3.817  1.00  0.00     0.040 A 
HETATM    7  C   UNL     1      39.300 -12.757   2.737  1.00  0.00     0.106 A 
HETATM    8  C   UNL     1      38.431 -11.602   2.254  1.00  0.00     0.081 A 
HETATM    9  C   UNL     1      37.393 -11.930   1.331  1.00  0.00     0.100 C 
HETATM   10  N   UNL     1      36.554 -12.203   0.579  1.00  0.00    -0.191 NA
HETATM   11  C   UNL     1      38.585 -10.326   2.696  1.00  0.00     0.140 A 
HETATM   12  O   UNL     1      39.566  -9.976   3.634  1.00  0.00    -0.277 OA
ENDROOT
BRANCH   7  13
HETATM   13  C   UNL     1      40.181 -13.336   1.638  1.00  0.00    -0.041 A 
HETATM   14  C   UNL     1      40.097 -14.698   1.323  1.00  0.00     0.027 A 
HETATM   15  C   UNL     1      40.891 -15.203   0.305  1.00  0.00     0.116 A 
HETATM   16  N   UNL     1      41.750 -14.456  -0.418  1.00  0.00    -0.273 NA
HETATM   17  C   UNL     1      41.819 -13.145  -0.110  1.00  0.00     0.116 A 
HETATM   18  C   UNL     1      41.068 -12.547   0.890  1.00  0.00     0.027 A 
ENDBRANCH   7  13
BRANCH  11  19
HETATM   19  N   UNL     1      37.825  -9.249   2.294  1.00  0.00    -0.282 NA
HETATM   20  H   UNL     1      36.923  -9.142   2.750  1.00  0.00     0.126 HD
HETATM   21  H   UNL     1      37.777  -9.168   1.281  1.00  0.00     0.126 HD
ENDBRANCH  11  19
BRANCH   1  22
HETATM   22  C   UNL     1      41.492 -14.343   4.845  1.00  0.00    -0.007 A 
HETATM   23  C   UNL     1      42.577 -14.883   4.149  1.00  0.00     0.016 A 
HETATM   24  C   UNL     1      42.947 -16.219   4.337  1.00  0.00     0.037 A 
HETATM   25  C   UNL     1      42.239 -17.037   5.219  1.00  0.00     0.069 A 
HETATM   26  C   UNL     1      41.141 -16.513   5.898  1.00  0.00     0.037 A 
HETATM   27  C   UNL     1      40.773 -15.172   5.716  1.00  0.00     0.016 A 
BRANCH  25  28
HETATM   28  O   UNL     1      42.719 -18.312   5.324  1.00  0.00    -0.347 OA
BRANCH  28  29
HETATM   29  C   UNL     1      44.067 -18.537   4.908  1.00  0.00     0.214 C 
BRANCH  29  30
HETATM   30  C   UNL     1      44.117 -19.687   3.927  1.00  0.00    -0.034 A 
HETATM   31  C   UNL     1      44.666 -20.919   4.318  1.00  0.00     0.009 A 
HETATM   32  C   UNL     1      44.699 -21.996   3.432  1.00  0.00     0.001 A 
HETATM   33  C   UNL     1      44.176 -21.860   2.147  1.00  0.00     0.000 A 
HETATM   34  C   UNL     1      43.613 -20.649   1.751  1.00  0.00     0.001 A 
HETATM   35  C   UNL     1      43.578 -19.570   2.638  1.00  0.00     0.009 A 
ENDBRANCH  29  30
ENDBRANCH  28  29
ENDBRANCH  25  28
ENDBRANCH   1  22
TORSDOF 6
ENDMDL
MODEL 5
REMARK VINA RESULT:      -8.3      1.621      2.129
REMARK  6 active torsions:
REMARK  status: ('A' for Active; 'I' for Inactive)
REMARK    1  A    between atoms: C_4  and  C_5 
REMARK    2  A    between atoms: C_5  and  O_6 
REMARK    3  A    between atoms: O_6  and  C_7 
REMARK    4  A    between atoms: C_10  and  C_11 
REMARK    5  A    between atoms: C_17  and  C_18 
REMARK    6  A    between atoms: C_27  and  N_28 
ROOT
HETATM    1  C   UNL     1      41.618 -15.460   0.933  1.00  0.00     0.072 A 
HETATM    2  N   UNL     1      41.258 -16.357  -0.053  1.00  0.00    -0.274 N 
HETATM    3  H   UNL     1      41.142 -17.360   0.039  1.00  0.00     0.189 HD
HETATM    4  N   UNL     1      41.073 -15.801  -1.267  1.00  0.00    -0.148 NA
HETATM    5  C   UNL     1      41.337 -14.523  -1.036  1.00  0.00     0.199 A 
HETATM    6  C   UNL     1      41.651 -14.231   0.294  1.00  0.00     0.040 A 
HETATM    7  C   UNL     1      41.942 -12.831   0.708  1.00  0.00     0.106 A 
HETATM    8  C   UNL     1      41.980 -11.900  -0.499  1.00  0.00     0.081 A 
HETATM    9  C   UNL     1      42.404 -10.561  -0.256  1.00  0.00     0.100 C 
HETATM   10  N   UNL     1      42.748  -9.472  -0.050  1.00  0.00    -0.191 NA
HETATM   11  C   UNL     1      41.673 -12.310  -1.758  1.00  0.00     0.140 A 
HETATM   12  O   UNL     1      41.293 -13.630  -2.040  1.00  0.00    -0.277 OA
ENDROOT
BRANCH   7  13
HETATM   13  C   UNL     1      40.862 -12.454   1.713  1.00  0.00    -0.041 A 
HETATM   14  C   UNL     1      41.218 -12.110   3.023  1.00  0.00     0.027 A 
HETATM   15  C   UNL     1      40.223 -11.749   3.918  1.00  0.00     0.116 A 
HETATM   16  N   UNL     1      38.912 -11.701   3.605  1.00  0.00    -0.273 NA
HETATM   17  C   UNL     1      38.581 -12.030   2.339  1.00  0.00     0.116 A 
HETATM   18  C   UNL     1      39.501 -12.404   1.373  1.00  0.00     0.027 A 
ENDBRANCH   7  13
BRANCH  11  19
HETATM   19  N   UNL     1      41.695 -11.512  -2.881  1.00  0.00    -0.282 NA
HETATM   20  H   UNL     1      41.474 -10.531  -2.737  1.00  0.00     0.126 HD
HETATM   21  H   UNL     1      41.189 -11.930  -3.659  1.00  0.00     0.126 HD
ENDBRANCH  11  19
BRANCH   1  22
HETATM   22  C   UNL     1      41.882 -15.863   2.309  1.00  0.00    -0.007 A 
HETATM   23  C   UNL     1      43.011 -15.393   2.987  1.00  0.00     0.016 A 
HETATM   24  C   UNL     1      43.248 -15.765   4.314  1.00  0.00     0.037 A 
HETATM   25  C   UNL     1      42.365 -16.614   4.985  1.00  0.00     0.069 A 
HETATM   26  C   UNL     1      41.251 -17.105   4.308  1.00  0.00     0.037 A 
HETATM   27  C   UNL     1      41.008 -16.727   2.981  1.00  0.00     0.016 A 
BRANCH  25  28
HETATM   28  O   UNL     1      42.704 -16.878   6.282  1.00  0.00    -0.347 OA
BRANCH  28  29
HETATM   29  C   UNL     1      44.034 -17.339   6.528  1.00  0.00     0.214 C 
BRANCH  29  30
HETATM   30  C   UNL     1      44.130 -18.818   6.227  1.00  0.00    -0.034 A 
HETATM   31  C   UNL     1      44.720 -19.253   5.030  1.00  0.00     0.009 A 
HETATM   32  C   UNL     1      44.837 -20.615   4.748  1.00  0.00     0.001 A 
HETATM   33  C   UNL     1      44.373 -21.560   5.662  1.00  0.00     0.000 A 
HETATM   34  C   UNL     1      43.800 -21.142   6.862  1.00  0.00     0.001 A 
HETATM   35  C   UNL     1      43.684 -19.779   7.146  1.00  0.00     0.009 A 
ENDBRANCH  29  30
ENDBRANCH  28  29
ENDBRANCH  25  28
ENDBRANCH   1  22
TORSDOF 6
ENDMDL
MODEL 6
REMARK VINA RESULT:      -8.2      2.248      3.738
REMARK  6 active torsions:
REMARK  status: ('A' for Active; 'I' for Inactive)
REMARK    1  A    between atoms: C_4  and  C_5 
REMARK    2  A    between atoms: C_5  and  O_6 
REMARK    3  A    between atoms: O_6  and  C_7 
REMARK    4  A    between atoms: C_10  and  C_11 
REMARK    5  A    between atoms: C_17  and  C_18 
REMARK    6  A    between atoms: C_27  and  N_28 
ROOT
HETATM    1  C   UNL     1      41.179 -15.335  -1.140  1.00  0.00     0.072 A 
HETATM    2  N   UNL     1      40.656 -15.996  -2.234  1.00  0.00    -0.274 N 
HETATM    3  H   UNL     1      40.281 -16.938  -2.263  1.00  0.00     0.189 HD
HETATM    4  N   UNL     1      40.689 -15.287  -3.379  1.00  0.00    -0.148 NA
HETATM    5  C   UNL     1      41.260 -14.154  -2.994  1.00  0.00     0.199 A 
HETATM    6  C   UNL     1      41.563 -14.097  -1.630  1.00  0.00     0.040 A 
HETATM    7  C   UNL     1      42.181 -12.874  -1.048  1.00  0.00     0.106 A 
HETATM    8  C   UNL     1      42.525 -11.864  -2.137  1.00  0.00     0.081 A 
HETATM    9  C   UNL     1      43.266 -10.716  -1.728  1.00  0.00     0.100 C 
HETATM   10  N   UNL     1      43.865  -9.784  -1.386  1.00  0.00    -0.191 NA
HETATM   11  C   UNL     1      42.195 -12.044  -3.443  1.00  0.00     0.140 A 
HETATM   12  O   UNL     1      41.505 -13.180  -3.887  1.00  0.00    -0.277 OA
ENDROOT
BRANCH   7  13
HETATM   13  C   UNL     1      41.178 -12.335  -0.037  1.00  0.00    -0.041 A 
HETATM   14  C   UNL     1      39.907 -11.931  -0.464  1.00  0.00     0.027 A 
HETATM   15  C   UNL     1      38.999 -11.463   0.474  1.00  0.00     0.116 A 
HETATM   16  N   UNL     1      39.261 -11.375   1.794  1.00  0.00    -0.273 NA
HETATM   17  C   UNL     1      40.486 -11.771   2.195  1.00  0.00     0.116 A 
HETATM   18  C   UNL     1      41.462 -12.252   1.335  1.00  0.00     0.027 A 
ENDBRANCH   7  13
BRANCH  11  19
HETATM   19  N   UNL     1      42.485 -11.166  -4.464  1.00  0.00    -0.282 NA
HETATM   20  H   UNL     1      41.739 -10.533  -4.736  1.00  0.00     0.126 HD
HETATM   21  H   UNL     1      42.930 -11.629  -5.255  1.00  0.00     0.126 HD
ENDBRANCH  11  19
BRANCH   1  22
HETATM   22  C   UNL     1      41.251 -15.936   0.186  1.00  0.00    -0.007 A 
HETATM   23  C   UNL     1      40.259 -15.683   1.138  1.00  0.00     0.016 A 
HETATM   24  C   UNL     1      40.321 -16.279   2.402  1.00  0.00     0.037 A 
HETATM   25  C   UNL     1      41.373 -17.133   2.737  1.00  0.00     0.069 A 
HETATM   26  C   UNL     1      42.378 -17.370   1.801  1.00  0.00     0.037 A 
HETATM   27  C   UNL     1      42.314 -16.780   0.532  1.00  0.00     0.016 A 
BRANCH  25  28
HETATM   28  O   UNL     1      41.299 -17.663   3.994  1.00  0.00    -0.347 OA
BRANCH  28  29
HETATM   29  C   UNL     1      42.276 -17.232   4.943  1.00  0.00     0.214 C 
BRANCH  29  30
HETATM   30  C   UNL     1      42.234 -15.726   5.078  1.00  0.00    -0.034 A 
HETATM   31  C   UNL     1      43.263 -14.945   4.530  1.00  0.00     0.009 A 
HETATM   32  C   UNL     1      43.226 -13.553   4.627  1.00  0.00     0.001 A 
HETATM   33  C   UNL     1      42.157 -12.924   5.262  1.00  0.00     0.000 A 
HETATM   34  C   UNL     1      41.120 -13.687   5.795  1.00  0.00     0.001 A 
HETATM   35  C   UNL     1      41.154 -15.081   5.698  1.00  0.00     0.009 A 
ENDBRANCH  29  30
ENDBRANCH  28  29
ENDBRANCH  25  28
ENDBRANCH   1  22
TORSDOF 6
ENDMDL
MODEL 7
REMARK VINA RESULT:      -8.1      2.260      4.107
REMARK  6 active torsions:
REMARK  status: ('A' for Active; 'I' for Inactive)
REMARK    1  A    between atoms: C_4  and  C_5 
REMARK    2  A    between atoms: C_5  and  O_6 
REMARK    3  A    between atoms: O_6  and  C_7 
REMARK    4  A    between atoms: C_10  and  C_11 
REMARK    5  A    between atoms: C_17  and  C_18 
REMARK    6  A    between atoms: C_27  and  N_28 
ROOT
HETATM    1  C   UNL     1      40.012 -13.518   2.411  1.00  0.00     0.072 A 
HETATM    2  N   UNL     1      39.581 -12.861   3.547  1.00  0.00    -0.274 N 
HETATM    3  H   UNL     1      39.916 -12.987   4.495  1.00  0.00     0.189 HD
HETATM    4  N   UNL     1      38.584 -11.980   3.333  1.00  0.00    -0.148 NA
HETATM    5  C   UNL     1      38.377 -12.098   2.029  1.00  0.00     0.199 A 
HETATM    6  C   UNL     1      39.232 -12.999   1.389  1.00  0.00     0.040 A 
HETATM    7  C   UNL     1      39.136 -13.214  -0.081  1.00  0.00     0.106 A 
HETATM    8  C   UNL     1      37.949 -12.457  -0.667  1.00  0.00     0.081 A 
HETATM    9  C   UNL     1      37.653 -12.705  -2.040  1.00  0.00     0.100 C 
HETATM   10  N   UNL     1      37.420 -12.910  -3.158  1.00  0.00    -0.191 NA
HETATM   11  C   UNL     1      37.171 -11.620   0.068  1.00  0.00     0.140 A 
HETATM   12  O   UNL     1      37.407 -11.385   1.429  1.00  0.00    -0.277 OA
ENDROOT
BRANCH   7  13
HETATM   13  C   UNL     1      40.470 -12.764  -0.661  1.00  0.00    -0.041 A 
HETATM   14  C   UNL     1      41.203 -13.634  -1.478  1.00  0.00     0.027 A 
HETATM   15  C   UNL     1      42.406 -13.201  -2.015  1.00  0.00     0.116 A 
HETATM   16  N   UNL     1      42.922 -11.973  -1.804  1.00  0.00    -0.273 NA
HETATM   17  C   UNL     1      42.206 -11.141  -1.021  1.00  0.00     0.116 A 
HETATM   18  C   UNL     1      40.995 -11.482  -0.438  1.00  0.00     0.027 A 
ENDBRANCH   7  13
BRANCH  11  19
HETATM   19  N   UNL     1      36.087 -10.916  -0.412  1.00  0.00    -0.282 NA
HETATM   20  H   UNL     1      35.792 -10.117   0.141  1.00  0.00     0.126 HD
HETATM   21  H   UNL     1      35.319 -11.529  -0.678  1.00  0.00     0.126 HD
ENDBRANCH  11  19
BRANCH   1  22
HETATM   22  C   UNL     1      41.069 -14.522   2.432  1.00  0.00    -0.007 A 
HETATM   23  C   UNL     1      40.812 -15.837   2.034  1.00  0.00     0.016 A 
HETATM   24  C   UNL     1      41.834 -16.791   2.035  1.00  0.00     0.037 A 
HETATM   25  C   UNL     1      43.127 -16.450   2.437  1.00  0.00     0.069 A 
HETATM   26  C   UNL     1      43.385 -15.147   2.859  1.00  0.00     0.037 A 
HETATM   27  C   UNL     1      42.364 -14.188   2.851  1.00  0.00     0.016 A 
BRANCH  25  28
HETATM   28  O   UNL     1      44.032 -17.471   2.369  1.00  0.00    -0.347 OA
BRANCH  28  29
HETATM   29  C   UNL     1      43.611 -18.675   1.726  1.00  0.00     0.214 C 
BRANCH  29  30
HETATM   30  C   UNL     1      44.032 -19.873   2.548  1.00  0.00    -0.034 A 
HETATM   31  C   UNL     1      44.403 -19.705   3.891  1.00  0.00     0.009 A 
HETATM   32  C   UNL     1      44.772 -20.803   4.669  1.00  0.00     0.001 A 
HETATM   33  C   UNL     1      44.766 -22.083   4.118  1.00  0.00     0.000 A 
HETATM   34  C   UNL     1      44.384 -22.266   2.791  1.00  0.00     0.001 A 
HETATM   35  C   UNL     1      44.013 -21.168   2.011  1.00  0.00     0.009 A 
ENDBRANCH  29  30
ENDBRANCH  28  29
ENDBRANCH  25  28
ENDBRANCH   1  22
TORSDOF 6
ENDMDL
MODEL 8
REMARK VINA RESULT:      -8.0      5.999      9.046
REMARK  6 active torsions:
REMARK  status: ('A' for Active; 'I' for Inactive)
REMARK    1  A    between atoms: C_4  and  C_5 
REMARK    2  A    between atoms: C_5  and  O_6 
REMARK    3  A    between atoms: O_6  and  C_7 
REMARK    4  A    between atoms: C_10  and  C_11 
REMARK    5  A    between atoms: C_17  and  C_18 
REMARK    6  A    between atoms: C_27  and  N_28 
ROOT
HETATM    1  C   UNL     1      44.330 -12.140   8.395  1.00  0.00     0.072 A 
HETATM    2  N   UNL     1      45.639 -11.762   8.622  1.00  0.00    -0.274 N 
HETATM    3  H   UNL     1      46.472 -12.127   8.174  1.00  0.00     0.189 HD
HETATM    4  N   UNL     1      45.785 -10.818   9.573  1.00  0.00    -0.148 NA
HETATM    5  C   UNL     1      44.535 -10.608   9.959  1.00  0.00     0.199 A 
HETATM    6  C   UNL     1      43.584 -11.360   9.264  1.00  0.00     0.040 A 
HETATM    7  C   UNL     1      42.135 -11.208   9.569  1.00  0.00     0.106 A 
HETATM    8  C   UNL     1      41.923 -10.287  10.766  1.00  0.00     0.081 A 
HETATM    9  C   UNL     1      40.588 -10.184  11.259  1.00  0.00     0.100 C 
HETATM   10  N   UNL     1      39.500 -10.102  11.652  1.00  0.00    -0.191 NA
HETATM   11  C   UNL     1      42.939  -9.623  11.377  1.00  0.00     0.140 A 
HETATM   12  O   UNL     1      44.268  -9.735  10.945  1.00  0.00    -0.277 OA
ENDROOT
BRANCH   7  13
HETATM   13  C   UNL     1      41.488 -10.683   8.295  1.00  0.00    -0.041 A 
HETATM   14  C   UNL     1      40.383 -11.350   7.749  1.00  0.00     0.027 A 
HETATM   15  C   UNL     1      39.793 -10.845   6.600  1.00  0.00     0.116 A 
HETATM   16  N   UNL     1      40.215  -9.733   5.966  1.00  0.00    -0.273 NA
HETATM   17  C   UNL     1      41.276  -9.096   6.503  1.00  0.00     0.116 A 
HETATM   18  C   UNL     1      41.934  -9.521   7.647  1.00  0.00     0.027 A 
ENDBRANCH   7  13
BRANCH  11  19
HETATM   19  N   UNL     1      42.801  -8.784  12.461  1.00  0.00    -0.282 NA
HETATM   20  H   UNL     1      41.851  -8.514  12.701  1.00  0.00     0.126 HD
HETATM   21  H   UNL     1      43.447  -7.997  12.422  1.00  0.00     0.126 HD
ENDBRANCH  11  19
BRANCH   1  22
HETATM   22  C   UNL     1      43.961 -13.160   7.420  1.00  0.00    -0.007 A 
HETATM   23  C   UNL     1      44.387 -14.482   7.574  1.00  0.00     0.016 A 
HETATM   24  C   UNL     1      44.012 -15.460   6.648  1.00  0.00     0.037 A 
HETATM   25  C   UNL     1      43.210 -15.136   5.553  1.00  0.00     0.069 A 
HETATM   26  C   UNL     1      42.801 -13.815   5.379  1.00  0.00     0.037 A 
HETATM   27  C   UNL     1      43.170 -12.834   6.310  1.00  0.00     0.016 A 
BRANCH  25  28
HETATM   28  O   UNL     1      42.900 -16.190   4.740  1.00  0.00    -0.347 OA
BRANCH  28  29
HETATM   29  C   UNL     1      42.944 -17.495   5.320  1.00  0.00     0.214 C 
BRANCH  29  30
HETATM   30  C   UNL     1      43.411 -18.500   4.291  1.00  0.00    -0.034 A 
HETATM   31  C   UNL     1      44.371 -19.463   4.638  1.00  0.00     0.009 A 
HETATM   32  C   UNL     1      44.796 -20.411   3.706  1.00  0.00     0.001 A 
HETATM   33  C   UNL     1      44.260 -20.415   2.419  1.00  0.00     0.000 A 
HETATM   34  C   UNL     1      43.294 -19.475   2.067  1.00  0.00     0.001 A 
HETATM   35  C   UNL     1      42.866 -18.526   2.998  1.00  0.00     0.009 A 
ENDBRANCH  29  30
ENDBRANCH  28  29
ENDBRANCH  25  28
ENDBRANCH   1  22
TORSDOF 6
ENDMDL
MODEL 9
REMARK VINA RESULT:      -7.9      1.491      1.937
REMARK  6 active torsions:
REMARK  status: ('A' for Active; 'I' for Inactive)
REMARK    1  A    between atoms: C_4  and  C_5 
REMARK    2  A    between atoms: C_5  and  O_6 
REMARK    3  A    between atoms: O_6  and  C_7 
REMARK    4  A    between atoms: C_10  and  C_11 
REMARK    5  A    between atoms: C_17  and  C_18 
REMARK    6  A    between atoms: C_27  and  N_28 
ROOT
HETATM    1  C   UNL     1      39.821 -14.234  -1.274  1.00  0.00     0.072 A 
HETATM    2  N   UNL     1      38.789 -14.623  -2.106  1.00  0.00    -0.274 N 
HETATM    3  H   UNL     1      38.289 -15.505  -2.097  1.00  0.00     0.189 HD
HETATM    4  N   UNL     1      38.456 -13.709  -3.039  1.00  0.00    -0.148 NA
HETATM    5  C   UNL     1      39.311 -12.727  -2.792  1.00  0.00     0.199 A 
HETATM    6  C   UNL     1      40.160 -12.963  -1.707  1.00  0.00     0.040 A 
HETATM    7  C   UNL     1      41.155 -11.935  -1.293  1.00  0.00     0.106 A 
HETATM    8  C   UNL     1      41.172 -10.766  -2.271  1.00  0.00     0.081 A 
HETATM    9  C   UNL     1      42.191  -9.788  -2.076  1.00  0.00     0.100 C 
HETATM   10  N   UNL     1      43.021  -8.995  -1.908  1.00  0.00    -0.191 NA
HETATM   11  C   UNL     1      40.302 -10.659  -3.311  1.00  0.00     0.140 A 
HETATM   12  O   UNL     1      39.315 -11.623  -3.558  1.00  0.00    -0.277 OA
ENDROOT
BRANCH   7  13
HETATM   13  C   UNL     1      40.768 -11.519   0.120  1.00  0.00    -0.041 A 
HETATM   14  C   UNL     1      41.613 -11.830   1.193  1.00  0.00     0.027 A 
HETATM   15  C   UNL     1      41.255 -11.425   2.470  1.00  0.00     0.116 A 
HETATM   16  N   UNL     1      40.132 -10.734   2.752  1.00  0.00    -0.273 NA
HETATM   17  C   UNL     1      39.329 -10.436   1.710  1.00  0.00     0.116 A 
HETATM   18  C   UNL     1      39.598 -10.797   0.399  1.00  0.00     0.027 A 
ENDBRANCH   7  13
BRANCH  11  19
HETATM   19  N   UNL     1      40.278  -9.627  -4.224  1.00  0.00    -0.282 NA
HETATM   20  H   UNL     1      39.472  -9.595  -4.841  1.00  0.00     0.126 HD
HETATM   21  H   UNL     1      41.165  -9.525  -4.712  1.00  0.00     0.126 HD
ENDBRANCH  11  19
BRANCH   1  22
HETATM   22  C   UNL     1      40.341 -15.086  -0.211  1.00  0.00    -0.007 A 
HETATM   23  C   UNL     1      39.834 -14.996   1.088  1.00  0.00     0.016 A 
HETATM   24  C   UNL     1      40.321 -15.830   2.099  1.00  0.00     0.037 A 
HETATM   25  C   UNL     1      41.324 -16.764   1.832  1.00  0.00     0.069 A 
HETATM   26  C   UNL     1      41.851 -16.843   0.545  1.00  0.00     0.037 A 
HETATM   27  C   UNL     1      41.359 -16.013  -0.472  1.00  0.00     0.016 A 
BRANCH  25  28
HETATM   28  O   UNL     1      41.691 -17.528   2.903  1.00  0.00    -0.347 OA
BRANCH  28  29
HETATM   29  C   UNL     1      43.084 -17.587   3.216  1.00  0.00     0.214 C 
BRANCH  29  30
HETATM   30  C   UNL     1      43.582 -19.008   3.084  1.00  0.00    -0.034 A 
HETATM   31  C   UNL     1      44.353 -19.579   4.109  1.00  0.00     0.009 A 
HETATM   32  C   UNL     1      44.801 -20.897   4.011  1.00  0.00     0.001 A 
HETATM   33  C   UNL     1      44.477 -21.665   2.894  1.00  0.00     0.000 A 
HETATM   34  C   UNL     1      43.698 -21.116   1.878  1.00  0.00     0.001 A 
HETATM   35  C   UNL     1      43.247 -19.797   1.974  1.00  0.00     0.009 A 
ENDBRANCH  29  30
ENDBRANCH  28  29
ENDBRANCH  25  28
ENDBRANCH   1  22
TORSDOF 6
ENDMDL
MODEL 10
REMARK VINA RESULT:      -7.9      2.274      4.157
REMARK  6 active torsions:
REMARK  status: ('A' for Active; 'I' for Inactive)
REMARK    1  A    between atoms: C_4  and  C_5 
REMARK    2  A    between atoms: C_5  and  O_6 
REMARK    3  A    between atoms: O_6  and  C_7 
REMARK    4  A    between atoms: C_10  and  C_11 
REMARK    5  A    between atoms: C_17  and  C_18 
REMARK    6  A    between atoms: C_27  and  N_28 
ROOT
HETATM    1  C   UNL     1      40.935 -12.344   1.095  1.00  0.00     0.072 A 
HETATM    2  N   UNL     1      41.617 -11.264   1.620  1.00  0.00    -0.274 N 
HETATM    3  H   UNL     1      42.298 -11.272   2.372  1.00  0.00     0.189 HD
HETATM    4  N   UNL     1      41.296 -10.081   1.061  1.00  0.00    -0.148 NA
HETATM    5  C   UNL     1      40.379 -10.429   0.169  1.00  0.00     0.199 A 
HETATM    6  C   UNL     1      40.124 -11.802   0.111  1.00  0.00     0.040 A 
HETATM    7  C   UNL     1      39.138 -12.343  -0.864  1.00  0.00     0.106 A 
HETATM    8  C   UNL     1      38.423 -11.216  -1.600  1.00  0.00     0.081 A 
HETATM    9  C   UNL     1      37.342 -11.597  -2.449  1.00  0.00     0.100 C 
HETATM   10  N   UNL     1      36.466 -11.915  -3.140  1.00  0.00    -0.191 NA
HETATM   11  C   UNL     1      38.748  -9.906  -1.441  1.00  0.00     0.140 A 
HETATM   12  O   UNL     1      39.777  -9.492  -0.584  1.00  0.00    -0.277 OA
ENDROOT
BRANCH   7  13
HETATM   13  C   UNL     1      39.923 -13.255  -1.796  1.00  0.00    -0.041 A 
HETATM   14  C   UNL     1      40.893 -12.711  -2.648  1.00  0.00     0.027 A 
HETATM   15  C   UNL     1      41.614 -13.559  -3.476  1.00  0.00     0.116 A 
HETATM   16  N   UNL     1      41.444 -14.896  -3.511  1.00  0.00    -0.273 NA
HETATM   17  C   UNL     1      40.511 -15.409  -2.684  1.00  0.00     0.116 A 
HETATM   18  C   UNL     1      39.740 -14.646  -1.821  1.00  0.00     0.027 A 
ENDBRANCH   7  13
BRANCH  11  19
HETATM   19  N   UNL     1      38.132  -8.851  -2.079  1.00  0.00    -0.282 NA
HETATM   20  H   UNL     1      37.966  -8.965  -3.075  1.00  0.00     0.126 HD
HETATM   21  H   UNL     1      38.556  -7.957  -1.841  1.00  0.00     0.126 HD
ENDBRANCH  11  19
BRANCH   1  22
HETATM   22  C   UNL     1      41.126 -13.708   1.575  1.00  0.00    -0.007 A 
HETATM   23  C   UNL     1      42.169 -14.498   1.083  1.00  0.00     0.016 A 
HETATM   24  C   UNL     1      42.361 -15.797   1.562  1.00  0.00     0.037 A 
HETATM   25  C   UNL     1      41.515 -16.331   2.536  1.00  0.00     0.069 A 
HETATM   26  C   UNL     1      40.458 -15.558   3.013  1.00  0.00     0.037 A 
HETATM   27  C   UNL     1      40.268 -14.253   2.540  1.00  0.00     0.016 A 
BRANCH  25  28
HETATM   28  O   UNL     1      41.828 -17.601   2.930  1.00  0.00    -0.347 OA
BRANCH  28  29
HETATM   29  C   UNL     1      43.133 -17.812   3.472  1.00  0.00     0.214 C 
BRANCH  29  30
HETATM   30  C   UNL     1      43.577 -19.234   3.207  1.00  0.00    -0.034 A 
HETATM   31  C   UNL     1      43.189 -19.879   2.022  1.00  0.00     0.009 A 
HETATM   32  C   UNL     1      43.609 -21.182   1.752  1.00  0.00     0.001 A 
HETATM   33  C   UNL     1      44.429 -21.853   2.657  1.00  0.00     0.000 A 
HETATM   34  C   UNL     1      44.835 -21.219   3.829  1.00  0.00     0.001 A 
HETATM   35  C   UNL     1      44.417 -19.914   4.101  1.00  0.00     0.009 A 
ENDBRANCH  29  30
ENDBRANCH  28  29
ENDBRANCH  25  28
ENDBRANCH   1  22
TORSDOF 6
ENDMDL
