MODEL 1
REMARK VINA RESULT:      -8.6      0.000      0.000
REMARK  8 active torsions:
REMARK  status: ('A' for Active; 'I' for Inactive)
REMARK    1  A    between atoms: C_2  and  O_3 
REMARK    2  A    between atoms: O_3  and  C_4 
REMARK    3  A    between atoms: C_4  and  C_5 
REMARK    4  A    between atoms: C_6  and  O_7 
REMARK    5  A    between atoms: C_6  and  C_8 
REMARK    6  A    between atoms: C_16  and  C_17 
REMARK    7  A    between atoms: C_18  and  C_19 
REMARK    8  A    between atoms: N_26  and  C_27 
ROOT
HETATM    1  C   UNL     1      40.798 -13.746   1.329  1.00  0.00     0.177 C 
HETATM    2  C   UNL     1      39.548 -14.427   0.765  1.00  0.00     0.250 C 
HETATM    3  N   UNL     1      39.766 -14.984  -0.556  1.00  0.00    -0.303 N 
HETATM    4  C   UNL     1      40.960 -15.355  -1.061  1.00  0.00     0.319 C 
HETATM    5  O   UNL     1      41.036 -15.937  -2.136  1.00  0.00    -0.247 OA
HETATM    6  N   UNL     1      42.062 -15.035  -0.349  1.00  0.00    -0.333 N 
HETATM    7  C   UNL     1      42.070 -14.533   1.014  1.00  0.00     0.142 C 
HETATM    8  H   UNL     1      38.975 -15.276  -1.118  1.00  0.00     0.167 HD
HETATM    9  H   UNL     1      42.925 -15.398  -0.737  1.00  0.00     0.165 HD
ENDROOT
BRANCH   7  10
HETATM   10  C   UNL     1      42.342 -15.692   1.943  1.00  0.00     0.015 A 
HETATM   11  C   UNL     1      42.151 -15.804   3.361  1.00  0.00     0.097 A 
HETATM   12  N   UNL     1      42.537 -17.017   3.794  1.00  0.00    -0.167 NA
HETATM   13  N   UNL     1      42.992 -17.682   2.714  1.00  0.00    -0.244 N 
HETATM   14  C   UNL     1      42.901 -16.909   1.589  1.00  0.00     0.130 A 
BRANCH  11  15
HETATM   15  C   UNL     1      41.656 -14.832   4.351  1.00  0.00    -0.005 A 
HETATM   16  C   UNL     1      42.434 -13.773   4.832  1.00  0.00     0.014 A 
HETATM   17  C   UNL     1      41.916 -12.865   5.764  1.00  0.00     0.001 A 
HETATM   18  C   UNL     1      40.606 -12.994   6.219  1.00  0.00     0.000 A 
HETATM   19  C   UNL     1      39.811 -14.031   5.742  1.00  0.00     0.001 A 
HETATM   20  C   UNL     1      40.333 -14.940   4.818  1.00  0.00     0.014 A 
ENDBRANCH  11  15
BRANCH  13  21
HETATM   21  C   UNL     1      43.501 -19.008   2.824  1.00  0.00     0.058 A 
HETATM   22  C   UNL     1      43.268 -19.924   1.787  1.00  0.00     0.031 A 
HETATM   23  C   UNL     1      43.760 -21.228   1.877  1.00  0.00     0.002 A 
HETATM   24  C   UNL     1      44.481 -21.628   3.000  1.00  0.00     0.000 A 
HETATM   25  C   UNL     1      44.712 -20.724   4.037  1.00  0.00     0.002 A 
HETATM   26  C   UNL     1      44.228 -19.416   3.952  1.00  0.00     0.031 A 
ENDBRANCH  13  21
ENDBRANCH   7  10
BRANCH   1  27
HETATM   27  C   UNL     1      40.993 -12.326   0.850  1.00  0.00     0.270 C 
HETATM   28  O   UNL     1      41.044 -11.373   1.616  1.00  0.00    -0.265 OA
BRANCH  27  29
HETATM   29  O   UNL     1      41.162 -12.250  -0.494  1.00  0.00    -0.321 OA
BRANCH  29  30
HETATM   30  C   UNL     1      42.273 -11.472  -0.968  1.00  0.00     0.174 C 
HETATM   31  C   UNL     1      42.769 -12.000  -2.301  1.00  0.00     0.034 C 
ENDBRANCH  29  30
ENDBRANCH  27  29
ENDBRANCH   1  27
BRANCH   2  32
HETATM   32  O   UNL     1      39.269 -15.580   1.585  1.00  0.00    -0.363 OA
HETATM   33  H   UNL     1      38.528 -16.053   1.165  1.00  0.00     0.213 HD
ENDBRANCH   2  32
BRANCH   2  34
HETATM   34  C   UNL     1      38.298 -13.482   0.831  1.00  0.00     0.439 C 
HETATM   35  F   UNL     1      38.270 -12.769   1.978  1.00  0.00    -0.166 F 
HETATM   36  F   UNL     1      38.225 -12.617  -0.197  1.00  0.00    -0.166 F 
HETATM   37  F   UNL     1      37.166 -14.234   0.795  1.00  0.00    -0.166 F 
ENDBRANCH   2  34
TORSDOF 8
ENDMDL
MODEL 2
REMARK VINA RESULT:      -8.2      3.124      6.439
REMARK  8 active torsions:
REMARK  status: ('A' for Active; 'I' for Inactive)
REMARK    1  A    between atoms: C_2  and  O_3 
REMARK    2  A    between atoms: O_3  and  C_4 
REMARK    3  A    between atoms: C_4  and  C_5 
REMARK    4  A    between atoms: C_6  and  O_7 
REMARK    5  A    between atoms: C_6  and  C_8 
REMARK    6  A    between atoms: C_16  and  C_17 
REMARK    7  A    between atoms: C_18  and  C_19 
REMARK    8  A    between atoms: N_26  and  C_27 
ROOT
HETATM    1  C   UNL     1      41.934 -16.064   3.059  1.00  0.00     0.177 C 
HETATM    2  C   UNL     1      41.781 -14.608   2.612  1.00  0.00     0.250 C 
HETATM    3  N   UNL     1      40.651 -13.949   3.239  1.00  0.00    -0.303 N 
HETATM    4  C   UNL     1      40.094 -14.303   4.415  1.00  0.00     0.319 C 
HETATM    5  O   UNL     1      39.226 -13.612   4.934  1.00  0.00    -0.247 OA
HETATM    6  N   UNL     1      40.511 -15.458   4.978  1.00  0.00    -0.333 N 
HETATM    7  C   UNL     1      41.661 -16.236   4.553  1.00  0.00     0.142 C 
HETATM    8  H   UNL     1      40.321 -13.061   2.880  1.00  0.00     0.167 HD
HETATM    9  H   UNL     1      40.112 -15.640   5.892  1.00  0.00     0.165 HD
ENDROOT
BRANCH   7  10
HETATM   10  C   UNL     1      42.824 -15.890   5.451  1.00  0.00     0.015 A 
HETATM   11  C   UNL     1      43.824 -16.736   6.037  1.00  0.00     0.097 A 
HETATM   12  N   UNL     1      44.675 -16.013   6.786  1.00  0.00    -0.167 NA
HETATM   13  N   UNL     1      44.248 -14.736   6.725  1.00  0.00    -0.244 N 
HETATM   14  C   UNL     1      43.131 -14.631   5.942  1.00  0.00     0.130 A 
BRANCH  11  15
HETATM   15  C   UNL     1      44.019 -18.195   5.968  1.00  0.00    -0.005 A 
HETATM   16  C   UNL     1      44.781 -18.814   4.971  1.00  0.00     0.014 A 
HETATM   17  C   UNL     1      44.948 -20.205   4.953  1.00  0.00     0.001 A 
HETATM   18  C   UNL     1      44.367 -20.996   5.940  1.00  0.00     0.000 A 
HETATM   19  C   UNL     1      43.617 -20.400   6.949  1.00  0.00     0.001 A 
HETATM   20  C   UNL     1      43.446 -19.013   6.960  1.00  0.00     0.014 A 
ENDBRANCH  11  15
BRANCH  13  21
HETATM   21  C   UNL     1      44.921 -13.698   7.429  1.00  0.00     0.058 A 
HETATM   22  C   UNL     1      46.185 -13.274   6.992  1.00  0.00     0.031 A 
HETATM   23  C   UNL     1      46.860 -12.258   7.671  1.00  0.00     0.002 A 
HETATM   24  C   UNL     1      46.282 -11.660   8.790  1.00  0.00     0.000 A 
HETATM   25  C   UNL     1      45.029 -12.079   9.233  1.00  0.00     0.002 A 
HETATM   26  C   UNL     1      44.345 -13.093   8.557  1.00  0.00     0.031 A 
ENDBRANCH  13  21
ENDBRANCH   7  10
BRANCH   1  27
HETATM   27  C   UNL     1      41.052 -17.033   2.305  1.00  0.00     0.270 C 
HETATM   28  O   UNL     1      39.830 -17.009   2.382  1.00  0.00    -0.265 OA
BRANCH  27  29
HETATM   29  O   UNL     1      41.762 -17.868   1.506  1.00  0.00    -0.321 OA
BRANCH  29  30
HETATM   30  C   UNL     1      43.038 -18.312   1.998  1.00  0.00     0.174 C 
HETATM   31  C   UNL     1      43.172 -19.817   1.862  1.00  0.00     0.034 C 
ENDBRANCH  29  30
ENDBRANCH  27  29
ENDBRANCH   1  27
BRANCH   2  32
HETATM   32  O   UNL     1      42.923 -13.876   3.102  1.00  0.00    -0.363 OA
HETATM   33  H   UNL     1      42.736 -13.650   4.031  1.00  0.00     0.213 HD
ENDBRANCH   2  32
BRANCH   2  34
HETATM   34  C   UNL     1      41.770 -14.483   1.049  1.00  0.00     0.439 C 
HETATM   35  F   UNL     1      42.177 -13.261   0.642  1.00  0.00    -0.166 F 
HETATM   36  F   UNL     1      42.537 -15.402   0.432  1.00  0.00    -0.166 F 
HETATM   37  F   UNL     1      40.501 -14.659   0.594  1.00  0.00    -0.166 F 
ENDBRANCH   2  34
TORSDOF 8
ENDMDL
MODEL 3
REMARK VINA RESULT:      -8.0      3.405      7.457
REMARK  8 active torsions:
REMARK  status: ('A' for Active; 'I' for Inactive)
REMARK    1  A    between atoms: C_2  and  O_3 
REMARK    2  A    between atoms: O_3  and  C_4 
REMARK    3  A    between atoms: C_4  and  C_5 
REMARK    4  A    between atoms: C_6  and  O_7 
REMARK    5  A    between atoms: C_6  and  C_8 
REMARK    6  A    between atoms: C_16  and  C_17 
REMARK    7  A    between atoms: C_18  and  C_19 
REMARK    8  A    between atoms: N_26  and  C_27 
ROOT
HETATM    1  C   UNL     1      42.852 -15.791   4.875  1.00  0.00     0.177 C 
HETATM    2  C   UNL     1      41.434 -15.720   5.449  1.00  0.00     0.250 C 
HETATM    3  N   UNL     1      41.155 -14.447   6.085  1.00  0.00    -0.303 N 
HETATM    4  C   UNL     1      41.776 -13.282   5.808  1.00  0.00     0.319 C 
HETATM    5  O   UNL     1      41.387 -12.229   6.299  1.00  0.00    -0.247 OA
HETATM    6  N   UNL     1      42.852 -13.329   4.994  1.00  0.00    -0.333 N 
HETATM    7  C   UNL     1      43.266 -14.479   4.209  1.00  0.00     0.142 C 
HETATM    8  H   UNL     1      40.338 -14.346   6.676  1.00  0.00     0.167 HD
HETATM    9  H   UNL     1      43.236 -12.420   4.763  1.00  0.00     0.165 HD
ENDROOT
BRANCH   7  10
HETATM   10  C   UNL     1      42.757 -14.297   2.800  1.00  0.00     0.015 A 
HETATM   11  C   UNL     1      42.564 -15.263   1.755  1.00  0.00     0.097 A 
HETATM   12  N   UNL     1      42.099 -14.667   0.642  1.00  0.00    -0.167 NA
HETATM   13  N   UNL     1      42.008 -13.352   0.922  1.00  0.00    -0.244 N 
HETATM   14  C   UNL     1      42.408 -13.096   2.205  1.00  0.00     0.130 A 
BRANCH  11  15
HETATM   15  C   UNL     1      42.819 -16.713   1.719  1.00  0.00    -0.005 A 
HETATM   16  C   UNL     1      44.106 -17.260   1.743  1.00  0.00     0.014 A 
HETATM   17  C   UNL     1      44.299 -18.648   1.720  1.00  0.00     0.001 A 
HETATM   18  C   UNL     1      43.205 -19.509   1.686  1.00  0.00     0.000 A 
HETATM   19  C   UNL     1      41.917 -18.986   1.676  1.00  0.00     0.001 A 
HETATM   20  C   UNL     1      41.728 -17.602   1.692  1.00  0.00     0.014 A 
ENDBRANCH  11  15
BRANCH  13  21
HETATM   21  C   UNL     1      41.560 -12.419  -0.055  1.00  0.00     0.058 A 
HETATM   22  C   UNL     1      40.241 -11.943  -0.003  1.00  0.00     0.031 A 
HETATM   23  C   UNL     1      39.784 -11.028  -0.954  1.00  0.00     0.002 A 
HETATM   24  C   UNL     1      40.637 -10.584  -1.963  1.00  0.00     0.000 A 
HETATM   25  C   UNL     1      41.948 -11.055  -2.024  1.00  0.00     0.002 A 
HETATM   26  C   UNL     1      42.413 -11.968  -1.074  1.00  0.00     0.031 A 
ENDBRANCH  13  21
ENDBRANCH   7  10
BRANCH   1  27
HETATM   27  C   UNL     1      43.909 -16.157   5.892  1.00  0.00     0.270 C 
HETATM   28  O   UNL     1      44.226 -15.412   6.810  1.00  0.00    -0.265 OA
BRANCH  27  29
HETATM   29  O   UNL     1      44.402 -17.406   5.702  1.00  0.00    -0.321 OA
BRANCH  29  30
HETATM   30  C   UNL     1      44.889 -18.098   6.863  1.00  0.00     0.174 C 
HETATM   31  C   UNL     1      44.038 -19.319   7.157  1.00  0.00     0.034 C 
ENDBRANCH  29  30
ENDBRANCH  27  29
ENDBRANCH   1  27
BRANCH   2  32
HETATM   32  O   UNL     1      40.510 -15.765   4.343  1.00  0.00    -0.363 OA
HETATM   33  H   UNL     1      39.615 -15.703   4.721  1.00  0.00     0.213 HD
ENDBRANCH   2  32
BRANCH   2  34
HETATM   34  C   UNL     1      41.126 -16.947   6.377  1.00  0.00     0.439 C 
HETATM   35  F   UNL     1      41.388 -18.119   5.759  1.00  0.00    -0.166 F 
HETATM   36  F   UNL     1      41.810 -16.927   7.536  1.00  0.00    -0.166 F 
HETATM   37  F   UNL     1      39.806 -16.945   6.698  1.00  0.00    -0.166 F 
ENDBRANCH   2  34
TORSDOF 8
ENDMDL
MODEL 4
REMARK VINA RESULT:      -7.8      3.078      4.502
REMARK  8 active torsions:
REMARK  status: ('A' for Active; 'I' for Inactive)
REMARK    1  A    between atoms: C_2  and  O_3 
REMARK    2  A    between atoms: O_3  and  C_4 
REMARK    3  A    between atoms: C_4  and  C_5 
REMARK    4  A    between atoms: C_6  and  O_7 
REMARK    5  A    between atoms: C_6  and  C_8 
REMARK    6  A    between atoms: C_16  and  C_17 
REMARK    7  A    between atoms: C_18  and  C_19 
REMARK    8  A    between atoms: N_26  and  C_27 
ROOT
HETATM    1  C   UNL     1      41.712 -13.201   5.354  1.00  0.00     0.177 C 
HETATM    2  C   UNL     1      40.316 -13.797   5.551  1.00  0.00     0.250 C 
HETATM    3  N   UNL     1      39.797 -14.411   4.344  1.00  0.00    -0.303 N 
HETATM    4  C   UNL     1      40.543 -14.891   3.328  1.00  0.00     0.319 C 
HETATM    5  O   UNL     1      40.027 -15.510   2.405  1.00  0.00    -0.247 OA
HETATM    6  N   UNL     1      41.869 -14.639   3.358  1.00  0.00    -0.333 N 
HETATM    7  C   UNL     1      42.600 -14.097   4.490  1.00  0.00     0.142 C 
HETATM    8  H   UNL     1      38.816 -14.656   4.283  1.00  0.00     0.167 HD
HETATM    9  H   UNL     1      42.391 -15.081   2.610  1.00  0.00     0.165 HD
ENDROOT
BRANCH   7  10
HETATM   10  C   UNL     1      43.247 -15.245   5.227  1.00  0.00     0.015 A 
HETATM   11  C   UNL     1      44.149 -15.235   6.344  1.00  0.00     0.097 A 
HETATM   12  N   UNL     1      44.495 -16.489   6.682  1.00  0.00    -0.167 NA
HETATM   13  N   UNL     1      43.870 -17.306   5.811  1.00  0.00    -0.244 N 
HETATM   14  C   UNL     1      43.124 -16.589   4.916  1.00  0.00     0.130 A 
BRANCH  11  15
HETATM   15  C   UNL     1      44.738 -14.118   7.102  1.00  0.00    -0.005 A 
HETATM   16  C   UNL     1      44.121 -13.549   8.221  1.00  0.00     0.014 A 
HETATM   17  C   UNL     1      44.725 -12.495   8.919  1.00  0.00     0.001 A 
HETATM   18  C   UNL     1      45.964 -12.004   8.514  1.00  0.00     0.000 A 
HETATM   19  C   UNL     1      46.602 -12.565   7.413  1.00  0.00     0.001 A 
HETATM   20  C   UNL     1      45.992 -13.610   6.715  1.00  0.00     0.014 A 
ENDBRANCH  11  15
BRANCH  13  21
HETATM   21  C   UNL     1      44.036 -18.719   5.875  1.00  0.00     0.058 A 
HETATM   22  C   UNL     1      43.592 -19.415   7.010  1.00  0.00     0.031 A 
HETATM   23  C   UNL     1      43.747 -20.801   7.090  1.00  0.00     0.002 A 
HETATM   24  C   UNL     1      44.346 -21.500   6.044  1.00  0.00     0.000 A 
HETATM   25  C   UNL     1      44.793 -20.815   4.915  1.00  0.00     0.002 A 
HETATM   26  C   UNL     1      44.639 -19.428   4.825  1.00  0.00     0.031 A 
ENDBRANCH  13  21
ENDBRANCH   7  10
BRANCH   1  27
HETATM   27  C   UNL     1      41.709 -11.817   4.747  1.00  0.00     0.270 C 
HETATM   28  O   UNL     1      41.859 -10.804   5.418  1.00  0.00    -0.265 OA
BRANCH  27  29
HETATM   29  O   UNL     1      41.586 -11.842   3.397  1.00  0.00    -0.321 OA
BRANCH  29  30
HETATM   30  C   UNL     1      40.718 -10.862   2.803  1.00  0.00     0.174 C 
HETATM   31  C   UNL     1      39.572 -11.533   2.070  1.00  0.00     0.034 C 
ENDBRANCH  29  30
ENDBRANCH  27  29
ENDBRANCH   1  27
BRANCH   2  32
HETATM   32  O   UNL     1      40.435 -14.899   6.474  1.00  0.00    -0.363 OA
HETATM   33  H   UNL     1      40.905 -14.561   7.257  1.00  0.00     0.213 HD
ENDBRANCH   2  32
BRANCH   2  34
HETATM   34  C   UNL     1      39.328 -12.754   6.180  1.00  0.00     0.439 C 
HETATM   35  F   UNL     1      39.887 -12.099   7.219  1.00  0.00    -0.166 F 
HETATM   36  F   UNL     1      38.886 -11.836   5.300  1.00  0.00    -0.166 F 
HETATM   37  F   UNL     1      38.232 -13.404   6.654  1.00  0.00    -0.166 F 
ENDBRANCH   2  34
TORSDOF 8
ENDMDL
MODEL 5
REMARK VINA RESULT:      -7.7      2.857      6.089
REMARK  8 active torsions:
REMARK  status: ('A' for Active; 'I' for Inactive)
REMARK    1  A    between atoms: C_2  and  O_3 
REMARK    2  A    between atoms: O_3  and  C_4 
REMARK    3  A    between atoms: C_4  and  C_5 
REMARK    4  A    between atoms: C_6  and  O_7 
REMARK    5  A    between atoms: C_6  and  C_8 
REMARK    6  A    between atoms: C_16  and  C_17 
REMARK    7  A    between atoms: C_18  and  C_19 
REMARK    8  A    between atoms: N_26  and  C_27 
ROOT
HETATM    1  C   UNL     1      41.080 -14.377   2.531  1.00  0.00     0.177 C 
HETATM    2  C   UNL     1      41.564 -13.126   1.792  1.00  0.00     0.250 C 
HETATM    3  N   UNL     1      40.834 -11.934   2.178  1.00  0.00    -0.303 N 
HETATM    4  C   UNL     1      40.190 -11.757   3.350  1.00  0.00     0.319 C 
HETATM    5  O   UNL     1      39.709 -10.670   3.647  1.00  0.00    -0.247 OA
HETATM    6  N   UNL     1      40.077 -12.828   4.165  1.00  0.00    -0.333 N 
HETATM    7  C   UNL     1      40.776 -14.090   4.002  1.00  0.00     0.142 C 
HETATM    8  H   UNL     1      40.914 -11.090   1.623  1.00  0.00     0.167 HD
HETATM    9  H   UNL     1      39.648 -12.623   5.060  1.00  0.00     0.165 HD
ENDROOT
BRANCH   7  10
HETATM   10  C   UNL     1      41.984 -14.082   4.907  1.00  0.00     0.015 A 
HETATM   11  C   UNL     1      43.047 -15.037   5.038  1.00  0.00     0.097 A 
HETATM   12  N   UNL     1      43.922 -14.643   5.980  1.00  0.00    -0.167 NA
HETATM   13  N   UNL     1      43.451 -13.482   6.477  1.00  0.00    -0.244 N 
HETATM   14  C   UNL     1      42.282 -13.125   5.863  1.00  0.00     0.130 A 
BRANCH  11  15
HETATM   15  C   UNL     1      43.283 -16.321   4.357  1.00  0.00    -0.005 A 
HETATM   16  C   UNL     1      43.114 -17.559   4.987  1.00  0.00     0.014 A 
HETATM   17  C   UNL     1      43.338 -18.756   4.294  1.00  0.00     0.001 A 
HETATM   18  C   UNL     1      43.722 -18.732   2.956  1.00  0.00     0.000 A 
HETATM   19  C   UNL     1      43.882 -17.513   2.306  1.00  0.00     0.001 A 
HETATM   20  C   UNL     1      43.665 -16.321   3.002  1.00  0.00     0.014 A 
ENDBRANCH  11  15
BRANCH  13  21
HETATM   21  C   UNL     1      44.136 -12.793   7.518  1.00  0.00     0.058 A 
HETATM   22  C   UNL     1      45.501 -13.042   7.729  1.00  0.00     0.031 A 
HETATM   23  C   UNL     1      46.189 -12.376   8.746  1.00  0.00     0.002 A 
HETATM   24  C   UNL     1      45.521 -11.462   9.560  1.00  0.00     0.000 A 
HETATM   25  C   UNL     1      44.164 -11.213   9.359  1.00  0.00     0.002 A 
HETATM   26  C   UNL     1      43.470 -11.872   8.341  1.00  0.00     0.031 A 
ENDBRANCH  13  21
ENDBRANCH   7  10
BRANCH   1  27
HETATM   27  C   UNL     1      39.860 -15.021   1.915  1.00  0.00     0.270 C 
HETATM   28  O   UNL     1      39.890 -16.131   1.400  1.00  0.00    -0.265 OA
BRANCH  27  29
HETATM   29  O   UNL     1      38.745 -14.262   2.057  1.00  0.00    -0.321 OA
BRANCH  29  30
HETATM   30  C   UNL     1      37.794 -14.293   0.979  1.00  0.00     0.174 C 
HETATM   31  C   UNL     1      37.285 -12.897   0.673  1.00  0.00     0.034 C 
ENDBRANCH  29  30
ENDBRANCH  27  29
ENDBRANCH   1  27
BRANCH   2  32
HETATM   32  O   UNL     1      42.914 -12.858   2.220  1.00  0.00    -0.363 OA
HETATM   33  H   UNL     1      43.336 -13.721   2.380  1.00  0.00     0.213 HD
ENDBRANCH   2  32
BRANCH   2  34
HETATM   34  C   UNL     1      41.592 -13.349   0.240  1.00  0.00     0.439 C 
HETATM   35  F   UNL     1      41.986 -14.600  -0.079  1.00  0.00    -0.166 F 
HETATM   36  F   UNL     1      40.405 -13.124  -0.356  1.00  0.00    -0.166 F 
HETATM   37  F   UNL     1      42.483 -12.489  -0.320  1.00  0.00    -0.166 F 
ENDBRANCH   2  34
TORSDOF 8
ENDMDL
MODEL 6
REMARK VINA RESULT:      -7.7      3.286      7.066
REMARK  8 active torsions:
REMARK  status: ('A' for Active; 'I' for Inactive)
REMARK    1  A    between atoms: C_2  and  O_3 
REMARK    2  A    between atoms: O_3  and  C_4 
REMARK    3  A    between atoms: C_4  and  C_5 
REMARK    4  A    between atoms: C_6  and  O_7 
REMARK    5  A    between atoms: C_6  and  C_8 
REMARK    6  A    between atoms: C_16  and  C_17 
REMARK    7  A    between atoms: C_18  and  C_19 
REMARK    8  A    between atoms: N_26  and  C_27 
ROOT
HETATM    1  C   UNL     1      42.623 -15.585   4.490  1.00  0.00     0.177 C 
HETATM    2  C   UNL     1      41.193 -15.713   5.023  1.00  0.00     0.250 C 
HETATM    3  N   UNL     1      40.631 -14.436   5.421  1.00  0.00    -0.303 N 
HETATM    4  C   UNL     1      41.017 -13.232   4.952  1.00  0.00     0.319 C 
HETATM    5  O   UNL     1      40.401 -12.215   5.245  1.00  0.00    -0.247 OA
HETATM    6  N   UNL     1      42.120 -13.192   4.174  1.00  0.00    -0.333 N 
HETATM    7  C   UNL     1      42.797 -14.347   3.610  1.00  0.00     0.142 C 
HETATM    8  H   UNL     1      39.782 -14.408   5.973  1.00  0.00     0.167 HD
HETATM    9  H   UNL     1      42.325 -12.276   3.793  1.00  0.00     0.165 HD
ENDROOT
BRANCH   7  10
HETATM   10  C   UNL     1      42.332 -14.517   2.183  1.00  0.00     0.015 A 
HETATM   11  C   UNL     1      42.316 -15.684   1.349  1.00  0.00     0.097 A 
HETATM   12  N   UNL     1      41.828 -15.387   0.132  1.00  0.00    -0.167 NA
HETATM   13  N   UNL     1      41.552 -14.068   0.142  1.00  0.00    -0.244 N 
HETATM   14  C   UNL     1      41.857 -13.514   1.355  1.00  0.00     0.130 A 
BRANCH  11  15
HETATM   15  C   UNL     1      42.759 -17.065   1.608  1.00  0.00    -0.005 A 
HETATM   16  C   UNL     1      41.878 -18.150   1.659  1.00  0.00     0.014 A 
HETATM   17  C   UNL     1      42.349 -19.448   1.896  1.00  0.00     0.001 A 
HETATM   18  C   UNL     1      43.710 -19.682   2.072  1.00  0.00     0.000 A 
HETATM   19  C   UNL     1      44.605 -18.619   2.010  1.00  0.00     0.001 A 
HETATM   20  C   UNL     1      44.132 -17.324   1.781  1.00  0.00     0.014 A 
ENDBRANCH  11  15
BRANCH  13  21
HETATM   21  C   UNL     1      41.031 -13.415  -1.011  1.00  0.00     0.058 A 
HETATM   22  C   UNL     1      41.421 -13.849  -2.287  1.00  0.00     0.031 A 
HETATM   23  C   UNL     1      40.920 -13.220  -3.429  1.00  0.00     0.002 A 
HETATM   24  C   UNL     1      40.032 -12.153  -3.306  1.00  0.00     0.000 A 
HETATM   25  C   UNL     1      39.643 -11.712  -2.042  1.00  0.00     0.002 A 
HETATM   26  C   UNL     1      40.137 -12.339  -0.895  1.00  0.00     0.031 A 
ENDBRANCH  13  21
ENDBRANCH   7  10
BRANCH   1  27
HETATM   27  C   UNL     1      43.679 -15.547   5.570  1.00  0.00     0.270 C 
HETATM   28  O   UNL     1      44.373 -16.516   5.848  1.00  0.00    -0.265 OA
BRANCH  27  29
HETATM   29  O   UNL     1      43.802 -14.319   6.133  1.00  0.00    -0.321 OA
BRANCH  29  30
HETATM   30  C   UNL     1      45.041 -14.028   6.800  1.00  0.00     0.174 C 
HETATM   31  C   UNL     1      44.797 -13.217   8.058  1.00  0.00     0.034 C 
ENDBRANCH  29  30
ENDBRANCH  27  29
ENDBRANCH   1  27
BRANCH   2  32
HETATM   32  O   UNL     1      40.353 -16.134   3.929  1.00  0.00    -0.363 OA
HETATM   33  H   UNL     1      40.891 -16.072   3.120  1.00  0.00     0.213 HD
ENDBRANCH   2  32
BRANCH   2  34
HETATM   34  C   UNL     1      41.092 -16.801   6.147  1.00  0.00     0.439 C 
HETATM   35  F   UNL     1      41.801 -16.456   7.243  1.00  0.00    -0.166 F 
HETATM   36  F   UNL     1      39.828 -17.057   6.535  1.00  0.00    -0.166 F 
HETATM   37  F   UNL     1      41.607 -17.972   5.685  1.00  0.00    -0.166 F 
ENDBRANCH   2  34
TORSDOF 8
ENDMDL
MODEL 7
REMARK VINA RESULT:      -7.6      2.768      6.435
REMARK  8 active torsions:
REMARK  status: ('A' for Active; 'I' for Inactive)
REMARK    1  A    between atoms: C_2  and  O_3 
REMARK    2  A    between atoms: O_3  and  C_4 
REMARK    3  A    between atoms: C_4  and  C_5 
REMARK    4  A    between atoms: C_6  and  O_7 
REMARK    5  A    between atoms: C_6  and  C_8 
REMARK    6  A    between atoms: C_16  and  C_17 
REMARK    7  A    between atoms: C_18  and  C_19 
REMARK    8  A    between atoms: N_26  and  C_27 
ROOT
HETATM    1  C   UNL     1      41.968 -14.612   3.658  1.00  0.00     0.177 C 
HETATM    2  C   UNL     1      40.624 -14.008   4.076  1.00  0.00     0.250 C 
HETATM    3  N   UNL     1      40.518 -12.601   3.741  1.00  0.00    -0.303 N 
HETATM    4  C   UNL     1      41.207 -11.975   2.765  1.00  0.00     0.319 C 
HETATM    5  O   UNL     1      40.960 -10.814   2.465  1.00  0.00    -0.247 OA
HETATM    6  N   UNL     1      42.191 -12.671   2.155  1.00  0.00    -0.333 N 
HETATM    7  C   UNL     1      42.427 -14.097   2.294  1.00  0.00     0.142 C 
HETATM    8  H   UNL     1      39.774 -12.041   4.141  1.00  0.00     0.167 HD
HETATM    9  H   UNL     1      42.629 -12.179   1.384  1.00  0.00     0.165 HD
ENDROOT
BRANCH   7  10
HETATM   10  C   UNL     1      41.801 -14.796   1.111  1.00  0.00     0.015 A 
HETATM   11  C   UNL     1      41.917 -16.159   0.676  1.00  0.00     0.097 A 
HETATM   12  N   UNL     1      41.197 -16.360  -0.442  1.00  0.00    -0.167 NA
HETATM   13  N   UNL     1      40.641 -15.174  -0.757  1.00  0.00    -0.244 N 
HETATM   14  C   UNL     1      40.996 -14.211   0.149  1.00  0.00     0.130 A 
BRANCH  11  15
HETATM   15  C   UNL     1      42.690 -17.287   1.223  1.00  0.00    -0.005 A 
HETATM   16  C   UNL     1      44.084 -17.266   1.348  1.00  0.00     0.014 A 
HETATM   17  C   UNL     1      44.775 -18.359   1.887  1.00  0.00     0.001 A 
HETATM   18  C   UNL     1      44.080 -19.484   2.323  1.00  0.00     0.000 A 
HETATM   19  C   UNL     1      42.694 -19.520   2.222  1.00  0.00     0.001 A 
HETATM   20  C   UNL     1      42.008 -18.432   1.677  1.00  0.00     0.014 A 
ENDBRANCH  11  15
BRANCH  13  21
HETATM   21  C   UNL     1      39.820 -15.027  -1.911  1.00  0.00     0.058 A 
HETATM   22  C   UNL     1      38.772 -14.093  -1.898  1.00  0.00     0.031 A 
HETATM   23  C   UNL     1      37.956 -13.936  -3.020  1.00  0.00     0.002 A 
HETATM   24  C   UNL     1      38.176 -14.709  -4.159  1.00  0.00     0.000 A 
HETATM   25  C   UNL     1      39.212 -15.641  -4.178  1.00  0.00     0.002 A 
HETATM   26  C   UNL     1      40.035 -15.802  -3.060  1.00  0.00     0.031 A 
ENDBRANCH  13  21
ENDBRANCH   7  10
BRANCH   1  27
HETATM   27  C   UNL     1      43.082 -14.373   4.651  1.00  0.00     0.270 C 
HETATM   28  O   UNL     1      43.491 -13.252   4.926  1.00  0.00    -0.265 OA
BRANCH  27  29
HETATM   29  O   UNL     1      43.517 -15.520   5.229  1.00  0.00    -0.321 OA
BRANCH  29  30
HETATM   30  C   UNL     1      42.913 -16.745   4.782  1.00  0.00     0.174 C 
HETATM   31  C   UNL     1      43.326 -17.903   5.670  1.00  0.00     0.034 C 
ENDBRANCH  29  30
ENDBRANCH  27  29
ENDBRANCH   1  27
BRANCH   2  32
HETATM   32  O   UNL     1      39.597 -14.631   3.278  1.00  0.00    -0.363 OA
HETATM   33  H   UNL     1      39.395 -15.488   3.696  1.00  0.00     0.213 HD
ENDBRANCH   2  32
BRANCH   2  34
HETATM   34  C   UNL     1      40.302 -14.304   5.582  1.00  0.00     0.439 C 
HETATM   35  F   UNL     1      40.205 -15.629   5.821  1.00  0.00    -0.166 F 
HETATM   36  F   UNL     1      41.211 -13.794   6.434  1.00  0.00    -0.166 F 
HETATM   37  F   UNL     1      39.105 -13.746   5.902  1.00  0.00    -0.166 F 
ENDBRANCH   2  34
TORSDOF 8
ENDMDL
MODEL 8
REMARK VINA RESULT:      -7.5      3.396      5.098
REMARK  8 active torsions:
REMARK  status: ('A' for Active; 'I' for Inactive)
REMARK    1  A    between atoms: C_2  and  O_3 
REMARK    2  A    between atoms: O_3  and  C_4 
REMARK    3  A    between atoms: C_4  and  C_5 
REMARK    4  A    between atoms: C_6  and  O_7 
REMARK    5  A    between atoms: C_6  and  C_8 
REMARK    6  A    between atoms: C_16  and  C_17 
REMARK    7  A    between atoms: C_18  and  C_19 
REMARK    8  A    between atoms: N_26  and  C_27 
ROOT
HETATM    1  C   UNL     1      41.643 -12.713   5.690  1.00  0.00     0.177 C 
HETATM    2  C   UNL     1      40.299 -13.433   5.549  1.00  0.00     0.250 C 
HETATM    3  N   UNL     1      40.049 -13.886   4.194  1.00  0.00    -0.303 N 
HETATM    4  C   UNL     1      40.997 -14.145   3.269  1.00  0.00     0.319 C 
HETATM    5  O   UNL     1      40.704 -14.648   2.192  1.00  0.00    -0.247 OA
HETATM    6  N   UNL     1      42.268 -13.805   3.570  1.00  0.00    -0.333 N 
HETATM    7  C   UNL     1      42.745 -13.396   4.879  1.00  0.00     0.142 C 
HETATM    8  H   UNL     1      39.121 -14.189   3.925  1.00  0.00     0.167 HD
HETATM    9  H   UNL     1      42.948 -14.086   2.872  1.00  0.00     0.165 HD
ENDROOT
BRANCH   7  10
HETATM   10  C   UNL     1      43.372 -14.595   5.550  1.00  0.00     0.015 A 
HETATM   11  C   UNL     1      44.316 -14.662   6.629  1.00  0.00     0.097 A 
HETATM   12  N   UNL     1      44.622 -15.941   6.909  1.00  0.00    -0.167 NA
HETATM   13  N   UNL     1      43.930 -16.700   6.036  1.00  0.00    -0.244 N 
HETATM   14  C   UNL     1      43.181 -15.920   5.198  1.00  0.00     0.130 A 
BRANCH  11  15
HETATM   15  C   UNL     1      44.979 -13.598   7.402  1.00  0.00    -0.005 A 
HETATM   16  C   UNL     1      46.260 -13.123   7.098  1.00  0.00     0.014 A 
HETATM   17  C   UNL     1      46.846 -12.099   7.854  1.00  0.00     0.001 A 
HETATM   18  C   UNL     1      46.154 -11.526   8.917  1.00  0.00     0.000 A 
HETATM   19  C   UNL     1      44.874 -11.972   9.227  1.00  0.00     0.001 A 
HETATM   20  C   UNL     1      44.295 -12.999   8.476  1.00  0.00     0.014 A 
ENDBRANCH  11  15
BRANCH  13  21
HETATM   21  C   UNL     1      44.039 -18.119   6.044  1.00  0.00     0.058 A 
HETATM   22  C   UNL     1      44.606 -18.774   4.940  1.00  0.00     0.031 A 
HETATM   23  C   UNL     1      44.720 -20.166   4.930  1.00  0.00     0.002 A 
HETATM   24  C   UNL     1      44.269 -20.913   6.017  1.00  0.00     0.000 A 
HETATM   25  C   UNL     1      43.701 -20.270   7.116  1.00  0.00     0.002 A 
HETATM   26  C   UNL     1      43.586 -18.877   7.135  1.00  0.00     0.031 A 
ENDBRANCH  13  21
ENDBRANCH   7  10
BRANCH   1  27
HETATM   27  C   UNL     1      41.603 -11.255   5.295  1.00  0.00     0.270 C 
HETATM   28  O   UNL     1      41.432 -10.890   4.139  1.00  0.00    -0.265 OA
BRANCH  27  29
HETATM   29  O   UNL     1      41.714 -10.425   6.362  1.00  0.00    -0.321 OA
BRANCH  29  30
HETATM   30  C   UNL     1      40.990  -9.185   6.301  1.00  0.00     0.174 C 
HETATM   31  C   UNL     1      41.356  -8.291   7.471  1.00  0.00     0.034 C 
ENDBRANCH  29  30
ENDBRANCH  27  29
ENDBRANCH   1  27
BRANCH   2  32
HETATM   32  O   UNL     1      40.373 -14.654   6.313  1.00  0.00    -0.363 OA
HETATM   33  H   UNL     1      40.458 -15.383   5.673  1.00  0.00     0.213 HD
ENDBRANCH   2  32
BRANCH   2  34
HETATM   34  C   UNL     1      39.123 -12.576   6.133  1.00  0.00     0.439 C 
HETATM   35  F   UNL     1      38.827 -11.525   5.339  1.00  0.00    -0.166 F 
HETATM   36  F   UNL     1      37.991 -13.280   6.327  1.00  0.00    -0.166 F 
HETATM   37  F   UNL     1      39.489 -12.078   7.344  1.00  0.00    -0.166 F 
ENDBRANCH   2  34
TORSDOF 8
ENDMDL
MODEL 9
REMARK VINA RESULT:      -7.2      2.277      4.620
REMARK  8 active torsions:
REMARK  status: ('A' for Active; 'I' for Inactive)
REMARK    1  A    between atoms: C_2  and  O_3 
REMARK    2  A    between atoms: O_3  and  C_4 
REMARK    3  A    between atoms: C_4  and  C_5 
REMARK    4  A    between atoms: C_6  and  O_7 
REMARK    5  A    between atoms: C_6  and  C_8 
REMARK    6  A    between atoms: C_16  and  C_17 
REMARK    7  A    between atoms: C_18  and  C_19 
REMARK    8  A    between atoms: N_26  and  C_27 
ROOT
HETATM    1  C   UNL     1      39.645 -13.518   1.202  1.00  0.00     0.177 C 
HETATM    2  C   UNL     1      40.514 -12.569   2.031  1.00  0.00     0.250 C 
HETATM    3  N   UNL     1      40.264 -12.686   3.455  1.00  0.00    -0.303 N 
HETATM    4  C   UNL     1      39.761 -13.774   4.074  1.00  0.00     0.319 C 
HETATM    5  O   UNL     1      39.704 -13.833   5.296  1.00  0.00    -0.247 OA
HETATM    6  N   UNL     1      39.303 -14.776   3.294  1.00  0.00    -0.333 N 
HETATM    7  C   UNL     1      39.507 -14.891   1.860  1.00  0.00     0.142 C 
HETATM    8  H   UNL     1      40.618 -11.980   4.089  1.00  0.00     0.167 HD
HETATM    9  H   UNL     1      39.003 -15.596   3.808  1.00  0.00     0.165 HD
ENDROOT
BRANCH   7  10
HETATM   10  C   UNL     1      40.669 -15.825   1.621  1.00  0.00     0.015 A 
HETATM   11  C   UNL     1      41.460 -16.034   0.442  1.00  0.00     0.097 A 
HETATM   12  N   UNL     1      42.394 -16.976   0.661  1.00  0.00    -0.167 NA
HETATM   13  N   UNL     1      42.221 -17.399   1.929  1.00  0.00    -0.244 N 
HETATM   14  C   UNL     1      41.184 -16.737   2.528  1.00  0.00     0.130 A 
BRANCH  11  15
HETATM   15  C   UNL     1      41.377 -15.428  -0.898  1.00  0.00    -0.005 A 
HETATM   16  C   UNL     1      40.780 -16.070  -1.988  1.00  0.00     0.014 A 
HETATM   17  C   UNL     1      40.714 -15.448  -3.242  1.00  0.00     0.001 A 
HETATM   18  C   UNL     1      41.232 -14.168  -3.420  1.00  0.00     0.000 A 
HETATM   19  C   UNL     1      41.816 -13.505  -2.346  1.00  0.00     0.001 A 
HETATM   20  C   UNL     1      41.888 -14.131  -1.098  1.00  0.00     0.014 A 
ENDBRANCH  11  15
BRANCH  13  21
HETATM   21  C   UNL     1      43.043 -18.420   2.485  1.00  0.00     0.058 A 
HETATM   22  C   UNL     1      43.554 -18.263   3.783  1.00  0.00     0.031 A 
HETATM   23  C   UNL     1      44.363 -19.254   4.345  1.00  0.00     0.002 A 
HETATM   24  C   UNL     1      44.668 -20.403   3.617  1.00  0.00     0.000 A 
HETATM   25  C   UNL     1      44.168 -20.563   2.327  1.00  0.00     0.002 A 
HETATM   26  C   UNL     1      43.355 -19.579   1.759  1.00  0.00     0.031 A 
ENDBRANCH  13  21
ENDBRANCH   7  10
BRANCH   1  27
HETATM   27  C   UNL     1      38.257 -12.991   0.920  1.00  0.00     0.270 C 
HETATM   28  O   UNL     1      37.613 -12.356   1.746  1.00  0.00    -0.265 OA
BRANCH  27  29
HETATM   29  O   UNL     1      37.852 -13.246  -0.349  1.00  0.00    -0.321 OA
BRANCH  29  30
HETATM   30  C   UNL     1      37.518 -12.113  -1.168  1.00  0.00     0.174 C 
HETATM   31  C   UNL     1      38.067 -12.284  -2.572  1.00  0.00     0.034 C 
ENDBRANCH  29  30
ENDBRANCH  27  29
ENDBRANCH   1  27
BRANCH   2  32
HETATM   32  O   UNL     1      41.886 -12.991   1.886  1.00  0.00    -0.363 OA
HETATM   33  H   UNL     1      41.972 -13.369   0.992  1.00  0.00     0.213 HD
ENDBRANCH   2  32
BRANCH   2  34
HETATM   34  C   UNL     1      40.413 -11.093   1.511  1.00  0.00     0.439 C 
HETATM   35  F   UNL     1      41.582 -10.432   1.650  1.00  0.00    -0.166 F 
HETATM   36  F   UNL     1      40.036 -11.003   0.222  1.00  0.00    -0.166 F 
HETATM   37  F   UNL     1      39.482 -10.424   2.242  1.00  0.00    -0.166 F 
ENDBRANCH   2  34
TORSDOF 8
ENDMDL
MODEL 10
REMARK VINA RESULT:      -7.1      1.713      2.623
REMARK  8 active torsions:
REMARK  status: ('A' for Active; 'I' for Inactive)
REMARK    1  A    between atoms: C_2  and  O_3 
REMARK    2  A    between atoms: O_3  and  C_4 
REMARK    3  A    between atoms: C_4  and  C_5 
REMARK    4  A    between atoms: C_6  and  O_7 
REMARK    5  A    between atoms: C_6  and  C_8 
REMARK    6  A    between atoms: C_16  and  C_17 
REMARK    7  A    between atoms: C_18  and  C_19 
REMARK    8  A    between atoms: N_26  and  C_27 
ROOT
HETATM    1  C   UNL     1      39.711 -12.767   1.313  1.00  0.00     0.177 C 
HETATM    2  C   UNL     1      39.354 -13.658   0.120  1.00  0.00     0.250 C 
HETATM    3  N   UNL     1      40.352 -13.608  -0.931  1.00  0.00    -0.303 N 
HETATM    4  C   UNL     1      41.650 -13.282  -0.762  1.00  0.00     0.319 C 
HETATM    5  O   UNL     1      42.451 -13.391  -1.681  1.00  0.00    -0.247 OA
HETATM    6  N   UNL     1      42.019 -12.808   0.448  1.00  0.00    -0.333 N 
HETATM    7  C   UNL     1      41.202 -12.830   1.648  1.00  0.00     0.142 C 
HETATM    8  H   UNL     1      40.140 -13.984  -1.848  1.00  0.00     0.167 HD
HETATM    9  H   UNL     1      43.015 -12.646   0.542  1.00  0.00     0.165 HD
ENDROOT
BRANCH   7  10
HETATM   10  C   UNL     1      41.612 -14.022   2.478  1.00  0.00     0.015 A 
HETATM   11  C   UNL     1      41.528 -14.236   3.895  1.00  0.00     0.097 A 
HETATM   12  N   UNL     1      42.022 -15.443   4.220  1.00  0.00    -0.167 NA
HETATM   13  N   UNL     1      42.444 -16.006   3.070  1.00  0.00    -0.244 N 
HETATM   14  C   UNL     1      42.225 -15.172   2.008  1.00  0.00     0.130 A 
BRANCH  11  15
HETATM   15  C   UNL     1      41.040 -13.364   4.977  1.00  0.00    -0.005 A 
HETATM   16  C   UNL     1      41.798 -12.315   5.510  1.00  0.00     0.014 A 
HETATM   17  C   UNL     1      41.287 -11.504   6.531  1.00  0.00     0.001 A 
HETATM   18  C   UNL     1      40.003 -11.721   7.024  1.00  0.00     0.000 A 
HETATM   19  C   UNL     1      39.227 -12.748   6.499  1.00  0.00     0.001 A 
HETATM   20  C   UNL     1      39.743 -13.561   5.486  1.00  0.00     0.014 A 
ENDBRANCH  11  15
BRANCH  13  21
HETATM   21  C   UNL     1      43.045 -17.297   3.058  1.00  0.00     0.058 A 
HETATM   22  C   UNL     1      43.671 -17.778   4.218  1.00  0.00     0.031 A 
HETATM   23  C   UNL     1      44.267 -19.041   4.224  1.00  0.00     0.002 A 
HETATM   24  C   UNL     1      44.245 -19.830   3.075  1.00  0.00     0.000 A 
HETATM   25  C   UNL     1      43.629 -19.357   1.917  1.00  0.00     0.002 A 
HETATM   26  C   UNL     1      43.028 -18.096   1.904  1.00  0.00     0.031 A 
ENDBRANCH  13  21
ENDBRANCH   7  10
BRANCH   1  27
HETATM   27  C   UNL     1      39.331 -11.316   1.131  1.00  0.00     0.270 C 
HETATM   28  O   UNL     1      39.886 -10.586   0.319  1.00  0.00    -0.265 OA
BRANCH  27  29
HETATM   29  O   UNL     1      38.284 -10.951   1.912  1.00  0.00    -0.321 OA
BRANCH  29  30
HETATM   30  C   UNL     1      37.432  -9.906   1.415  1.00  0.00     0.174 C 
HETATM   31  C   UNL     1      35.991 -10.374   1.345  1.00  0.00     0.034 C 
ENDBRANCH  29  30
ENDBRANCH  27  29
ENDBRANCH   1  27
BRANCH   2  32
HETATM   32  O   UNL     1      39.393 -15.028   0.568  1.00  0.00    -0.363 OA
HETATM   33  H   UNL     1      40.154 -15.447   0.128  1.00  0.00     0.213 HD
ENDBRANCH   2  32
BRANCH   2  34
HETATM   34  C   UNL     1      37.903 -13.369  -0.401  1.00  0.00     0.439 C 
HETATM   35  F   UNL     1      36.997 -13.398   0.601  1.00  0.00    -0.166 F 
HETATM   36  F   UNL     1      37.786 -12.186  -1.032  1.00  0.00    -0.166 F 
HETATM   37  F   UNL     1      37.548 -14.330  -1.294  1.00  0.00    -0.166 F 
ENDBRANCH   2  34
TORSDOF 8
ENDMDL
