MODEL 1
REMARK VINA RESULT:      -7.7      0.000      0.000
REMARK  3 active torsions:
REMARK  status: ('A' for Active; 'I' for Inactive)
REMARK    1  A    between atoms: C_3  and  N_4 
REMARK    2  A    between atoms: C_10  and  O_11 
REMARK    3  A    between atoms: C_14  and  C_15 
ROOT
HETATM    1  N   UNL     1      41.705 -17.083   2.546  1.00  0.00    -0.212 N 
HETATM    2  N   UNL     1      40.422 -17.380   2.184  1.00  0.00    -0.177 NA
HETATM    3  C   UNL     1      39.830 -16.204   2.011  1.00  0.00     0.152 A 
HETATM    4  C   UNL     1      40.699 -15.116   2.213  1.00  0.00     0.027 A 
HETATM    5  C   UNL     1      41.919 -15.698   2.532  1.00  0.00     0.163 A 
HETATM    6  N   UNL     1      43.129 -15.103   2.706  1.00  0.00    -0.208 NA
HETATM    7  C   UNL     1      43.150 -14.114   3.538  1.00  0.00     0.149 C 
HETATM    8  C   UNL     1      42.021 -13.550   4.357  1.00  0.00     0.161 C 
HETATM    9  S   UNL     1      40.898 -12.528   3.355  1.00  0.00    -0.146 SA
HETATM   10  C   UNL     1      40.379 -13.671   2.000  1.00  0.00     0.124 C 
ENDROOT
BRANCH  10  11
HETATM   11  C   UNL     1      40.852 -13.192   0.643  1.00  0.00     0.028 A 
HETATM   12  C   UNL     1      39.854 -13.363  -0.467  1.00  0.00     0.253 A 
HETATM   13  O   UNL     1      38.740 -13.841  -0.276  1.00  0.00    -0.268 OA
HETATM   14  N   UNL     1      40.252 -12.954  -1.719  1.00  0.00    -0.333 N 
HETATM   15  C   UNL     1      41.476 -12.411  -1.997  1.00  0.00     0.091 A 
HETATM   16  H   UNL     1      39.571 -13.081  -2.458  1.00  0.00     0.168 HD
HETATM   17  C   UNL     1      42.372 -12.247  -1.019  1.00  0.00     0.018 A 
HETATM   18  C   UNL     1      42.046 -12.649   0.330  1.00  0.00     0.015 A 
ENDBRANCH  10  11
BRANCH   1  19
HETATM   19  C   UNL     1      42.598 -18.152   2.841  1.00  0.00     0.099 A 
HETATM   20  C   UNL     1      42.875 -19.094   1.832  1.00  0.00     0.035 A 
HETATM   21  C   UNL     1      43.770 -20.144   2.061  1.00  0.00     0.002 A 
HETATM   22  C   UNL     1      44.384 -20.277   3.302  1.00  0.00     0.003 A 
HETATM   23  C   UNL     1      44.088 -19.370   4.318  1.00  0.00     0.045 A 
HETATM   24  C   UNL     1      43.196 -18.319   4.090  1.00  0.00     0.145 A 
HETATM   25  F   UNL     1      42.876 -17.566   5.149  1.00  0.00    -0.204 F 
ENDBRANCH   1  19
BRANCH   7  26
HETATM   26  O   UNL     1      44.327 -13.494   3.708  1.00  0.00    -0.347 OA
HETATM   27  H   UNL     1      44.816 -13.989   4.388  1.00  0.00     0.219 HD
ENDBRANCH   7  26
TORSDOF 3
ENDMDL
MODEL 2
REMARK VINA RESULT:      -7.4      3.504      5.820
REMARK  3 active torsions:
REMARK  status: ('A' for Active; 'I' for Inactive)
REMARK    1  A    between atoms: C_3  and  N_4 
REMARK    2  A    between atoms: C_10  and  O_11 
REMARK    3  A    between atoms: C_14  and  C_15 
ROOT
HETATM    1  N   UNL     1      43.576 -15.787   6.240  1.00  0.00    -0.212 N 
HETATM    2  N   UNL     1      44.572 -15.023   6.777  1.00  0.00    -0.177 NA
HETATM    3  C   UNL     1      44.214 -13.767   6.537  1.00  0.00     0.152 A 
HETATM    4  C   UNL     1      42.974 -13.665   5.879  1.00  0.00     0.027 A 
HETATM    5  C   UNL     1      42.556 -14.980   5.717  1.00  0.00     0.163 A 
HETATM    6  N   UNL     1      41.369 -15.446   5.247  1.00  0.00    -0.208 NA
HETATM    7  C   UNL     1      40.995 -14.970   4.105  1.00  0.00     0.149 C 
HETATM    8  C   UNL     1      41.709 -13.988   3.217  1.00  0.00     0.161 C 
HETATM    9  S   UNL     1      41.573 -12.284   3.837  1.00  0.00    -0.146 SA
HETATM   10  C   UNL     1      42.240 -12.404   5.556  1.00  0.00     0.124 C 
ENDROOT
BRANCH  10  11
HETATM   11  C   UNL     1      41.183 -12.094   6.596  1.00  0.00     0.028 A 
HETATM   12  C   UNL     1      41.641 -11.194   7.709  1.00  0.00     0.253 A 
HETATM   13  O   UNL     1      42.780 -10.741   7.756  1.00  0.00    -0.268 OA
HETATM   14  N   UNL     1      40.715 -10.903   8.683  1.00  0.00    -0.333 N 
HETATM   15  C   UNL     1      39.430 -11.373   8.688  1.00  0.00     0.091 A 
HETATM   16  H   UNL     1      41.039 -10.300   9.430  1.00  0.00     0.168 HD
HETATM   17  C   UNL     1      39.006 -12.168   7.702  1.00  0.00     0.018 A 
HETATM   18  C   UNL     1      39.909 -12.534   6.634  1.00  0.00     0.015 A 
ENDBRANCH  10  11
BRANCH   1  19
HETATM   19  C   UNL     1      43.689 -17.204   6.306  1.00  0.00     0.099 A 
HETATM   20  C   UNL     1      43.915 -17.917   5.114  1.00  0.00     0.035 A 
HETATM   21  C   UNL     1      44.066 -19.307   5.130  1.00  0.00     0.002 A 
HETATM   22  C   UNL     1      43.974 -20.004   6.331  1.00  0.00     0.003 A 
HETATM   23  C   UNL     1      43.715 -19.310   7.511  1.00  0.00     0.045 A 
HETATM   24  C   UNL     1      43.567 -17.921   7.498  1.00  0.00     0.145 A 
HETATM   25  F   UNL     1      43.203 -17.346   8.650  1.00  0.00    -0.204 F 
ENDBRANCH   1  19
BRANCH   7  26
HETATM   26  O   UNL     1      39.815 -15.395   3.631  1.00  0.00    -0.347 OA
HETATM   27  H   UNL     1      40.003 -15.996   2.890  1.00  0.00     0.219 HD
ENDBRANCH   7  26
TORSDOF 3
ENDMDL
MODEL 3
REMARK VINA RESULT:      -7.3      3.067      6.049
REMARK  3 active torsions:
REMARK  status: ('A' for Active; 'I' for Inactive)
REMARK    1  A    between atoms: C_3  and  N_4 
REMARK    2  A    between atoms: C_10  and  O_11 
REMARK    3  A    between atoms: C_14  and  C_15 
ROOT
HETATM    1  N   UNL     1      40.386 -14.709   0.338  1.00  0.00    -0.212 N 
HETATM    2  N   UNL     1      39.180 -14.484   0.936  1.00  0.00    -0.177 NA
HETATM    3  C   UNL     1      39.276 -15.050   2.134  1.00  0.00     0.152 A 
HETATM    4  C   UNL     1      40.539 -15.621   2.372  1.00  0.00     0.027 A 
HETATM    5  C   UNL     1      41.260 -15.370   1.212  1.00  0.00     0.163 A 
HETATM    6  N   UNL     1      42.575 -15.604   0.956  1.00  0.00    -0.208 NA
HETATM    7  C   UNL     1      42.985 -16.806   1.196  1.00  0.00     0.149 C 
HETATM    8  C   UNL     1      42.197 -17.986   1.696  1.00  0.00     0.161 C 
HETATM    9  S   UNL     1      41.860 -17.873   3.480  1.00  0.00    -0.146 SA
HETATM   10  C   UNL     1      41.008 -16.242   3.649  1.00  0.00     0.124 C 
ENDROOT
BRANCH  10  11
HETATM   11  C   UNL     1      41.816 -15.265   4.478  1.00  0.00     0.028 A 
HETATM   12  C   UNL     1      41.012 -14.455   5.455  1.00  0.00     0.253 A 
HETATM   13  O   UNL     1      39.798 -14.592   5.574  1.00  0.00    -0.268 OA
HETATM   14  N   UNL     1      41.707 -13.544   6.216  1.00  0.00    -0.333 N 
HETATM   15  C   UNL     1      43.058 -13.345   6.134  1.00  0.00     0.091 A 
HETATM   16  H   UNL     1      41.150 -13.001   6.866  1.00  0.00     0.168 HD
HETATM   17  C   UNL     1      43.788 -14.063   5.274  1.00  0.00     0.018 A 
HETATM   18  C   UNL     1      43.145 -15.043   4.430  1.00  0.00     0.015 A 
ENDBRANCH  10  11
BRANCH   1  19
HETATM   19  C   UNL     1      40.587 -14.246  -0.993  1.00  0.00     0.099 A 
HETATM   20  C   UNL     1      40.445 -12.870  -1.255  1.00  0.00     0.035 A 
HETATM   21  C   UNL     1      40.663 -12.361  -2.539  1.00  0.00     0.002 A 
HETATM   22  C   UNL     1      41.007 -13.219  -3.579  1.00  0.00     0.003 A 
HETATM   23  C   UNL     1      41.114 -14.587  -3.336  1.00  0.00     0.045 A 
HETATM   24  C   UNL     1      40.899 -15.097  -2.054  1.00  0.00     0.145 A 
HETATM   25  F   UNL     1      40.904 -16.430  -1.931  1.00  0.00    -0.204 F 
ENDBRANCH   1  19
BRANCH   7  26
HETATM   26  O   UNL     1      44.284 -17.056   0.976  1.00  0.00    -0.347 OA
HETATM   27  H   UNL     1      44.526 -16.608   0.147  1.00  0.00     0.219 HD
ENDBRANCH   7  26
TORSDOF 3
ENDMDL
MODEL 4
REMARK VINA RESULT:      -7.3      1.006      1.357
REMARK  3 active torsions:
REMARK  status: ('A' for Active; 'I' for Inactive)
REMARK    1  A    between atoms: C_3  and  N_4 
REMARK    2  A    between atoms: C_10  and  O_11 
REMARK    3  A    between atoms: C_14  and  C_15 
ROOT
HETATM    1  N   UNL     1      41.691 -16.832   2.566  1.00  0.00    -0.212 N 
HETATM    2  N   UNL     1      40.479 -17.197   2.054  1.00  0.00    -0.177 NA
HETATM    3  C   UNL     1      39.838 -16.056   1.830  1.00  0.00     0.152 A 
HETATM    4  C   UNL     1      40.609 -14.922   2.146  1.00  0.00     0.027 A 
HETATM    5  C   UNL     1      41.818 -15.436   2.596  1.00  0.00     0.163 A 
HETATM    6  N   UNL     1      42.961 -14.773   2.916  1.00  0.00    -0.208 NA
HETATM    7  C   UNL     1      42.826 -13.802   3.758  1.00  0.00     0.149 C 
HETATM    8  C   UNL     1      41.578 -13.323   4.448  1.00  0.00     0.161 C 
HETATM    9  S   UNL     1      40.515 -12.351   3.338  1.00  0.00    -0.146 SA
HETATM   10  C   UNL     1      40.227 -13.495   1.916  1.00  0.00     0.124 C 
ENDROOT
BRANCH  10  11
HETATM   11  C   UNL     1      40.821 -12.960   0.630  1.00  0.00     0.028 A 
HETATM   12  C   UNL     1      39.954 -13.136  -0.584  1.00  0.00     0.253 A 
HETATM   13  O   UNL     1      38.846 -13.660  -0.525  1.00  0.00    -0.268 OA
HETATM   14  N   UNL     1      40.466 -12.678  -1.776  1.00  0.00    -0.333 N 
HETATM   15  C   UNL     1      41.690 -12.082  -1.909  1.00  0.00     0.091 A 
HETATM   16  H   UNL     1      39.872 -12.809  -2.586  1.00  0.00     0.168 HD
HETATM   17  C   UNL     1      42.471 -11.913  -0.837  1.00  0.00     0.018 A 
HETATM   18  C   UNL     1      42.020 -12.365   0.459  1.00  0.00     0.015 A 
ENDBRANCH  10  11
BRANCH   1  19
HETATM   19  C   UNL     1      42.609 -17.850   2.947  1.00  0.00     0.099 A 
HETATM   20  C   UNL     1      42.718 -18.181   4.311  1.00  0.00     0.035 A 
HETATM   21  C   UNL     1      43.581 -19.197   4.734  1.00  0.00     0.002 A 
HETATM   22  C   UNL     1      44.358 -19.881   3.804  1.00  0.00     0.003 A 
HETATM   23  C   UNL     1      44.283 -19.536   2.456  1.00  0.00     0.045 A 
HETATM   24  C   UNL     1      43.419 -18.524   2.032  1.00  0.00     0.145 A 
HETATM   25  F   UNL     1      43.495 -18.174   0.743  1.00  0.00    -0.204 F 
ENDBRANCH   1  19
BRANCH   7  26
HETATM   26  O   UNL     1      43.934 -13.115   4.071  1.00  0.00    -0.347 OA
HETATM   27  H   UNL     1      44.221 -13.420   4.950  1.00  0.00     0.219 HD
ENDBRANCH   7  26
TORSDOF 3
ENDMDL
MODEL 5
REMARK VINA RESULT:      -7.2      3.383      5.295
REMARK  3 active torsions:
REMARK  status: ('A' for Active; 'I' for Inactive)
REMARK    1  A    between atoms: C_3  and  N_4 
REMARK    2  A    between atoms: C_10  and  O_11 
REMARK    3  A    between atoms: C_14  and  C_15 
ROOT
HETATM    1  N   UNL     1      43.894 -16.924   6.104  1.00  0.00    -0.212 N 
HETATM    2  N   UNL     1      44.687 -16.149   6.899  1.00  0.00    -0.177 NA
HETATM    3  C   UNL     1      44.458 -14.901   6.507  1.00  0.00     0.152 A 
HETATM    4  C   UNL     1      43.495 -14.814   5.485  1.00  0.00     0.027 A 
HETATM    5  C   UNL     1      43.115 -16.129   5.251  1.00  0.00     0.163 A 
HETATM    6  N   UNL     1      42.127 -16.602   4.446  1.00  0.00    -0.208 NA
HETATM    7  C   UNL     1      42.149 -16.174   3.226  1.00  0.00     0.149 C 
HETATM    8  C   UNL     1      43.134 -15.244   2.573  1.00  0.00     0.161 C 
HETATM    9  S   UNL     1      42.854 -13.512   3.050  1.00  0.00    -0.146 SA
HETATM   10  C   UNL     1      42.936 -13.560   4.895  1.00  0.00     0.124 C 
ENDROOT
BRANCH  10  11
HETATM   11  C   UNL     1      41.612 -13.189   5.530  1.00  0.00     0.028 A 
HETATM   12  C   UNL     1      41.714 -12.234   6.686  1.00  0.00     0.253 A 
HETATM   13  O   UNL     1      42.790 -11.785   7.068  1.00  0.00    -0.268 OA
HETATM   14  N   UNL     1      40.535 -11.885   7.301  1.00  0.00    -0.333 N 
HETATM   15  C   UNL     1      39.304 -12.346   6.922  1.00  0.00     0.091 A 
HETATM   16  H   UNL     1      40.620 -11.245   8.081  1.00  0.00     0.168 HD
HETATM   17  C   UNL     1      39.195 -13.191   5.891  1.00  0.00     0.018 A 
HETATM   18  C   UNL     1      40.381 -13.618   5.184  1.00  0.00     0.015 A 
ENDBRANCH  10  11
BRANCH   1  19
HETATM   19  C   UNL     1      43.941 -18.338   6.259  1.00  0.00     0.099 A 
HETATM   20  C   UNL     1      43.668 -18.885   7.527  1.00  0.00     0.035 A 
HETATM   21  C   UNL     1      43.670 -20.269   7.724  1.00  0.00     0.002 A 
HETATM   22  C   UNL     1      43.963 -21.123   6.665  1.00  0.00     0.003 A 
HETATM   23  C   UNL     1      44.271 -20.589   5.415  1.00  0.00     0.045 A 
HETATM   24  C   UNL     1      44.266 -19.207   5.216  1.00  0.00     0.145 A 
HETATM   25  F   UNL     1      44.688 -18.772   4.022  1.00  0.00    -0.204 F 
ENDBRANCH   1  19
BRANCH   7  26
HETATM   26  O   UNL     1      41.169 -16.606   2.418  1.00  0.00    -0.347 OA
HETATM   27  H   UNL     1      41.275 -16.144   1.568  1.00  0.00     0.219 HD
ENDBRANCH   7  26
TORSDOF 3
ENDMDL
MODEL 6
REMARK VINA RESULT:      -7.2      2.516      4.630
REMARK  3 active torsions:
REMARK  status: ('A' for Active; 'I' for Inactive)
REMARK    1  A    between atoms: C_3  and  N_4 
REMARK    2  A    between atoms: C_10  and  O_11 
REMARK    3  A    between atoms: C_14  and  C_15 
ROOT
HETATM    1  N   UNL     1      43.142 -15.690   3.158  1.00  0.00    -0.212 N 
HETATM    2  N   UNL     1      44.143 -14.781   3.350  1.00  0.00    -0.177 NA
HETATM    3  C   UNL     1      43.547 -13.594   3.305  1.00  0.00     0.152 A 
HETATM    4  C   UNL     1      42.155 -13.685   3.124  1.00  0.00     0.027 A 
HETATM    5  C   UNL     1      41.900 -15.048   3.057  1.00  0.00     0.163 A 
HETATM    6  N   UNL     1      40.703 -15.691   3.008  1.00  0.00    -0.208 NA
HETATM    7  C   UNL     1      39.890 -15.285   2.089  1.00  0.00     0.149 C 
HETATM    8  C   UNL     1      40.099 -14.215   1.053  1.00  0.00     0.161 C 
HETATM    9  S   UNL     1      39.947 -12.546   1.758  1.00  0.00    -0.146 SA
HETATM   10  C   UNL     1      41.182 -12.550   3.132  1.00  0.00     0.124 C 
ENDROOT
BRANCH  10  11
HETATM   11  C   UNL     1      40.522 -12.394   4.486  1.00  0.00     0.028 A 
HETATM   12  C   UNL     1      40.830 -11.102   5.190  1.00  0.00     0.253 A 
HETATM   13  O   UNL     1      41.549 -10.242   4.692  1.00  0.00    -0.268 OA
HETATM   14  N   UNL     1      40.263 -10.929   6.431  1.00  0.00    -0.333 N 
HETATM   15  C   UNL     1      39.450 -11.845   7.040  1.00  0.00     0.091 A 
HETATM   16  H   UNL     1      40.484 -10.056   6.896  1.00  0.00     0.168 HD
HETATM   17  C   UNL     1      39.162 -12.996   6.424  1.00  0.00     0.018 A 
HETATM   18  C   UNL     1      39.715 -13.270   5.118  1.00  0.00     0.015 A 
ENDBRANCH  10  11
BRANCH   1  19
HETATM   19  C   UNL     1      43.473 -17.073   3.117  1.00  0.00     0.099 A 
HETATM   20  C   UNL     1      43.646 -17.759   4.334  1.00  0.00     0.035 A 
HETATM   21  C   UNL     1      43.939 -19.126   4.349  1.00  0.00     0.002 A 
HETATM   22  C   UNL     1      44.082 -19.820   3.151  1.00  0.00     0.003 A 
HETATM   23  C   UNL     1      43.948 -19.141   1.941  1.00  0.00     0.045 A 
HETATM   24  C   UNL     1      43.652 -17.777   1.925  1.00  0.00     0.145 A 
HETATM   25  F   UNL     1      43.659 -17.177   0.729  1.00  0.00    -0.204 F 
ENDBRANCH   1  19
BRANCH   7  26
HETATM   26  O   UNL     1      38.692 -15.886   2.035  1.00  0.00    -0.347 OA
HETATM   27  H   UNL     1      38.755 -16.701   2.563  1.00  0.00     0.219 HD
ENDBRANCH   7  26
TORSDOF 3
ENDMDL
MODEL 7
REMARK VINA RESULT:      -7.0      2.377      2.919
REMARK  3 active torsions:
REMARK  status: ('A' for Active; 'I' for Inactive)
REMARK    1  A    between atoms: C_3  and  N_4 
REMARK    2  A    between atoms: C_10  and  O_11 
REMARK    3  A    between atoms: C_14  and  C_15 
ROOT
HETATM    1  N   UNL     1      41.696 -16.333   1.631  1.00  0.00    -0.212 N 
HETATM    2  N   UNL     1      41.917 -16.935   0.425  1.00  0.00    -0.177 NA
HETATM    3  C   UNL     1      41.375 -16.121  -0.474  1.00  0.00     0.152 A 
HETATM    4  C   UNL     1      40.823 -14.960   0.099  1.00  0.00     0.027 A 
HETATM    5  C   UNL     1      41.062 -15.095   1.460  1.00  0.00     0.163 A 
HETATM    6  N   UNL     1      40.840 -14.199   2.458  1.00  0.00    -0.208 NA
HETATM    7  C   UNL     1      39.648 -13.702   2.507  1.00  0.00     0.149 C 
HETATM    8  C   UNL     1      38.467 -14.001   1.623  1.00  0.00     0.161 C 
HETATM    9  S   UNL     1      38.609 -13.192   0.001  1.00  0.00    -0.146 SA
HETATM   10  C   UNL     1      40.232 -13.802  -0.638  1.00  0.00     0.124 C 
ENDROOT
BRANCH  10  11
HETATM   11  C   UNL     1      41.234 -12.677  -0.801  1.00  0.00     0.028 A 
HETATM   12  C   UNL     1      42.028 -12.723  -2.076  1.00  0.00     0.253 A 
HETATM   13  O   UNL     1      41.861 -13.599  -2.918  1.00  0.00    -0.268 OA
HETATM   14  N   UNL     1      42.961 -11.728  -2.254  1.00  0.00    -0.333 N 
HETATM   15  C   UNL     1      43.195 -10.723  -1.357  1.00  0.00     0.091 A 
HETATM   16  H   UNL     1      43.492 -11.776  -3.115  1.00  0.00     0.168 HD
HETATM   17  C   UNL     1      42.492 -10.665  -0.221  1.00  0.00     0.018 A 
HETATM   18  C   UNL     1      41.490 -11.669   0.057  1.00  0.00     0.015 A 
ENDBRANCH  10  11
BRANCH   1  19
HETATM   19  C   UNL     1      42.137 -16.990   2.814  1.00  0.00     0.099 A 
HETATM   20  C   UNL     1      41.197 -17.245   3.831  1.00  0.00     0.035 A 
HETATM   21  C   UNL     1      41.572 -17.916   4.999  1.00  0.00     0.002 A 
HETATM   22  C   UNL     1      42.891 -18.323   5.175  1.00  0.00     0.003 A 
HETATM   23  C   UNL     1      43.836 -18.041   4.190  1.00  0.00     0.045 A 
HETATM   24  C   UNL     1      43.462 -17.374   3.021  1.00  0.00     0.145 A 
HETATM   25  F   UNL     1      44.449 -17.038   2.182  1.00  0.00    -0.204 F 
ENDBRANCH   1  19
BRANCH   7  26
HETATM   26  O   UNL     1      39.410 -12.797   3.467  1.00  0.00    -0.347 OA
HETATM   27  H   UNL     1      39.427 -13.269   4.318  1.00  0.00     0.219 HD
ENDBRANCH   7  26
TORSDOF 3
ENDMDL
MODEL 8
REMARK VINA RESULT:      -6.9      2.997      4.227
REMARK  3 active torsions:
REMARK  status: ('A' for Active; 'I' for Inactive)
REMARK    1  A    between atoms: C_3  and  N_4 
REMARK    2  A    between atoms: C_10  and  O_11 
REMARK    3  A    between atoms: C_14  and  C_15 
ROOT
HETATM    1  N   UNL     1      40.747 -15.328   0.862  1.00  0.00    -0.212 N 
HETATM    2  N   UNL     1      39.655 -15.108   1.652  1.00  0.00    -0.177 NA
HETATM    3  C   UNL     1      38.975 -14.144   1.042  1.00  0.00     0.152 A 
HETATM    4  C   UNL     1      39.568 -13.732  -0.165  1.00  0.00     0.027 A 
HETATM    5  C   UNL     1      40.701 -14.526  -0.286  1.00  0.00     0.163 A 
HETATM    6  N   UNL     1      41.569 -14.621  -1.328  1.00  0.00    -0.208 NA
HETATM    7  C   UNL     1      42.056 -13.502  -1.753  1.00  0.00     0.149 C 
HETATM    8  C   UNL     1      41.811 -12.112  -1.233  1.00  0.00     0.161 C 
HETATM    9  S   UNL     1      40.192 -11.467  -1.753  1.00  0.00    -0.146 SA
HETATM   10  C   UNL     1      39.008 -12.746  -1.139  1.00  0.00     0.124 C 
ENDROOT
BRANCH  10  11
HETATM   11  C   UNL     1      38.284 -13.438  -2.276  1.00  0.00     0.028 A 
HETATM   12  C   UNL     1      37.200 -12.620  -2.921  1.00  0.00     0.253 A 
HETATM   13  O   UNL     1      36.940 -11.478  -2.557  1.00  0.00    -0.268 OA
HETATM   14  N   UNL     1      36.507 -13.219  -3.947  1.00  0.00    -0.333 N 
HETATM   15  C   UNL     1      36.750 -14.486  -4.402  1.00  0.00     0.091 A 
HETATM   16  H   UNL     1      35.776 -12.658  -4.368  1.00  0.00     0.168 HD
HETATM   17  C   UNL     1      37.714 -15.223  -3.843  1.00  0.00     0.018 A 
HETATM   18  C   UNL     1      38.495 -14.680  -2.755  1.00  0.00     0.015 A 
ENDBRANCH  10  11
BRANCH   1  19
HETATM   19  C   UNL     1      41.705 -16.298   1.273  1.00  0.00     0.099 A 
HETATM   20  C   UNL     1      42.984 -15.857   1.661  1.00  0.00     0.035 A 
HETATM   21  C   UNL     1      43.950 -16.766   2.103  1.00  0.00     0.002 A 
HETATM   22  C   UNL     1      43.657 -18.126   2.146  1.00  0.00     0.003 A 
HETATM   23  C   UNL     1      42.405 -18.575   1.730  1.00  0.00     0.045 A 
HETATM   24  C   UNL     1      41.439 -17.667   1.291  1.00  0.00     0.145 A 
HETATM   25  F   UNL     1      40.309 -18.189   0.797  1.00  0.00    -0.204 F 
ENDBRANCH   1  19
BRANCH   7  26
HETATM   26  O   UNL     1      42.895 -13.567  -2.797  1.00  0.00    -0.347 OA
HETATM   27  H   UNL     1      43.708 -13.096  -2.541  1.00  0.00     0.219 HD
ENDBRANCH   7  26
TORSDOF 3
ENDMDL
MODEL 9
REMARK VINA RESULT:      -6.7      2.538      3.962
REMARK  3 active torsions:
REMARK  status: ('A' for Active; 'I' for Inactive)
REMARK    1  A    between atoms: C_3  and  N_4 
REMARK    2  A    between atoms: C_10  and  O_11 
REMARK    3  A    between atoms: C_14  and  C_15 
ROOT
HETATM    1  N   UNL     1      42.360 -14.964   1.740  1.00  0.00    -0.212 N 
HETATM    2  N   UNL     1      42.845 -13.922   2.477  1.00  0.00    -0.177 NA
HETATM    3  C   UNL     1      42.422 -12.829   1.851  1.00  0.00     0.152 A 
HETATM    4  C   UNL     1      41.628 -13.113   0.724  1.00  0.00     0.027 A 
HETATM    5  C   UNL     1      41.572 -14.500   0.678  1.00  0.00     0.163 A 
HETATM    6  N   UNL     1      40.838 -15.298  -0.142  1.00  0.00    -0.208 NA
HETATM    7  C   UNL     1      40.955 -15.055  -1.406  1.00  0.00     0.149 C 
HETATM    8  C   UNL     1      41.812 -14.026  -2.091  1.00  0.00     0.161 C 
HETATM    9  S   UNL     1      41.107 -12.355  -1.958  1.00  0.00    -0.146 SA
HETATM   10  C   UNL     1      40.917 -12.119  -0.135  1.00  0.00     0.124 C 
ENDROOT
BRANCH  10  11
HETATM   11  C   UNL     1      39.463 -11.976   0.267  1.00  0.00     0.028 A 
HETATM   12  C   UNL     1      39.188 -10.868   1.245  1.00  0.00     0.253 A 
HETATM   13  O   UNL     1      40.076 -10.134   1.667  1.00  0.00    -0.268 OA
HETATM   14  N   UNL     1      37.882 -10.716   1.649  1.00  0.00    -0.333 N 
HETATM   15  C   UNL     1      36.846 -11.498   1.214  1.00  0.00     0.091 A 
HETATM   16  H   UNL     1      37.713  -9.969   2.312  1.00  0.00     0.168 HD
HETATM   17  C   UNL     1      37.074 -12.483   0.340  1.00  0.00     0.018 A 
HETATM   18  C   UNL     1      38.416 -12.722  -0.139  1.00  0.00     0.015 A 
ENDBRANCH  10  11
BRANCH   1  19
HETATM   19  C   UNL     1      42.678 -16.292   2.143  1.00  0.00     0.099 A 
HETATM   20  C   UNL     1      43.599 -17.026   1.372  1.00  0.00     0.035 A 
HETATM   21  C   UNL     1      43.969 -18.322   1.743  1.00  0.00     0.002 A 
HETATM   22  C   UNL     1      43.412 -18.908   2.875  1.00  0.00     0.003 A 
HETATM   23  C   UNL     1      42.472 -18.202   3.624  1.00  0.00     0.045 A 
HETATM   24  C   UNL     1      42.103 -16.906   3.256  1.00  0.00     0.145 A 
HETATM   25  F   UNL     1      41.110 -16.345   3.956  1.00  0.00    -0.204 F 
ENDBRANCH   1  19
BRANCH   7  26
HETATM   26  O   UNL     1      40.221 -15.812  -2.236  1.00  0.00    -0.347 OA
HETATM   27  H   UNL     1      40.123 -15.314  -3.067  1.00  0.00     0.219 HD
ENDBRANCH   7  26
TORSDOF 3
ENDMDL
MODEL 10
REMARK VINA RESULT:      -6.7      1.796      2.046
REMARK  3 active torsions:
REMARK  status: ('A' for Active; 'I' for Inactive)
REMARK    1  A    between atoms: C_3  and  N_4 
REMARK    2  A    between atoms: C_10  and  O_11 
REMARK    3  A    between atoms: C_14  and  C_15 
ROOT
HETATM    1  N   UNL     1      41.393 -16.655   2.738  1.00  0.00    -0.212 N 
HETATM    2  N   UNL     1      40.263 -16.950   2.029  1.00  0.00    -0.177 NA
HETATM    3  C   UNL     1      39.519 -15.851   2.090  1.00  0.00     0.152 A 
HETATM    4  C   UNL     1      40.141 -14.804   2.795  1.00  0.00     0.027 A 
HETATM    5  C   UNL     1      41.367 -15.327   3.186  1.00  0.00     0.163 A 
HETATM    6  N   UNL     1      42.408 -14.699   3.793  1.00  0.00    -0.208 NA
HETATM    7  C   UNL     1      42.114 -14.040   4.866  1.00  0.00     0.149 C 
HETATM    8  C   UNL     1      40.780 -13.898   5.546  1.00  0.00     0.161 C 
HETATM    9  S   UNL     1      39.694 -12.728   4.674  1.00  0.00    -0.146 SA
HETATM   10  C   UNL     1      39.623 -13.412   2.959  1.00  0.00     0.124 C 
ENDROOT
BRANCH  10  11
HETATM   11  C   UNL     1      40.239 -12.467   1.948  1.00  0.00     0.028 A 
HETATM   12  C   UNL     1      39.263 -11.543   1.275  1.00  0.00     0.253 A 
HETATM   13  O   UNL     1      38.065 -11.552   1.540  1.00  0.00    -0.268 OA
HETATM   14  N   UNL     1      39.781 -10.681   0.337  1.00  0.00    -0.333 N 
HETATM   15  C   UNL     1      41.105 -10.618  -0.003  1.00  0.00     0.091 A 
HETATM   16  H   UNL     1      39.111 -10.068  -0.112  1.00  0.00     0.168 HD
HETATM   17  C   UNL     1      41.986 -11.429   0.592  1.00  0.00     0.018 A 
HETATM   18  C   UNL     1      41.535 -12.373   1.588  1.00  0.00     0.015 A 
ENDBRANCH  10  11
BRANCH   1  19
HETATM   19  C   UNL     1      42.388 -17.661   2.888  1.00  0.00     0.099 A 
HETATM   20  C   UNL     1      42.624 -18.186   4.173  1.00  0.00     0.035 A 
HETATM   21  C   UNL     1      43.569 -19.198   4.369  1.00  0.00     0.002 A 
HETATM   22  C   UNL     1      44.300 -19.686   3.290  1.00  0.00     0.003 A 
HETATM   23  C   UNL     1      44.098 -19.147   2.021  1.00  0.00     0.045 A 
HETATM   24  C   UNL     1      43.153 -18.138   1.823  1.00  0.00     0.145 A 
HETATM   25  F   UNL     1      43.106 -17.593   0.601  1.00  0.00    -0.204 F 
ENDBRANCH   1  19
BRANCH   7  26
HETATM   26  O   UNL     1      43.120 -13.390   5.470  1.00  0.00    -0.347 OA
HETATM   27  H   UNL     1      43.551 -14.023   6.070  1.00  0.00     0.219 HD
ENDBRANCH   7  26
TORSDOF 3
ENDMDL
