MODEL 1
REMARK VINA RESULT:      -8.3      0.000      0.000
REMARK  6 active torsions:
REMARK  status: ('A' for Active; 'I' for Inactive)
REMARK    1  A    between atoms: C_4  and  C_5 
REMARK    2  A    between atoms: C_5  and  C_6 
REMARK    3  A    between atoms: C_6  and  N_7 
REMARK       I    between atoms: N_7  and  C_8 
REMARK    4  A    between atoms: C_8  and  C_9 
REMARK    5  A    between atoms: C_12  and  N_13 
REMARK       I    between atoms: N_13  and  C_14 
REMARK       I    between atoms: C_14  and  N_15 
REMARK    6  A    between atoms: N_15  and  C_16 
ROOT
HETATM    1  C   UNL     1      41.549 -16.286   4.074  1.00  0.00     0.032 A 
HETATM    2  C   UNL     1      40.848 -15.102   4.323  1.00  0.00     0.019 A 
HETATM    3  C   UNL     1      39.912 -14.627   3.396  1.00  0.00     0.030 A 
HETATM    4  C   UNL     1      39.655 -15.329   2.217  1.00  0.00     0.036 A 
HETATM    5  C   UNL     1      40.342 -16.528   1.982  1.00  0.00     0.030 A 
HETATM    6  C   UNL     1      41.278 -17.005   2.905  1.00  0.00     0.019 A 
ENDROOT
BRANCH   1   7
HETATM    7  C   UNL     1      42.569 -16.821   5.018  1.00  0.00     0.251 C 
HETATM    8  N   UNL     1      42.559 -18.186   5.225  1.00  0.00    -0.357 N 
HETATM    9  H   UNL     1      41.725 -18.699   4.963  1.00  0.00     0.162 HD
HETATM   10  O   UNL     1      43.337 -16.056   5.593  1.00  0.00    -0.268 OA
BRANCH   8  11
HETATM   11  C   UNL     1      43.388 -18.783   6.257  1.00  0.00     0.127 C 
BRANCH  11  12
HETATM   12  C   UNL     1      44.737 -19.269   5.721  1.00  0.00     0.058 C 
BRANCH  12  13
HETATM   13  C   UNL     1      44.628 -20.283   4.604  1.00  0.00    -0.057 A 
HETATM   14  C   UNL     1      44.740 -21.654   4.878  1.00  0.00     0.007 A 
HETATM   15  C   UNL     1      44.631 -22.594   3.851  1.00  0.00     0.001 A 
HETATM   16  C   UNL     1      44.409 -22.174   2.542  1.00  0.00     0.000 A 
HETATM   17  C   UNL     1      44.292 -20.815   2.257  1.00  0.00     0.001 A 
HETATM   18  C   UNL     1      44.397 -19.875   3.282  1.00  0.00     0.007 A 
ENDBRANCH  12  13
ENDBRANCH  11  12
ENDBRANCH   8  11
ENDBRANCH   1   7
BRANCH   4  19
HETATM   19  N   UNL     1      38.756 -14.897   1.220  1.00  0.00    -0.309 N 
HETATM   20  C   UNL     1      39.056 -14.238   0.037  1.00  0.00     0.325 C 
HETATM   21  N   UNL     1      37.926 -14.114  -0.757  1.00  0.00    -0.306 N 
HETATM   22  O   UNL     1      40.166 -13.829  -0.283  1.00  0.00    -0.247 OA
HETATM   23  H   UNL     1      37.066 -14.550  -0.463  1.00  0.00     0.171 HD
HETATM   24  H   UNL     1      37.777 -15.044   1.414  1.00  0.00     0.170 HD
BRANCH  21  25
HETATM   25  C   UNL     1      37.918 -13.517  -2.004  1.00  0.00     0.072 A 
HETATM   26  C   UNL     1      38.026 -12.164  -2.400  1.00  0.00     0.169 A 
HETATM   27  N   UNL     1      37.978 -12.018  -3.728  1.00  0.00    -0.185 NA
HETATM   28  N   UNL     1      37.841 -13.274  -4.179  1.00  0.00    -0.287 N 
HETATM   29  H   UNL     1      37.787 -13.418  -5.182  1.00  0.00     0.188 HD
HETATM   30  C   UNL     1      37.795 -14.209  -3.185  1.00  0.00     0.140 A 
ENDBRANCH  21  25
ENDBRANCH   4  19
TORSDOF 6
ENDMDL
MODEL 2
REMARK VINA RESULT:      -8.1      2.554      3.773
REMARK  6 active torsions:
REMARK  status: ('A' for Active; 'I' for Inactive)
REMARK    1  A    between atoms: C_4  and  C_5 
REMARK    2  A    between atoms: C_5  and  C_6 
REMARK    3  A    between atoms: C_6  and  N_7 
REMARK       I    between atoms: N_7  and  C_8 
REMARK    4  A    between atoms: C_8  and  C_9 
REMARK    5  A    between atoms: C_12  and  N_13 
REMARK       I    between atoms: N_13  and  C_14 
REMARK       I    between atoms: C_14  and  N_15 
REMARK    6  A    between atoms: N_15  and  C_16 
ROOT
HETATM    1  C   UNL     1      41.139 -15.597   0.217  1.00  0.00     0.032 A 
HETATM    2  C   UNL     1      40.163 -14.685   0.631  1.00  0.00     0.019 A 
HETATM    3  C   UNL     1      39.388 -14.002  -0.314  1.00  0.00     0.030 A 
HETATM    4  C   UNL     1      39.566 -14.228  -1.681  1.00  0.00     0.036 A 
HETATM    5  C   UNL     1      40.528 -15.161  -2.091  1.00  0.00     0.030 A 
HETATM    6  C   UNL     1      41.305 -15.844  -1.149  1.00  0.00     0.019 A 
ENDROOT
BRANCH   1   7
HETATM    7  C   UNL     1      42.003 -16.332   1.182  1.00  0.00     0.251 C 
HETATM    8  N   UNL     1      43.132 -16.933   0.663  1.00  0.00    -0.357 N 
HETATM    9  H   UNL     1      43.171 -17.083  -0.338  1.00  0.00     0.162 HD
HETATM   10  O   UNL     1      41.678 -16.410   2.363  1.00  0.00    -0.268 OA
BRANCH   8  11
HETATM   11  C   UNL     1      43.940 -17.819   1.482  1.00  0.00     0.127 C 
BRANCH  11  12
HETATM   12  C   UNL     1      43.473 -19.275   1.411  1.00  0.00     0.058 C 
BRANCH  12  13
HETATM   13  C   UNL     1      43.996 -20.146   2.531  1.00  0.00    -0.057 A 
HETATM   14  C   UNL     1      44.298 -19.587   3.781  1.00  0.00     0.007 A 
HETATM   15  C   UNL     1      44.773 -20.388   4.821  1.00  0.00     0.001 A 
HETATM   16  C   UNL     1      44.950 -21.755   4.624  1.00  0.00     0.000 A 
HETATM   17  C   UNL     1      44.649 -22.324   3.388  1.00  0.00     0.001 A 
HETATM   18  C   UNL     1      44.171 -21.526   2.348  1.00  0.00     0.007 A 
ENDBRANCH  12  13
ENDBRANCH  11  12
ENDBRANCH   8  11
ENDBRANCH   1   7
BRANCH   4  19
HETATM   19  N   UNL     1      38.850 -13.554  -2.693  1.00  0.00    -0.309 N 
HETATM   20  C   UNL     1      37.695 -13.975  -3.335  1.00  0.00     0.325 C 
HETATM   21  N   UNL     1      37.201 -12.978  -4.162  1.00  0.00    -0.306 N 
HETATM   22  O   UNL     1      37.164 -15.069  -3.189  1.00  0.00    -0.247 OA
HETATM   23  H   UNL     1      37.647 -12.074  -4.164  1.00  0.00     0.171 HD
HETATM   24  H   UNL     1      39.253 -12.689  -3.018  1.00  0.00     0.170 HD
BRANCH  21  25
HETATM   25  C   UNL     1      36.050 -13.098  -4.917  1.00  0.00     0.072 A 
HETATM   26  C   UNL     1      35.789 -13.773  -6.131  1.00  0.00     0.169 A 
HETATM   27  N   UNL     1      34.517 -13.640  -6.524  1.00  0.00    -0.185 NA
HETATM   28  N   UNL     1      33.968 -12.884  -5.562  1.00  0.00    -0.287 N 
HETATM   29  H   UNL     1      32.984 -12.650  -5.642  1.00  0.00     0.188 HD
HETATM   30  C   UNL     1      34.846 -12.529  -4.578  1.00  0.00     0.140 A 
ENDBRANCH  21  25
ENDBRANCH   4  19
TORSDOF 6
ENDMDL
MODEL 3
REMARK VINA RESULT:      -8.0      4.768      7.072
REMARK  6 active torsions:
REMARK  status: ('A' for Active; 'I' for Inactive)
REMARK    1  A    between atoms: C_4  and  C_5 
REMARK    2  A    between atoms: C_5  and  C_6 
REMARK    3  A    between atoms: C_6  and  N_7 
REMARK       I    between atoms: N_7  and  C_8 
REMARK    4  A    between atoms: C_8  and  C_9 
REMARK    5  A    between atoms: C_12  and  N_13 
REMARK       I    between atoms: N_13  and  C_14 
REMARK       I    between atoms: C_14  and  N_15 
REMARK    6  A    between atoms: N_15  and  C_16 
ROOT
HETATM    1  C   UNL     1      40.674 -15.546   3.596  1.00  0.00     0.032 A 
HETATM    2  C   UNL     1      39.989 -14.342   3.404  1.00  0.00     0.019 A 
HETATM    3  C   UNL     1      39.607 -13.563   4.504  1.00  0.00     0.030 A 
HETATM    4  C   UNL     1      39.910 -13.969   5.805  1.00  0.00     0.036 A 
HETATM    5  C   UNL     1      40.619 -15.163   5.992  1.00  0.00     0.030 A 
HETATM    6  C   UNL     1      41.002 -15.943   4.896  1.00  0.00     0.019 A 
ENDROOT
BRANCH   1   7
HETATM    7  C   UNL     1      41.084 -16.418   2.460  1.00  0.00     0.251 C 
HETATM    8  N   UNL     1      41.873 -17.506   2.775  1.00  0.00    -0.357 N 
HETATM    9  H   UNL     1      42.350 -17.503   3.669  1.00  0.00     0.162 HD
HETATM   10  O   UNL     1      40.750 -16.134   1.315  1.00  0.00    -0.268 OA
BRANCH   8  11
HETATM   11  C   UNL     1      42.472 -18.312   1.725  1.00  0.00     0.127 C 
BRANCH  11  12
HETATM   12  C   UNL     1      43.958 -18.586   1.969  1.00  0.00     0.058 C 
BRANCH  12  13
HETATM   13  C   UNL     1      44.234 -19.877   2.708  1.00  0.00    -0.057 A 
HETATM   14  C   UNL     1      44.606 -19.853   4.060  1.00  0.00     0.007 A 
HETATM   15  C   UNL     1      44.853 -21.042   4.749  1.00  0.00     0.001 A 
HETATM   16  C   UNL     1      44.731 -22.266   4.094  1.00  0.00     0.000 A 
HETATM   17  C   UNL     1      44.359 -22.303   2.752  1.00  0.00     0.001 A 
HETATM   18  C   UNL     1      44.107 -21.116   2.063  1.00  0.00     0.007 A 
ENDBRANCH  12  13
ENDBRANCH  11  12
ENDBRANCH   8  11
ENDBRANCH   1   7
BRANCH   4  19
HETATM   19  N   UNL     1      39.529 -13.259   6.963  1.00  0.00    -0.309 N 
HETATM   20  C   UNL     1      39.995 -12.025   7.391  1.00  0.00     0.325 C 
HETATM   21  N   UNL     1      39.275 -11.582   8.491  1.00  0.00    -0.306 N 
HETATM   22  O   UNL     1      40.907 -11.394   6.870  1.00  0.00    -0.247 OA
HETATM   23  H   UNL     1      38.484 -12.118   8.811  1.00  0.00     0.171 HD
HETATM   24  H   UNL     1      38.875 -13.727   7.572  1.00  0.00     0.170 HD
BRANCH  21  25
HETATM   25  C   UNL     1      39.499 -10.377   9.128  1.00  0.00     0.072 A 
HETATM   26  C   UNL     1      40.413 -10.002  10.139  1.00  0.00     0.169 A 
HETATM   27  N   UNL     1      40.302  -8.712  10.472  1.00  0.00    -0.185 NA
HETATM   28  N   UNL     1      39.322  -8.263   9.675  1.00  0.00    -0.287 N 
HETATM   29  H   UNL     1      39.059  -7.286   9.745  1.00  0.00     0.188 HD
HETATM   30  C   UNL     1      38.804  -9.223   8.853  1.00  0.00     0.140 A 
ENDBRANCH  21  25
ENDBRANCH   4  19
TORSDOF 6
ENDMDL
MODEL 4
REMARK VINA RESULT:      -7.8      1.820      2.158
REMARK  6 active torsions:
REMARK  status: ('A' for Active; 'I' for Inactive)
REMARK    1  A    between atoms: C_4  and  C_5 
REMARK    2  A    between atoms: C_5  and  C_6 
REMARK    3  A    between atoms: C_6  and  N_7 
REMARK       I    between atoms: N_7  and  C_8 
REMARK    4  A    between atoms: C_8  and  C_9 
REMARK    5  A    between atoms: C_12  and  N_13 
REMARK       I    between atoms: N_13  and  C_14 
REMARK       I    between atoms: C_14  and  N_15 
REMARK    6  A    between atoms: N_15  and  C_16 
ROOT
HETATM    1  C   UNL     1      41.416 -16.819   3.088  1.00  0.00     0.032 A 
HETATM    2  C   UNL     1      41.876 -17.293   1.855  1.00  0.00     0.019 A 
HETATM    3  C   UNL     1      41.476 -16.672   0.665  1.00  0.00     0.030 A 
HETATM    4  C   UNL     1      40.622 -15.567   0.689  1.00  0.00     0.036 A 
HETATM    5  C   UNL     1      40.183 -15.080   1.928  1.00  0.00     0.030 A 
HETATM    6  C   UNL     1      40.581 -15.698   3.118  1.00  0.00     0.019 A 
ENDROOT
BRANCH   1   7
HETATM    7  C   UNL     1      41.797 -17.458   4.378  1.00  0.00     0.251 C 
HETATM    8  N   UNL     1      43.147 -17.522   4.658  1.00  0.00    -0.357 N 
HETATM    9  H   UNL     1      43.796 -17.399   3.889  1.00  0.00     0.162 HD
HETATM   10  O   UNL     1      40.932 -17.925   5.112  1.00  0.00    -0.268 OA
BRANCH   8  11
HETATM   11  C   UNL     1      43.631 -18.281   5.798  1.00  0.00     0.127 C 
BRANCH  11  12
HETATM   12  C   UNL     1      44.908 -19.064   5.485  1.00  0.00     0.058 C 
BRANCH  12  13
HETATM   13  C   UNL     1      44.719 -20.175   4.476  1.00  0.00    -0.057 A 
HETATM   14  C   UNL     1      44.857 -21.515   4.865  1.00  0.00     0.007 A 
HETATM   15  C   UNL     1      44.675 -22.545   3.939  1.00  0.00     0.001 A 
HETATM   16  C   UNL     1      44.353 -22.246   2.618  1.00  0.00     0.000 A 
HETATM   17  C   UNL     1      44.209 -20.918   2.220  1.00  0.00     0.001 A 
HETATM   18  C   UNL     1      44.386 -19.888   3.144  1.00  0.00     0.007 A 
ENDBRANCH  12  13
ENDBRANCH  11  12
ENDBRANCH   8  11
ENDBRANCH   1   7
BRANCH   4  19
HETATM   19  N   UNL     1      40.146 -14.911  -0.465  1.00  0.00    -0.309 N 
HETATM   20  C   UNL     1      40.660 -13.769  -1.061  1.00  0.00     0.325 C 
HETATM   21  N   UNL     1      40.020 -13.511  -2.264  1.00  0.00    -0.306 N 
HETATM   22  O   UNL     1      41.566 -13.080  -0.607  1.00  0.00    -0.247 OA
HETATM   23  H   UNL     1      39.342 -14.171  -2.612  1.00  0.00     0.171 HD
HETATM   24  H   UNL     1      39.308 -15.292  -0.876  1.00  0.00     0.170 HD
BRANCH  21  25
HETATM   25  C   UNL     1      40.328 -12.450  -3.093  1.00  0.00     0.072 A 
HETATM   26  C   UNL     1      39.675 -11.218  -3.327  1.00  0.00     0.169 A 
HETATM   27  N   UNL     1      40.324 -10.460  -4.218  1.00  0.00    -0.185 NA
HETATM   28  N   UNL     1      41.388 -11.205  -4.551  1.00  0.00    -0.287 N 
HETATM   29  H   UNL     1      42.045 -10.825  -5.225  1.00  0.00     0.188 HD
HETATM   30  C   UNL     1      41.435 -12.409  -3.908  1.00  0.00     0.140 A 
ENDBRANCH  21  25
ENDBRANCH   4  19
TORSDOF 6
ENDMDL
MODEL 5
REMARK VINA RESULT:      -7.5      2.893      4.826
REMARK  6 active torsions:
REMARK  status: ('A' for Active; 'I' for Inactive)
REMARK    1  A    between atoms: C_4  and  C_5 
REMARK    2  A    between atoms: C_5  and  C_6 
REMARK    3  A    between atoms: C_6  and  N_7 
REMARK       I    between atoms: N_7  and  C_8 
REMARK    4  A    between atoms: C_8  and  C_9 
REMARK    5  A    between atoms: C_12  and  N_13 
REMARK       I    between atoms: N_13  and  C_14 
REMARK       I    between atoms: C_14  and  N_15 
REMARK    6  A    between atoms: N_15  and  C_16 
ROOT
HETATM    1  C   UNL     1      40.206 -14.518  -0.546  1.00  0.00     0.032 A 
HETATM    2  C   UNL     1      38.927 -13.998  -0.318  1.00  0.00     0.019 A 
HETATM    3  C   UNL     1      38.179 -13.474  -1.380  1.00  0.00     0.030 A 
HETATM    4  C   UNL     1      38.690 -13.470  -2.679  1.00  0.00     0.036 A 
HETATM    5  C   UNL     1      39.961 -14.015  -2.907  1.00  0.00     0.030 A 
HETATM    6  C   UNL     1      40.711 -14.539  -1.849  1.00  0.00     0.019 A 
ENDROOT
BRANCH   1   7
HETATM    7  C   UNL     1      41.048 -15.068   0.553  1.00  0.00     0.251 C 
HETATM    8  N   UNL     1      42.049 -15.943   0.181  1.00  0.00    -0.357 N 
HETATM    9  H   UNL     1      41.987 -16.372  -0.735  1.00  0.00     0.162 HD
HETATM   10  O   UNL     1      40.813 -14.766   1.718  1.00  0.00    -0.268 OA
BRANCH   8  11
HETATM   11  C   UNL     1      42.805 -16.671   1.185  1.00  0.00     0.127 C 
BRANCH  11  12
HETATM   12  C   UNL     1      42.184 -18.028   1.522  1.00  0.00     0.058 C 
BRANCH  12  13
HETATM   13  C   UNL     1      43.088 -18.940   2.320  1.00  0.00    -0.057 A 
HETATM   14  C   UNL     1      43.439 -20.203   1.822  1.00  0.00     0.007 A 
HETATM   15  C   UNL     1      44.281 -21.044   2.551  1.00  0.00     0.001 A 
HETATM   16  C   UNL     1      44.782 -20.633   3.784  1.00  0.00     0.000 A 
HETATM   17  C   UNL     1      44.444 -19.379   4.288  1.00  0.00     0.001 A 
HETATM   18  C   UNL     1      43.606 -18.535   3.559  1.00  0.00     0.007 A 
ENDBRANCH  12  13
ENDBRANCH  11  12
ENDBRANCH   8  11
ENDBRANCH   1   7
BRANCH   4  19
HETATM   19  N   UNL     1      38.013 -12.929  -3.793  1.00  0.00    -0.309 N 
HETATM   20  C   UNL     1      37.012 -13.524  -4.546  1.00  0.00     0.325 C 
HETATM   21  N   UNL     1      36.487 -12.625  -5.462  1.00  0.00    -0.306 N 
HETATM   22  O   UNL     1      36.625 -14.679  -4.420  1.00  0.00    -0.247 OA
HETATM   23  H   UNL     1      36.800 -11.668  -5.449  1.00  0.00     0.171 HD
HETATM   24  H   UNL     1      38.328 -12.022  -4.102  1.00  0.00     0.170 HD
BRANCH  21  25
HETATM   25  C   UNL     1      35.463 -12.926  -6.340  1.00  0.00     0.072 A 
HETATM   26  C   UNL     1      35.352 -13.899  -7.359  1.00  0.00     0.169 A 
HETATM   27  N   UNL     1      34.168 -13.854  -7.979  1.00  0.00    -0.185 NA
HETATM   28  N   UNL     1      33.523 -12.856  -7.356  1.00  0.00    -0.287 N 
HETATM   29  H   UNL     1      32.580 -12.635  -7.657  1.00  0.00     0.188 HD
HETATM   30  C   UNL     1      34.258 -12.264  -6.369  1.00  0.00     0.140 A 
ENDBRANCH  21  25
ENDBRANCH   4  19
TORSDOF 6
ENDMDL
MODEL 6
REMARK VINA RESULT:      -7.2      1.451      1.891
REMARK  6 active torsions:
REMARK  status: ('A' for Active; 'I' for Inactive)
REMARK    1  A    between atoms: C_4  and  C_5 
REMARK    2  A    between atoms: C_5  and  C_6 
REMARK    3  A    between atoms: C_6  and  N_7 
REMARK       I    between atoms: N_7  and  C_8 
REMARK    4  A    between atoms: C_8  and  C_9 
REMARK    5  A    between atoms: C_12  and  N_13 
REMARK       I    between atoms: N_13  and  C_14 
REMARK       I    between atoms: C_14  and  N_15 
REMARK    6  A    between atoms: N_15  and  C_16 
ROOT
HETATM    1  C   UNL     1      41.579 -16.475   3.002  1.00  0.00     0.032 A 
HETATM    2  C   UNL     1      41.964 -16.883   1.721  1.00  0.00     0.019 A 
HETATM    3  C   UNL     1      41.609 -16.120   0.601  1.00  0.00     0.030 A 
HETATM    4  C   UNL     1      40.877 -14.939   0.744  1.00  0.00     0.036 A 
HETATM    5  C   UNL     1      40.515 -14.522   2.032  1.00  0.00     0.030 A 
HETATM    6  C   UNL     1      40.867 -15.281   3.153  1.00  0.00     0.019 A 
ENDROOT
BRANCH   1   7
HETATM    7  C   UNL     1      41.914 -17.262   4.222  1.00  0.00     0.251 C 
HETATM    8  N   UNL     1      43.256 -17.409   4.510  1.00  0.00    -0.357 N 
HETATM    9  H   UNL     1      43.922 -17.231   3.766  1.00  0.00     0.162 HD
HETATM   10  O   UNL     1      41.020 -17.769   4.891  1.00  0.00    -0.268 OA
BRANCH   8  11
HETATM   11  C   UNL     1      43.692 -18.303   5.567  1.00  0.00     0.127 C 
BRANCH  11  12
HETATM   12  C   UNL     1      44.885 -19.168   5.154  1.00  0.00     0.058 C 
BRANCH  12  13
HETATM   13  C   UNL     1      44.589 -20.128   4.023  1.00  0.00    -0.057 A 
HETATM   14  C   UNL     1      44.720 -21.511   4.215  1.00  0.00     0.007 A 
HETATM   15  C   UNL     1      44.439 -22.401   3.177  1.00  0.00     0.001 A 
HETATM   16  C   UNL     1      44.024 -21.920   1.938  1.00  0.00     0.000 A 
HETATM   17  C   UNL     1      43.886 -20.548   1.735  1.00  0.00     0.001 A 
HETATM   18  C   UNL     1      44.162 -19.656   2.773  1.00  0.00     0.007 A 
ENDBRANCH  12  13
ENDBRANCH  11  12
ENDBRANCH   8  11
ENDBRANCH   1   7
BRANCH   4  19
HETATM   19  N   UNL     1      40.452 -14.137  -0.336  1.00  0.00    -0.309 N 
HETATM   20  C   UNL     1      39.150 -13.876  -0.735  1.00  0.00     0.325 C 
HETATM   21  N   UNL     1      39.126 -12.923  -1.742  1.00  0.00    -0.306 N 
HETATM   22  O   UNL     1      38.148 -14.398  -0.261  1.00  0.00    -0.247 OA
HETATM   23  H   UNL     1      39.986 -12.479  -2.020  1.00  0.00     0.171 HD
HETATM   24  H   UNL     1      41.183 -13.747  -0.910  1.00  0.00     0.170 HD
BRANCH  21  25
HETATM   25  C   UNL     1      37.969 -12.447  -2.329  1.00  0.00     0.072 A 
HETATM   26  C   UNL     1      37.223 -12.900  -3.441  1.00  0.00     0.169 A 
HETATM   27  N   UNL     1      36.145 -12.142  -3.673  1.00  0.00    -0.185 NA
HETATM   28  N   UNL     1      36.202 -11.210  -2.710  1.00  0.00    -0.287 N 
HETATM   29  H   UNL     1      35.468 -10.510  -2.679  1.00  0.00     0.188 HD
HETATM   30  C   UNL     1      37.279 -11.346  -1.881  1.00  0.00     0.140 A 
ENDBRANCH  21  25
ENDBRANCH   4  19
TORSDOF 6
ENDMDL
MODEL 7
REMARK VINA RESULT:      -7.0      3.372      9.914
REMARK  6 active torsions:
REMARK  status: ('A' for Active; 'I' for Inactive)
REMARK    1  A    between atoms: C_4  and  C_5 
REMARK    2  A    between atoms: C_5  and  C_6 
REMARK    3  A    between atoms: C_6  and  N_7 
REMARK       I    between atoms: N_7  and  C_8 
REMARK    4  A    between atoms: C_8  and  C_9 
REMARK    5  A    between atoms: C_12  and  N_13 
REMARK       I    between atoms: N_13  and  C_14 
REMARK       I    between atoms: C_14  and  N_15 
REMARK    6  A    between atoms: N_15  and  C_16 
ROOT
HETATM    1  C   UNL     1      40.206 -14.625  -0.305  1.00  0.00     0.032 A 
HETATM    2  C   UNL     1      41.133 -15.670  -0.368  1.00  0.00     0.019 A 
HETATM    3  C   UNL     1      41.343 -16.496   0.744  1.00  0.00     0.030 A 
HETATM    4  C   UNL     1      40.626 -16.298   1.926  1.00  0.00     0.036 A 
HETATM    5  C   UNL     1      39.680 -15.265   1.976  1.00  0.00     0.030 A 
HETATM    6  C   UNL     1      39.469 -14.438   0.868  1.00  0.00     0.019 A 
ENDROOT
BRANCH   1   7
HETATM    7  C   UNL     1      39.963 -13.707  -1.453  1.00  0.00     0.251 C 
HETATM    8  N   UNL     1      40.979 -13.600  -2.381  1.00  0.00    -0.357 N 
HETATM    9  H   UNL     1      41.904 -13.910  -2.107  1.00  0.00     0.162 HD
HETATM   10  O   UNL     1      38.918 -13.068  -1.518  1.00  0.00    -0.268 OA
BRANCH   8  11
HETATM   11  C   UNL     1      40.916 -12.602  -3.434  1.00  0.00     0.127 C 
BRANCH  11  12
HETATM   12  C   UNL     1      42.285 -12.002  -3.759  1.00  0.00     0.058 C 
BRANCH  12  13
HETATM   13  C   UNL     1      42.638 -10.786  -2.932  1.00  0.00    -0.057 A 
HETATM   14  C   UNL     1      43.172 -10.936  -1.644  1.00  0.00     0.007 A 
HETATM   15  C   UNL     1      43.508  -9.817  -0.880  1.00  0.00     0.001 A 
HETATM   16  C   UNL     1      43.313  -8.537  -1.395  1.00  0.00     0.000 A 
HETATM   17  C   UNL     1      42.787  -8.374  -2.675  1.00  0.00     0.001 A 
HETATM   18  C   UNL     1      42.455  -9.492  -3.441  1.00  0.00     0.007 A 
ENDBRANCH  12  13
ENDBRANCH  11  12
ENDBRANCH   8  11
ENDBRANCH   1   7
BRANCH   4  19
HETATM   19  N   UNL     1      40.806 -17.063   3.097  1.00  0.00    -0.309 N 
HETATM   20  C   UNL     1      41.838 -16.969   4.019  1.00  0.00     0.325 C 
HETATM   21  N   UNL     1      41.592 -17.781   5.116  1.00  0.00    -0.306 N 
HETATM   22  O   UNL     1      42.829 -16.258   3.901  1.00  0.00    -0.247 OA
HETATM   23  H   UNL     1      40.714 -18.271   5.180  1.00  0.00     0.171 HD
HETATM   24  H   UNL     1      40.130 -17.794   3.255  1.00  0.00     0.170 HD
BRANCH  21  25
HETATM   25  C   UNL     1      42.434 -17.883   6.207  1.00  0.00     0.072 A 
HETATM   26  C   UNL     1      42.543 -17.113   7.387  1.00  0.00     0.169 A 
HETATM   27  N   UNL     1      43.503 -17.564   8.202  1.00  0.00    -0.185 NA
HETATM   28  N   UNL     1      44.004 -18.621   7.545  1.00  0.00    -0.287 N 
HETATM   29  H   UNL     1      44.758 -19.141   7.981  1.00  0.00     0.188 HD
HETATM   30  C   UNL     1      43.401 -18.851   6.342  1.00  0.00     0.140 A 
ENDBRANCH  21  25
ENDBRANCH   4  19
TORSDOF 6
ENDMDL
MODEL 8
REMARK VINA RESULT:      -7.0      4.095      5.941
REMARK  6 active torsions:
REMARK  status: ('A' for Active; 'I' for Inactive)
REMARK    1  A    between atoms: C_4  and  C_5 
REMARK    2  A    between atoms: C_5  and  C_6 
REMARK    3  A    between atoms: C_6  and  N_7 
REMARK       I    between atoms: N_7  and  C_8 
REMARK    4  A    between atoms: C_8  and  C_9 
REMARK    5  A    between atoms: C_12  and  N_13 
REMARK       I    between atoms: N_13  and  C_14 
REMARK       I    between atoms: C_14  and  N_15 
REMARK    6  A    between atoms: N_15  and  C_16 
ROOT
HETATM    1  C   UNL     1      43.086 -16.328   2.163  1.00  0.00     0.032 A 
HETATM    2  C   UNL     1      42.242 -15.567   1.348  1.00  0.00     0.019 A 
HETATM    3  C   UNL     1      41.966 -14.232   1.669  1.00  0.00     0.030 A 
HETATM    4  C   UNL     1      42.534 -13.636   2.797  1.00  0.00     0.036 A 
HETATM    5  C   UNL     1      43.399 -14.395   3.597  1.00  0.00     0.030 A 
HETATM    6  C   UNL     1      43.676 -15.729   3.280  1.00  0.00     0.019 A 
ENDROOT
BRANCH   1   7
HETATM    7  C   UNL     1      43.394 -17.757   1.876  1.00  0.00     0.251 C 
HETATM    8  N   UNL     1      43.384 -18.617   2.956  1.00  0.00    -0.357 N 
HETATM    9  H   UNL     1      43.449 -18.213   3.883  1.00  0.00     0.162 HD
HETATM   10  O   UNL     1      43.672 -18.108   0.734  1.00  0.00    -0.268 OA
BRANCH   8  11
HETATM   11  C   UNL     1      43.845 -19.987   2.813  1.00  0.00     0.127 C 
BRANCH  11  12
HETATM   12  C   UNL     1      44.895 -20.367   3.860  1.00  0.00     0.058 C 
BRANCH  12  13
HETATM   13  C   UNL     1      44.635 -19.789   5.233  1.00  0.00    -0.057 A 
HETATM   14  C   UNL     1      43.942 -20.537   6.196  1.00  0.00     0.007 A 
HETATM   15  C   UNL     1      43.707 -20.012   7.468  1.00  0.00     0.001 A 
HETATM   16  C   UNL     1      44.161 -18.735   7.791  1.00  0.00     0.000 A 
HETATM   17  C   UNL     1      44.854 -17.984   6.844  1.00  0.00     0.001 A 
HETATM   18  C   UNL     1      45.094 -18.509   5.574  1.00  0.00     0.007 A 
ENDBRANCH  12  13
ENDBRANCH  11  12
ENDBRANCH   8  11
ENDBRANCH   1   7
BRANCH   4  19
HETATM   19  N   UNL     1      42.277 -12.311   3.205  1.00  0.00    -0.309 N 
HETATM   20  C   UNL     1      41.488 -11.890   4.265  1.00  0.00     0.325 C 
HETATM   21  N   UNL     1      41.599 -10.519   4.447  1.00  0.00    -0.306 N 
HETATM   22  O   UNL     1      40.795 -12.619   4.964  1.00  0.00    -0.247 OA
HETATM   23  H   UNL     1      42.254  -9.999   3.885  1.00  0.00     0.171 HD
HETATM   24  H   UNL     1      42.677 -11.586   2.629  1.00  0.00     0.170 HD
BRANCH  21  25
HETATM   25  C   UNL     1      40.943  -9.814   5.438  1.00  0.00     0.072 A 
HETATM   26  C   UNL     1      41.280  -9.550   6.785  1.00  0.00     0.169 A 
HETATM   27  N   UNL     1      40.354  -8.810   7.405  1.00  0.00    -0.185 NA
HETATM   28  N   UNL     1      39.430  -8.601   6.456  1.00  0.00    -0.287 N 
HETATM   29  H   UNL     1      38.616  -8.045   6.696  1.00  0.00     0.188 HD
HETATM   30  C   UNL     1      39.734  -9.186   5.260  1.00  0.00     0.140 A 
ENDBRANCH  21  25
ENDBRANCH   4  19
TORSDOF 6
ENDMDL
MODEL 9
REMARK VINA RESULT:      -6.9      2.309      4.130
REMARK  6 active torsions:
REMARK  status: ('A' for Active; 'I' for Inactive)
REMARK    1  A    between atoms: C_4  and  C_5 
REMARK    2  A    between atoms: C_5  and  C_6 
REMARK    3  A    between atoms: C_6  and  N_7 
REMARK       I    between atoms: N_7  and  C_8 
REMARK    4  A    between atoms: C_8  and  C_9 
REMARK    5  A    between atoms: C_12  and  N_13 
REMARK       I    between atoms: N_13  and  C_14 
REMARK       I    between atoms: C_14  and  N_15 
REMARK    6  A    between atoms: N_15  and  C_16 
ROOT
HETATM    1  C   UNL     1      43.670 -18.566   3.148  1.00  0.00     0.032 A 
HETATM    2  C   UNL     1      44.125 -18.810   1.849  1.00  0.00     0.019 A 
HETATM    3  C   UNL     1      43.610 -18.080   0.771  1.00  0.00     0.030 A 
HETATM    4  C   UNL     1      42.644 -17.092   0.974  1.00  0.00     0.036 A 
HETATM    5  C   UNL     1      42.208 -16.834   2.281  1.00  0.00     0.030 A 
HETATM    6  C   UNL     1      42.720 -17.562   3.360  1.00  0.00     0.019 A 
ENDROOT
BRANCH   1   7
HETATM    7  C   UNL     1      44.172 -19.330   4.324  1.00  0.00     0.251 C 
HETATM    8  N   UNL     1      43.289 -19.496   5.373  1.00  0.00    -0.357 N 
HETATM    9  H   UNL     1      42.484 -18.881   5.415  1.00  0.00     0.162 HD
HETATM   10  O   UNL     1      45.326 -19.744   4.341  1.00  0.00    -0.268 OA
BRANCH   8  11
HETATM   11  C   UNL     1      43.735 -20.065   6.632  1.00  0.00     0.127 C 
BRANCH  11  12
HETATM   12  C   UNL     1      43.833 -19.022   7.748  1.00  0.00     0.058 C 
BRANCH  12  13
HETATM   13  C   UNL     1      43.582 -17.603   7.290  1.00  0.00    -0.057 A 
HETATM   14  C   UNL     1      44.656 -16.727   7.079  1.00  0.00     0.007 A 
HETATM   15  C   UNL     1      44.429 -15.418   6.647  1.00  0.00     0.001 A 
HETATM   16  C   UNL     1      43.129 -14.973   6.423  1.00  0.00     0.000 A 
HETATM   17  C   UNL     1      42.053 -15.835   6.626  1.00  0.00     0.001 A 
HETATM   18  C   UNL     1      42.278 -17.145   7.053  1.00  0.00     0.007 A 
ENDBRANCH  12  13
ENDBRANCH  11  12
ENDBRANCH   8  11
ENDBRANCH   1   7
BRANCH   4  19
HETATM   19  N   UNL     1      42.051 -16.341  -0.062  1.00  0.00    -0.309 N 
HETATM   20  C   UNL     1      41.009 -15.432   0.042  1.00  0.00     0.325 C 
HETATM   21  N   UNL     1      40.804 -14.780  -1.165  1.00  0.00    -0.306 N 
HETATM   22  O   UNL     1      40.360 -15.213   1.057  1.00  0.00    -0.247 OA
HETATM   23  H   UNL     1      41.433 -14.953  -1.932  1.00  0.00     0.171 HD
HETATM   24  H   UNL     1      42.397 -16.522  -0.992  1.00  0.00     0.170 HD
BRANCH  21  25
HETATM   25  C   UNL     1      39.844 -13.805  -1.365  1.00  0.00     0.072 A 
HETATM   26  C   UNL     1      38.453 -13.790  -1.119  1.00  0.00     0.169 A 
HETATM   27  N   UNL     1      37.889 -12.625  -1.455  1.00  0.00    -0.185 NA
HETATM   28  N   UNL     1      38.919 -11.897  -1.912  1.00  0.00    -0.287 N 
HETATM   29  H   UNL     1      38.732 -10.951  -2.227  1.00  0.00     0.188 HD
HETATM   30  C   UNL     1      40.112 -12.560  -1.883  1.00  0.00     0.140 A 
ENDBRANCH  21  25
ENDBRANCH   4  19
TORSDOF 6
ENDMDL
MODEL 10
REMARK VINA RESULT:      -6.9      2.844      4.287
REMARK  6 active torsions:
REMARK  status: ('A' for Active; 'I' for Inactive)
REMARK    1  A    between atoms: C_4  and  C_5 
REMARK    2  A    between atoms: C_5  and  C_6 
REMARK    3  A    between atoms: C_6  and  N_7 
REMARK       I    between atoms: N_7  and  C_8 
REMARK    4  A    between atoms: C_8  and  C_9 
REMARK    5  A    between atoms: C_12  and  N_13 
REMARK       I    between atoms: N_13  and  C_14 
REMARK       I    between atoms: C_14  and  N_15 
REMARK    6  A    between atoms: N_15  and  C_16 
ROOT
HETATM    1  C   UNL     1      40.867 -15.449  -0.023  1.00  0.00     0.032 A 
HETATM    2  C   UNL     1      41.337 -15.622  -1.329  1.00  0.00     0.019 A 
HETATM    3  C   UNL     1      40.861 -14.808  -2.365  1.00  0.00     0.030 A 
HETATM    4  C   UNL     1      39.921 -13.808  -2.111  1.00  0.00     0.036 A 
HETATM    5  C   UNL     1      39.471 -13.621  -0.797  1.00  0.00     0.030 A 
HETATM    6  C   UNL     1      39.944 -14.432   0.239  1.00  0.00     0.019 A 
ENDROOT
BRANCH   1   7
HETATM    7  C   UNL     1      41.327 -16.302   1.108  1.00  0.00     0.251 C 
HETATM    8  N   UNL     1      42.686 -16.532   1.192  1.00  0.00    -0.357 N 
HETATM    9  H   UNL     1      43.247 -16.360   0.366  1.00  0.00     0.162 HD
HETATM   10  O   UNL     1      40.510 -16.787   1.884  1.00  0.00    -0.268 OA
BRANCH   8  11
HETATM   11  C   UNL     1      43.215 -17.491   2.145  1.00  0.00     0.127 C 
BRANCH  11  12
HETATM   12  C   UNL     1      43.452 -18.870   1.524  1.00  0.00     0.058 C 
BRANCH  12  13
HETATM   13  C   UNL     1      43.939 -19.913   2.504  1.00  0.00    -0.057 A 
HETATM   14  C   UNL     1      44.273 -19.550   3.817  1.00  0.00     0.007 A 
HETATM   15  C   UNL     1      44.715 -20.511   4.728  1.00  0.00     0.001 A 
HETATM   16  C   UNL     1      44.827 -21.843   4.338  1.00  0.00     0.000 A 
HETATM   17  C   UNL     1      44.495 -22.217   3.038  1.00  0.00     0.001 A 
HETATM   18  C   UNL     1      44.049 -21.259   2.127  1.00  0.00     0.007 A 
ENDBRANCH  12  13
ENDBRANCH  11  12
ENDBRANCH   8  11
ENDBRANCH   1   7
BRANCH   4  19
HETATM   19  N   UNL     1      39.368 -12.973  -3.105  1.00  0.00    -0.309 N 
HETATM   20  C   UNL     1      39.874 -11.772  -3.580  1.00  0.00     0.325 C 
HETATM   21  N   UNL     1      39.134 -11.320  -4.662  1.00  0.00    -0.306 N 
HETATM   22  O   UNL     1      40.850 -11.188  -3.125  1.00  0.00    -0.247 OA
HETATM   23  H   UNL     1      38.397 -11.899  -5.031  1.00  0.00     0.171 HD
HETATM   24  H   UNL     1      38.477 -13.263  -3.479  1.00  0.00     0.170 HD
BRANCH  21  25
HETATM   25  C   UNL     1      39.411 -10.158  -5.357  1.00  0.00     0.072 A 
HETATM   26  C   UNL     1      38.945  -8.833  -5.197  1.00  0.00     0.169 A 
HETATM   27  N   UNL     1      39.478  -7.996  -6.094  1.00  0.00    -0.185 NA
HETATM   28  N   UNL     1      40.283  -8.783  -6.822  1.00  0.00    -0.287 N 
HETATM   29  H   UNL     1      40.811  -8.358  -7.577  1.00  0.00     0.188 HD
HETATM   30  C   UNL     1      40.275 -10.089  -6.423  1.00  0.00     0.140 A 
ENDBRANCH  21  25
ENDBRANCH   4  19
TORSDOF 6
ENDMDL
