MODEL 1
REMARK VINA RESULT:      -9.5      0.000      0.000
REMARK  5 active torsions:
REMARK  status: ('A' for Active; 'I' for Inactive)
REMARK    1  A    between atoms: C_4  and  C_5 
REMARK    2  A    between atoms: C_10  and  C_11 
REMARK    3  A    between atoms: C_11  and  N_12 
REMARK    4  A    between atoms: N_12  and  C_14 
REMARK    5  A    between atoms: N_17  and  C_18 
ROOT
HETATM    1  N   UNL     1      41.942 -16.223   3.486  1.00  0.00    -0.067 N 
HETATM    2  H   UNL     1      42.242 -15.646   4.289  1.00  0.00     0.280 HD
HETATM    3  C   UNL     1      40.456 -16.045   3.410  1.00  0.00     0.270 C 
ENDROOT
BRANCH   1   4
HETATM    4  C   UNL     1      42.287 -17.635   3.963  1.00  0.00     0.277 C 
BRANCH   4   5
HETATM    5  C   UNL     1      43.397 -17.682   4.940  1.00  0.00     0.016 A 
HETATM    6  C   UNL     1      44.259 -18.731   5.234  1.00  0.00     0.069 A 
HETATM    7  N   UNL     1      45.098 -18.249   6.213  1.00  0.00    -0.277 N 
HETATM    8  H   UNL     1      45.887 -18.719   6.651  1.00  0.00     0.189 HD
HETATM    9  N   UNL     1      44.801 -17.001   6.601  1.00  0.00    -0.186 NA
HETATM   10  C   UNL     1      43.808 -16.636   5.798  1.00  0.00     0.149 A 
BRANCH   6  11
HETATM   11  C   UNL     1      44.402 -20.074   4.681  1.00  0.00    -0.007 A 
HETATM   12  C   UNL     1      44.275 -20.291   3.301  1.00  0.00     0.020 A 
HETATM   13  C   UNL     1      44.379 -21.582   2.765  1.00  0.00    -0.061 A 
HETATM   14  C   UNL     1      44.226 -21.812   1.288  1.00  0.00     0.048 C 
HETATM   15  C   UNL     1      44.655 -22.656   3.617  1.00  0.00     0.007 A 
HETATM   16  C   UNL     1      44.780 -22.451   4.990  1.00  0.00     0.001 A 
HETATM   17  C   UNL     1      44.644 -21.168   5.521  1.00  0.00     0.014 A 
ENDBRANCH   6  11
ENDBRANCH   4   5
ENDBRANCH   1   4
BRANCH   1  18
HETATM   18  C   UNL     1      42.785 -15.715   2.304  1.00  0.00     0.190 C 
HETATM   19  C   UNL     1      42.786 -16.639   1.081  1.00  0.00     0.048 C 
HETATM   20  C   UNL     1      41.707 -16.334   0.051  1.00  0.00     0.099 C 
HETATM   21  N   UNL     1      41.756 -14.908  -0.283  1.00  0.00    -0.268 NA
HETATM   22  C   UNL     1      41.466 -14.021   0.852  1.00  0.00     0.099 C 
HETATM   23  C   UNL     1      42.491 -14.246   1.967  1.00  0.00     0.048 C 
BRANCH  21  24
HETATM   24  C   UNL     1      41.090 -14.560  -1.472  1.00  0.00     0.109 A 
HETATM   25  N   UNL     1      41.168 -13.299  -1.936  1.00  0.00    -0.224 NA
HETATM   26  C   UNL     1      40.566 -13.011  -3.118  1.00  0.00     0.102 A 
HETATM   27  C   UNL     1      40.670 -11.619  -3.656  1.00  0.00     0.091 C 
HETATM   28  N   UNL     1      39.893 -13.917  -3.839  1.00  0.00    -0.348 N 
HETATM   29  H   UNL     1      39.470 -13.636  -4.722  1.00  0.00     0.167 HD
HETATM   30  C   UNL     1      39.795 -15.182  -3.405  1.00  0.00     0.009 A 
HETATM   31  C   UNL     1      39.041 -16.177  -4.227  1.00  0.00     0.068 C 
HETATM   32  C   UNL     1      40.408 -15.530  -2.200  1.00  0.00     0.069 A 
ENDBRANCH  21  24
ENDBRANCH   1  18
TORSDOF 5
ENDMDL
MODEL 2
REMARK VINA RESULT:      -9.3      1.725      2.852
REMARK  5 active torsions:
REMARK  status: ('A' for Active; 'I' for Inactive)
REMARK    1  A    between atoms: C_4  and  C_5 
REMARK    2  A    between atoms: C_10  and  C_11 
REMARK    3  A    between atoms: C_11  and  N_12 
REMARK    4  A    between atoms: N_12  and  C_14 
REMARK    5  A    between atoms: N_17  and  C_18 
ROOT
HETATM    1  N   UNL     1      42.499 -15.134   5.410  1.00  0.00    -0.067 N 
HETATM    2  H   UNL     1      43.036 -15.596   4.658  1.00  0.00     0.280 HD
HETATM    3  C   UNL     1      43.526 -14.450   6.260  1.00  0.00     0.270 C 
ENDROOT
BRANCH   1   4
HETATM    4  C   UNL     1      41.901 -16.328   6.154  1.00  0.00     0.277 C 
BRANCH   4   5
HETATM    5  C   UNL     1      42.902 -17.336   6.569  1.00  0.00     0.016 A 
HETATM    6  C   UNL     1      43.631 -18.221   5.784  1.00  0.00     0.069 A 
HETATM    7  N   UNL     1      44.411 -18.933   6.666  1.00  0.00    -0.277 N 
HETATM    8  H   UNL     1      45.107 -19.645   6.455  1.00  0.00     0.189 HD
HETATM    9  N   UNL     1      44.194 -18.610   7.949  1.00  0.00    -0.186 NA
HETATM   10  C   UNL     1      43.322 -17.610   7.891  1.00  0.00     0.149 A 
BRANCH   6  11
HETATM   11  C   UNL     1      43.702 -18.429   4.341  1.00  0.00    -0.007 A 
HETATM   12  C   UNL     1      43.719 -19.727   3.811  1.00  0.00     0.020 A 
HETATM   13  C   UNL     1      43.819 -19.936   2.428  1.00  0.00    -0.061 A 
HETATM   14  C   UNL     1      43.855 -21.328   1.864  1.00  0.00     0.048 C 
HETATM   15  C   UNL     1      43.859 -18.831   1.571  1.00  0.00     0.007 A 
HETATM   16  C   UNL     1      43.845 -17.537   2.088  1.00  0.00     0.001 A 
HETATM   17  C   UNL     1      43.777 -17.337   3.468  1.00  0.00     0.014 A 
ENDBRANCH   6  11
ENDBRANCH   4   5
ENDBRANCH   1   4
BRANCH   1  18
HETATM   18  C   UNL     1      41.477 -14.251   4.674  1.00  0.00     0.190 C 
HETATM   19  C   UNL     1      42.075 -13.008   4.006  1.00  0.00     0.048 C 
HETATM   20  C   UNL     1      42.496 -13.204   2.555  1.00  0.00     0.099 C 
HETATM   21  N   UNL     1      41.382 -13.799   1.813  1.00  0.00    -0.268 NA
HETATM   22  C   UNL     1      40.997 -15.135   2.286  1.00  0.00     0.099 C 
HETATM   23  C   UNL     1      40.559 -15.066   3.751  1.00  0.00     0.048 C 
BRANCH  21  24
HETATM   24  C   UNL     1      41.483 -13.689   0.414  1.00  0.00     0.109 A 
HETATM   25  N   UNL     1      42.065 -12.604  -0.131  1.00  0.00    -0.224 NA
HETATM   26  C   UNL     1      42.202 -12.558  -1.479  1.00  0.00     0.102 A 
HETATM   27  C   UNL     1      42.872 -11.369  -2.093  1.00  0.00     0.091 C 
HETATM   28  N   UNL     1      41.780 -13.533  -2.295  1.00  0.00    -0.348 N 
HETATM   29  H   UNL     1      41.920 -13.437  -3.300  1.00  0.00     0.167 HD
HETATM   30  C   UNL     1      41.194 -14.627  -1.786  1.00  0.00     0.009 A 
HETATM   31  C   UNL     1      40.733 -15.703  -2.714  1.00  0.00     0.068 C 
HETATM   32  C   UNL     1      41.042 -14.726  -0.402  1.00  0.00     0.069 A 
ENDBRANCH  21  24
ENDBRANCH   1  18
TORSDOF 5
ENDMDL
MODEL 3
REMARK VINA RESULT:      -9.2      2.697      7.183
REMARK  5 active torsions:
REMARK  status: ('A' for Active; 'I' for Inactive)
REMARK    1  A    between atoms: C_4  and  C_5 
REMARK    2  A    between atoms: C_10  and  C_11 
REMARK    3  A    between atoms: C_11  and  N_12 
REMARK    4  A    between atoms: N_12  and  C_14 
REMARK    5  A    between atoms: N_17  and  C_18 
ROOT
HETATM    1  N   UNL     1      40.894 -13.925   1.393  1.00  0.00    -0.067 N 
HETATM    2  H   UNL     1      41.754 -13.969   1.963  1.00  0.00     0.280 HD
HETATM    3  C   UNL     1      41.190 -12.926   0.316  1.00  0.00     0.270 C 
ENDROOT
BRANCH   1   4
HETATM    4  C   UNL     1      39.881 -13.356   2.386  1.00  0.00     0.277 C 
BRANCH   4   5
HETATM    5  C   UNL     1      40.473 -12.436   3.382  1.00  0.00     0.016 A 
HETATM    6  C   UNL     1      41.065 -12.733   4.604  1.00  0.00     0.069 A 
HETATM    7  N   UNL     1      41.443 -11.519   5.130  1.00  0.00    -0.277 N 
HETATM    8  H   UNL     1      41.944 -11.339   5.997  1.00  0.00     0.189 HD
HETATM    9  N   UNL     1      41.088 -10.475   4.367  1.00  0.00    -0.186 NA
HETATM   10  C   UNL     1      40.549 -11.027   3.287  1.00  0.00     0.149 A 
BRANCH   6  11
HETATM   11  C   UNL     1      41.343 -13.994   5.283  1.00  0.00    -0.007 A 
HETATM   12  C   UNL     1      42.659 -14.346   5.615  1.00  0.00     0.020 A 
HETATM   13  C   UNL     1      42.940 -15.571   6.238  1.00  0.00    -0.061 A 
HETATM   14  C   UNL     1      44.352 -15.952   6.577  1.00  0.00     0.048 C 
HETATM   15  C   UNL     1      41.884 -16.426   6.569  1.00  0.00     0.007 A 
HETATM   16  C   UNL     1      40.572 -16.086   6.241  1.00  0.00     0.001 A 
HETATM   17  C   UNL     1      40.304 -14.881   5.591  1.00  0.00     0.014 A 
ENDBRANCH   6  11
ENDBRANCH   4   5
ENDBRANCH   1   4
BRANCH   1  18
HETATM   18  C   UNL     1      40.635 -15.381   0.966  1.00  0.00     0.190 C 
HETATM   19  C   UNL     1      41.789 -16.032   0.196  1.00  0.00     0.048 C 
HETATM   20  C   UNL     1      42.789 -16.784   1.064  1.00  0.00     0.099 C 
HETATM   21  N   UNL     1      42.062 -17.708   1.938  1.00  0.00    -0.268 NA
HETATM   22  C   UNL     1      41.155 -17.044   2.883  1.00  0.00     0.099 C 
HETATM   23  C   UNL     1      40.099 -16.241   2.120  1.00  0.00     0.048 C 
BRANCH  21  24
HETATM   24  C   UNL     1      42.853 -18.721   2.511  1.00  0.00     0.109 A 
HETATM   25  N   UNL     1      43.134 -19.830   1.803  1.00  0.00    -0.224 NA
HETATM   26  C   UNL     1      43.950 -20.759   2.362  1.00  0.00     0.102 A 
HETATM   27  C   UNL     1      44.290 -21.984   1.572  1.00  0.00     0.091 C 
HETATM   28  N   UNL     1      44.482 -20.630   3.584  1.00  0.00    -0.348 N 
HETATM   29  H   UNL     1      45.093 -21.362   3.941  1.00  0.00     0.167 HD
HETATM   30  C   UNL     1      44.222 -19.537   4.317  1.00  0.00     0.009 A 
HETATM   31  C   UNL     1      44.828 -19.412   5.677  1.00  0.00     0.068 C 
HETATM   32  C   UNL     1      43.397 -18.547   3.780  1.00  0.00     0.069 A 
ENDBRANCH  21  24
ENDBRANCH   1  18
TORSDOF 5
ENDMDL
MODEL 4
REMARK VINA RESULT:      -9.2      0.875      1.552
REMARK  5 active torsions:
REMARK  status: ('A' for Active; 'I' for Inactive)
REMARK    1  A    between atoms: C_4  and  C_5 
REMARK    2  A    between atoms: C_10  and  C_11 
REMARK    3  A    between atoms: C_11  and  N_12 
REMARK    4  A    between atoms: N_12  and  C_14 
REMARK    5  A    between atoms: N_17  and  C_18 
ROOT
HETATM    1  N   UNL     1      41.593 -15.075   3.747  1.00  0.00    -0.067 N 
HETATM    2  H   UNL     1      41.948 -14.467   4.502  1.00  0.00     0.280 HD
HETATM    3  C   UNL     1      40.147 -14.708   3.597  1.00  0.00     0.270 C 
ENDROOT
BRANCH   1   4
HETATM    4  C   UNL     1      41.728 -16.466   4.368  1.00  0.00     0.277 C 
BRANCH   4   5
HETATM    5  C   UNL     1      42.858 -16.589   5.316  1.00  0.00     0.016 A 
HETATM    6  C   UNL     1      43.816 -17.592   5.409  1.00  0.00     0.069 A 
HETATM    7  N   UNL     1      44.627 -17.222   6.458  1.00  0.00    -0.277 N 
HETATM    8  H   UNL     1      45.463 -17.691   6.799  1.00  0.00     0.189 HD
HETATM    9  N   UNL     1      44.227 -16.099   7.071  1.00  0.00    -0.186 NA
HETATM   10  C   UNL     1      43.190 -15.686   6.351  1.00  0.00     0.149 A 
BRANCH   6  11
HETATM   11  C   UNL     1      44.067 -18.791   4.617  1.00  0.00    -0.007 A 
HETATM   12  C   UNL     1      44.459 -19.985   5.241  1.00  0.00     0.020 A 
HETATM   13  C   UNL     1      44.734 -21.133   4.485  1.00  0.00    -0.061 A 
HETATM   14  C   UNL     1      45.171 -22.405   5.154  1.00  0.00     0.048 C 
HETATM   15  C   UNL     1      44.570 -21.092   3.096  1.00  0.00     0.007 A 
HETATM   16  C   UNL     1      44.182 -19.910   2.467  1.00  0.00     0.001 A 
HETATM   17  C   UNL     1      43.942 -18.762   3.223  1.00  0.00     0.014 A 
ENDBRANCH   6  11
ENDBRANCH   4   5
ENDBRANCH   1   4
BRANCH   1  18
HETATM   18  C   UNL     1      42.527 -14.804   2.555  1.00  0.00     0.190 C 
HETATM   19  C   UNL     1      42.545 -15.912   1.497  1.00  0.00     0.048 C 
HETATM   20  C   UNL     1      41.544 -15.729   0.364  1.00  0.00     0.099 C 
HETATM   21  N   UNL     1      41.690 -14.379  -0.187  1.00  0.00    -0.268 NA
HETATM   22  C   UNL     1      41.388 -13.308   0.772  1.00  0.00     0.099 C 
HETATM   23  C   UNL     1      42.334 -13.396   1.971  1.00  0.00     0.048 C 
BRANCH  21  24
HETATM   24  C   UNL     1      41.113 -14.197  -1.457  1.00  0.00     0.109 A 
HETATM   25  N   UNL     1      41.262 -13.023  -2.097  1.00  0.00    -0.224 NA
HETATM   26  C   UNL     1      40.746 -12.902  -3.346  1.00  0.00     0.102 A 
HETATM   27  C   UNL     1      40.930 -11.609  -4.077  1.00  0.00     0.091 C 
HETATM   28  N   UNL     1      40.088 -13.888  -3.968  1.00  0.00    -0.348 N 
HETATM   29  H   UNL     1      39.731 -13.733  -4.909  1.00  0.00     0.167 HD
HETATM   30  C   UNL     1      39.920 -15.071  -3.358  1.00  0.00     0.009 A 
HETATM   31  C   UNL     1      39.185 -16.159  -4.072  1.00  0.00     0.068 C 
HETATM   32  C   UNL     1      40.444 -15.249  -2.077  1.00  0.00     0.069 A 
ENDBRANCH  21  24
ENDBRANCH   1  18
TORSDOF 5
ENDMDL
MODEL 5
REMARK VINA RESULT:      -9.1      2.752      7.263
REMARK  5 active torsions:
REMARK  status: ('A' for Active; 'I' for Inactive)
REMARK    1  A    between atoms: C_4  and  C_5 
REMARK    2  A    between atoms: C_10  and  C_11 
REMARK    3  A    between atoms: C_11  and  N_12 
REMARK    4  A    between atoms: N_12  and  C_14 
REMARK    5  A    between atoms: N_17  and  C_18 
ROOT
HETATM    1  N   UNL     1      40.462 -13.779   1.680  1.00  0.00    -0.067 N 
HETATM    2  H   UNL     1      41.120 -13.827   2.475  1.00  0.00     0.280 HD
HETATM    3  C   UNL     1      40.933 -12.621   0.853  1.00  0.00     0.270 C 
ENDROOT
BRANCH   1   4
HETATM    4  C   UNL     1      39.145 -13.436   2.377  1.00  0.00     0.277 C 
BRANCH   4   5
HETATM    5  C   UNL     1      39.299 -12.519   3.528  1.00  0.00     0.016 A 
HETATM    6  C   UNL     1      40.209 -12.575   4.576  1.00  0.00     0.069 A 
HETATM    7  N   UNL     1      39.919 -11.489   5.369  1.00  0.00    -0.277 N 
HETATM    8  H   UNL     1      40.402 -11.178   6.209  1.00  0.00     0.189 HD
HETATM    9  N   UNL     1      38.864 -10.783   4.939  1.00  0.00    -0.186 NA
HETATM   10  C   UNL     1      38.520 -11.371   3.799  1.00  0.00     0.149 A 
BRANCH   6  11
HETATM   11  C   UNL     1      41.312 -13.483   4.875  1.00  0.00    -0.007 A 
HETATM   12  C   UNL     1      41.091 -14.644   5.630  1.00  0.00     0.020 A 
HETATM   13  C   UNL     1      42.150 -15.506   5.949  1.00  0.00    -0.061 A 
HETATM   14  C   UNL     1      41.913 -16.739   6.772  1.00  0.00     0.048 C 
HETATM   15  C   UNL     1      43.432 -15.219   5.468  1.00  0.00     0.007 A 
HETATM   16  C   UNL     1      43.662 -14.067   4.719  1.00  0.00     0.001 A 
HETATM   17  C   UNL     1      42.609 -13.197   4.433  1.00  0.00     0.014 A 
ENDBRANCH   6  11
ENDBRANCH   4   5
ENDBRANCH   1   4
BRANCH   1  18
HETATM   18  C   UNL     1      40.514 -15.179   1.046  1.00  0.00     0.190 C 
HETATM   19  C   UNL     1      41.865 -15.544   0.421  1.00  0.00     0.048 C 
HETATM   20  C   UNL     1      42.826 -16.265   1.356  1.00  0.00     0.099 C 
HETATM   21  N   UNL     1      42.131 -17.398   1.973  1.00  0.00    -0.268 NA
HETATM   22  C   UNL     1      40.992 -17.011   2.814  1.00  0.00     0.099 C 
HETATM   23  C   UNL     1      39.951 -16.263   1.977  1.00  0.00     0.048 C 
BRANCH  21  24
HETATM   24  C   UNL     1      42.977 -18.361   2.553  1.00  0.00     0.109 A 
HETATM   25  N   UNL     1      43.499 -18.143   3.774  1.00  0.00    -0.224 NA
HETATM   26  C   UNL     1      44.261 -19.118   4.331  1.00  0.00     0.102 A 
HETATM   27  C   UNL     1      44.823 -18.896   5.700  1.00  0.00     0.091 C 
HETATM   28  N   UNL     1      44.525 -20.281   3.723  1.00  0.00    -0.348 N 
HETATM   29  H   UNL     1      45.100 -20.974   4.200  1.00  0.00     0.167 HD
HETATM   30  C   UNL     1      44.023 -20.530   2.504  1.00  0.00     0.009 A 
HETATM   31  C   UNL     1      44.329 -21.836   1.845  1.00  0.00     0.068 C 
HETATM   32  C   UNL     1      43.223 -19.562   1.895  1.00  0.00     0.069 A 
ENDBRANCH  21  24
ENDBRANCH   1  18
TORSDOF 5
ENDMDL
MODEL 6
REMARK VINA RESULT:      -9.0      1.416      2.465
REMARK  5 active torsions:
REMARK  status: ('A' for Active; 'I' for Inactive)
REMARK    1  A    between atoms: C_4  and  C_5 
REMARK    2  A    between atoms: C_10  and  C_11 
REMARK    3  A    between atoms: C_11  and  N_12 
REMARK    4  A    between atoms: N_12  and  C_14 
REMARK    5  A    between atoms: N_17  and  C_18 
ROOT
HETATM    1  N   UNL     1      41.613 -15.898   3.291  1.00  0.00    -0.067 N 
HETATM    2  H   UNL     1      42.520 -16.278   2.976  1.00  0.00     0.280 HD
HETATM    3  C   UNL     1      41.840 -14.424   3.447  1.00  0.00     0.270 C 
ENDROOT
BRANCH   1   4
HETATM    4  C   UNL     1      41.448 -16.560   4.659  1.00  0.00     0.277 C 
BRANCH   4   5
HETATM    5  C   UNL     1      42.692 -16.593   5.461  1.00  0.00     0.016 A 
HETATM    6  C   UNL     1      43.737 -17.508   5.417  1.00  0.00     0.069 A 
HETATM    7  N   UNL     1      44.636 -17.079   6.367  1.00  0.00    -0.277 N 
HETATM    8  H   UNL     1      45.545 -17.475   6.595  1.00  0.00     0.189 HD
HETATM    9  N   UNL     1      44.219 -16.002   7.047  1.00  0.00    -0.186 NA
HETATM   10  C   UNL     1      43.069 -15.674   6.467  1.00  0.00     0.149 A 
BRANCH   6  11
HETATM   11  C   UNL     1      43.992 -18.672   4.575  1.00  0.00    -0.007 A 
HETATM   12  C   UNL     1      44.372 -19.894   5.150  1.00  0.00     0.020 A 
HETATM   13  C   UNL     1      44.650 -21.009   4.347  1.00  0.00    -0.061 A 
HETATM   14  C   UNL     1      45.075 -22.311   4.965  1.00  0.00     0.048 C 
HETATM   15  C   UNL     1      44.502 -20.906   2.960  1.00  0.00     0.007 A 
HETATM   16  C   UNL     1      44.126 -19.696   2.379  1.00  0.00     0.001 A 
HETATM   17  C   UNL     1      43.883 -18.581   3.183  1.00  0.00     0.014 A 
ENDBRANCH   6  11
ENDBRANCH   4   5
ENDBRANCH   1   4
BRANCH   1  18
HETATM   18  C   UNL     1      40.605 -16.356   2.223  1.00  0.00     0.190 C 
HETATM   19  C   UNL     1      39.433 -15.395   2.002  1.00  0.00     0.048 C 
HETATM   20  C   UNL     1      39.657 -14.358   0.909  1.00  0.00     0.099 C 
HETATM   21  N   UNL     1      40.106 -15.038  -0.309  1.00  0.00    -0.268 NA
HETATM   22  C   UNL     1      41.393 -15.730  -0.164  1.00  0.00     0.099 C 
HETATM   23  C   UNL     1      41.293 -16.802   0.924  1.00  0.00     0.048 C 
BRANCH  21  24
HETATM   24  C   UNL     1      39.989 -14.275  -1.485  1.00  0.00     0.109 A 
HETATM   25  N   UNL     1      38.780 -14.099  -2.050  1.00  0.00    -0.224 NA
HETATM   26  C   UNL     1      38.694 -13.307  -3.148  1.00  0.00     0.102 A 
HETATM   27  C   UNL     1      37.350 -13.083  -3.767  1.00  0.00     0.091 C 
HETATM   28  N   UNL     1      39.751 -12.700  -3.701  1.00  0.00    -0.348 N 
HETATM   29  H   UNL     1      39.616 -12.113  -4.523  1.00  0.00     0.167 HD
HETATM   30  C   UNL     1      40.971 -12.855  -3.165  1.00  0.00     0.009 A 
HETATM   31  C   UNL     1      42.137 -12.166  -3.797  1.00  0.00     0.068 C 
HETATM   32  C   UNL     1      41.109 -13.651  -2.026  1.00  0.00     0.069 A 
ENDBRANCH  21  24
ENDBRANCH   1  18
TORSDOF 5
ENDMDL
MODEL 7
REMARK VINA RESULT:      -9.0      2.034      9.133
REMARK  5 active torsions:
REMARK  status: ('A' for Active; 'I' for Inactive)
REMARK    1  A    between atoms: C_4  and  C_5 
REMARK    2  A    between atoms: C_10  and  C_11 
REMARK    3  A    between atoms: C_11  and  N_12 
REMARK    4  A    between atoms: N_12  and  C_14 
REMARK    5  A    between atoms: N_17  and  C_18 
ROOT
HETATM    1  N   UNL     1      39.557 -14.520   0.500  1.00  0.00    -0.067 N 
HETATM    2  H   UNL     1      39.681 -15.465   0.105  1.00  0.00     0.280 HD
HETATM    3  C   UNL     1      38.181 -14.522   1.094  1.00  0.00     0.270 C 
ENDROOT
BRANCH   1   4
HETATM    4  C   UNL     1      39.597 -13.642  -0.751  1.00  0.00     0.277 C 
BRANCH   4   5
HETATM    5  C   UNL     1      40.484 -14.161  -1.817  1.00  0.00     0.016 A 
HETATM    6  C   UNL     1      41.504 -13.509  -2.499  1.00  0.00     0.069 A 
HETATM    7  N   UNL     1      42.004 -14.440  -3.381  1.00  0.00    -0.277 N 
HETATM    8  H   UNL     1      42.788 -14.340  -4.022  1.00  0.00     0.189 HD
HETATM    9  N   UNL     1      41.347 -15.608  -3.352  1.00  0.00    -0.186 NA
HETATM   10  C   UNL     1      40.462 -15.460  -2.372  1.00  0.00     0.149 A 
BRANCH   6  11
HETATM   11  C   UNL     1      42.068 -12.168  -2.382  1.00  0.00    -0.007 A 
HETATM   12  C   UNL     1      41.953 -11.254  -3.439  1.00  0.00     0.020 A 
HETATM   13  C   UNL     1      42.519  -9.975  -3.348  1.00  0.00    -0.061 A 
HETATM   14  C   UNL     1      42.409  -9.005  -4.489  1.00  0.00     0.048 C 
HETATM   15  C   UNL     1      43.168  -9.598  -2.167  1.00  0.00     0.007 A 
HETATM   16  C   UNL     1      43.290 -10.500  -1.111  1.00  0.00     0.001 A 
HETATM   17  C   UNL     1      42.752 -11.783  -1.222  1.00  0.00     0.014 A 
ENDBRANCH   6  11
ENDBRANCH   4   5
ENDBRANCH   1   4
BRANCH   1  18
HETATM   18  C   UNL     1      40.748 -14.337   1.457  1.00  0.00     0.190 C 
HETATM   19  C   UNL     1      40.529 -14.914   2.860  1.00  0.00     0.048 C 
HETATM   20  C   UNL     1      40.998 -16.352   3.038  1.00  0.00     0.099 C 
HETATM   21  N   UNL     1      42.376 -16.468   2.556  1.00  0.00    -0.268 NA
HETATM   22  C   UNL     1      42.532 -16.186   1.123  1.00  0.00     0.099 C 
HETATM   23  C   UNL     1      42.080 -14.756   0.817  1.00  0.00     0.048 C 
BRANCH  21  24
HETATM   24  C   UNL     1      43.058 -17.617   2.996  1.00  0.00     0.109 A 
HETATM   25  N   UNL     1      43.622 -17.632   4.218  1.00  0.00    -0.224 NA
HETATM   26  C   UNL     1      44.218 -18.777   4.636  1.00  0.00     0.102 A 
HETATM   27  C   UNL     1      44.823 -18.813   6.004  1.00  0.00     0.091 C 
HETATM   28  N   UNL     1      44.280 -19.888   3.891  1.00  0.00    -0.348 N 
HETATM   29  H   UNL     1      44.737 -20.716   4.268  1.00  0.00     0.167 HD
HETATM   30  C   UNL     1      43.730 -19.906   2.668  1.00  0.00     0.009 A 
HETATM   31  C   UNL     1      43.809 -21.157   1.853  1.00  0.00     0.068 C 
HETATM   32  C   UNL     1      43.094 -18.756   2.198  1.00  0.00     0.069 A 
ENDBRANCH  21  24
ENDBRANCH   1  18
TORSDOF 5
ENDMDL
MODEL 8
REMARK VINA RESULT:      -8.8      2.460      3.634
REMARK  5 active torsions:
REMARK  status: ('A' for Active; 'I' for Inactive)
REMARK    1  A    between atoms: C_4  and  C_5 
REMARK    2  A    between atoms: C_10  and  C_11 
REMARK    3  A    between atoms: C_11  and  N_12 
REMARK    4  A    between atoms: N_12  and  C_14 
REMARK    5  A    between atoms: N_17  and  C_18 
ROOT
HETATM    1  N   UNL     1      41.231 -15.831   4.663  1.00  0.00    -0.067 N 
HETATM    2  H   UNL     1      42.248 -15.956   4.791  1.00  0.00     0.280 HD
HETATM    3  C   UNL     1      40.613 -16.316   5.939  1.00  0.00     0.270 C 
ENDROOT
BRANCH   1   4
HETATM    4  C   UNL     1      40.932 -16.804   3.522  1.00  0.00     0.277 C 
BRANCH   4   5
HETATM    5  C   UNL     1      42.138 -17.273   2.805  1.00  0.00     0.016 A 
HETATM    6  C   UNL     1      43.312 -17.806   3.323  1.00  0.00     0.069 A 
HETATM    7  N   UNL     1      44.104 -18.073   2.229  1.00  0.00    -0.277 N 
HETATM    8  H   UNL     1      45.024 -18.507   2.211  1.00  0.00     0.189 HD
HETATM    9  N   UNL     1      43.550 -17.700   1.067  1.00  0.00    -0.186 NA
HETATM   10  C   UNL     1      42.341 -17.265   1.406  1.00  0.00     0.149 A 
BRANCH   6  11
HETATM   11  C   UNL     1      43.734 -18.121   4.684  1.00  0.00    -0.007 A 
HETATM   12  C   UNL     1      43.539 -19.408   5.207  1.00  0.00     0.020 A 
HETATM   13  C   UNL     1      43.912 -19.711   6.524  1.00  0.00    -0.061 A 
HETATM   14  C   UNL     1      43.686 -21.085   7.088  1.00  0.00     0.048 C 
HETATM   15  C   UNL     1      44.526 -18.725   7.304  1.00  0.00     0.007 A 
HETATM   16  C   UNL     1      44.723 -17.444   6.794  1.00  0.00     0.001 A 
HETATM   17  C   UNL     1      44.319 -17.140   5.493  1.00  0.00     0.014 A 
ENDBRANCH   6  11
ENDBRANCH   4   5
ENDBRANCH   1   4
BRANCH   1  18
HETATM   18  C   UNL     1      41.063 -14.344   4.307  1.00  0.00     0.190 C 
HETATM   19  C   UNL     1      42.374 -13.613   3.996  1.00  0.00     0.048 C 
HETATM   20  C   UNL     1      42.766 -13.607   2.524  1.00  0.00     0.099 C 
HETATM   21  N   UNL     1      41.626 -13.147   1.728  1.00  0.00    -0.268 NA
HETATM   22  C   UNL     1      40.450 -14.024   1.810  1.00  0.00     0.099 C 
HETATM   23  C   UNL     1      39.964 -14.115   3.259  1.00  0.00     0.048 C 
BRANCH  21  24
HETATM   24  C   UNL     1      41.949 -12.735   0.423  1.00  0.00     0.109 A 
HETATM   25  N   UNL     1      42.589 -11.566   0.230  1.00  0.00    -0.224 NA
HETATM   26  C   UNL     1      42.941 -11.228  -1.036  1.00  0.00     0.102 A 
HETATM   27  C   UNL     1      43.676  -9.944  -1.257  1.00  0.00     0.091 C 
HETATM   28  N   UNL     1      42.676 -11.994  -2.102  1.00  0.00    -0.348 N 
HETATM   29  H   UNL     1      42.974 -11.683  -3.025  1.00  0.00     0.167 HD
HETATM   30  C   UNL     1      42.039 -13.163  -1.946  1.00  0.00     0.009 A 
HETATM   31  C   UNL     1      41.756 -14.004  -3.149  1.00  0.00     0.068 C 
HETATM   32  C   UNL     1      41.667 -13.561  -0.661  1.00  0.00     0.069 A 
ENDBRANCH  21  24
ENDBRANCH   1  18
TORSDOF 5
ENDMDL
MODEL 9
REMARK VINA RESULT:      -8.7      1.738      8.675
REMARK  5 active torsions:
REMARK  status: ('A' for Active; 'I' for Inactive)
REMARK    1  A    between atoms: C_4  and  C_5 
REMARK    2  A    between atoms: C_10  and  C_11 
REMARK    3  A    between atoms: C_11  and  N_12 
REMARK    4  A    between atoms: N_12  and  C_14 
REMARK    5  A    between atoms: N_17  and  C_18 
ROOT
HETATM    1  N   UNL     1      40.782 -13.981   0.818  1.00  0.00    -0.067 N 
HETATM    2  H   UNL     1      40.087 -13.597   0.159  1.00  0.00     0.280 HD
HETATM    3  C   UNL     1      40.722 -13.082   2.016  1.00  0.00     0.270 C 
ENDROOT
BRANCH   1   4
HETATM    4  C   UNL     1      42.092 -13.773   0.059  1.00  0.00     0.277 C 
BRANCH   4   5
HETATM    5  C   UNL     1      41.989 -12.805  -1.056  1.00  0.00     0.016 A 
HETATM    6  C   UNL     1      41.307 -12.929  -2.261  1.00  0.00     0.069 A 
HETATM    7  N   UNL     1      41.539 -11.750  -2.933  1.00  0.00    -0.277 N 
HETATM    8  H   UNL     1      41.168 -11.458  -3.834  1.00  0.00     0.189 HD
HETATM    9  N   UNL     1      42.357 -10.916  -2.276  1.00  0.00    -0.186 NA
HETATM   10  C   UNL     1      42.588 -11.527  -1.120  1.00  0.00     0.149 A 
BRANCH   6  11
HETATM   11  C   UNL     1      40.454 -13.980  -2.807  1.00  0.00    -0.007 A 
HETATM   12  C   UNL     1      39.119 -13.710  -3.139  1.00  0.00     0.020 A 
HETATM   13  C   UNL     1      38.283 -14.721  -3.634  1.00  0.00    -0.061 A 
HETATM   14  C   UNL     1      36.848 -14.433  -3.971  1.00  0.00     0.048 C 
HETATM   15  C   UNL     1      38.808 -16.002  -3.839  1.00  0.00     0.007 A 
HETATM   16  C   UNL     1      40.134 -16.280  -3.511  1.00  0.00     0.001 A 
HETATM   17  C   UNL     1      40.950 -15.277  -2.988  1.00  0.00     0.014 A 
ENDBRANCH   6  11
ENDBRANCH   4   5
ENDBRANCH   1   4
BRANCH   1  18
HETATM   18  C   UNL     1      40.370 -15.451   1.008  1.00  0.00     0.190 C 
HETATM   19  C   UNL     1      41.168 -16.449   0.162  1.00  0.00     0.048 C 
HETATM   20  C   UNL     1      42.401 -17.023   0.848  1.00  0.00     0.099 C 
HETATM   21  N   UNL     1      42.018 -17.534   2.166  1.00  0.00    -0.268 NA
HETATM   22  C   UNL     1      41.513 -16.503   3.082  1.00  0.00     0.099 C 
HETATM   23  C   UNL     1      40.266 -15.842   2.490  1.00  0.00     0.048 C 
BRANCH  21  24
HETATM   24  C   UNL     1      42.948 -18.416   2.746  1.00  0.00     0.109 A 
HETATM   25  N   UNL     1      43.503 -18.115   3.935  1.00  0.00    -0.224 NA
HETATM   26  C   UNL     1      44.348 -19.016   4.496  1.00  0.00     0.102 A 
HETATM   27  C   UNL     1      44.949 -18.703   5.830  1.00  0.00     0.091 C 
HETATM   28  N   UNL     1      44.663 -20.184   3.922  1.00  0.00    -0.348 N 
HETATM   29  H   UNL     1      45.301 -20.819   4.401  1.00  0.00     0.167 HD
HETATM   30  C   UNL     1      44.130 -20.515   2.737  1.00  0.00     0.009 A 
HETATM   31  C   UNL     1      44.494 -21.825   2.116  1.00  0.00     0.068 C 
HETATM   32  C   UNL     1      43.244 -19.626   2.125  1.00  0.00     0.069 A 
ENDBRANCH  21  24
ENDBRANCH   1  18
TORSDOF 5
ENDMDL
MODEL 10
REMARK VINA RESULT:      -8.7      1.461      2.260
REMARK  5 active torsions:
REMARK  status: ('A' for Active; 'I' for Inactive)
REMARK    1  A    between atoms: C_4  and  C_5 
REMARK    2  A    between atoms: C_10  and  C_11 
REMARK    3  A    between atoms: C_11  and  N_12 
REMARK    4  A    between atoms: N_12  and  C_14 
REMARK    5  A    between atoms: N_17  and  C_18 
ROOT
HETATM    1  N   UNL     1      41.331 -15.856   4.142  1.00  0.00    -0.067 N 
HETATM    2  H   UNL     1      40.432 -15.441   3.847  1.00  0.00     0.280 HD
HETATM    3  C   UNL     1      41.120 -17.338   4.067  1.00  0.00     0.270 C 
ENDROOT
BRANCH   1   4
HETATM    4  C   UNL     1      41.427 -15.404   5.600  1.00  0.00     0.277 C 
BRANCH   4   5
HETATM    5  C   UNL     1      42.809 -15.120   6.047  1.00  0.00     0.016 A 
HETATM    6  C   UNL     1      43.827 -16.012   6.362  1.00  0.00     0.069 A 
HETATM    7  N   UNL     1      44.900 -15.227   6.719  1.00  0.00    -0.277 N 
HETATM    8  H   UNL     1      45.839 -15.526   6.975  1.00  0.00     0.189 HD
HETATM    9  N   UNL     1      44.626 -13.915   6.711  1.00  0.00    -0.186 NA
HETATM   10  C   UNL     1      43.381 -13.844   6.255  1.00  0.00     0.149 A 
BRANCH   6  11
HETATM   11  C   UNL     1      43.910 -17.468   6.319  1.00  0.00    -0.007 A 
HETATM   12  C   UNL     1      44.280 -18.124   5.136  1.00  0.00     0.020 A 
HETATM   13  C   UNL     1      44.331 -19.524   5.077  1.00  0.00    -0.061 A 
HETATM   14  C   UNL     1      44.711 -20.223   3.803  1.00  0.00     0.048 C 
HETATM   15  C   UNL     1      44.050 -20.267   6.228  1.00  0.00     0.007 A 
HETATM   16  C   UNL     1      43.679 -19.624   7.408  1.00  0.00     0.001 A 
HETATM   17  C   UNL     1      43.599 -18.232   7.450  1.00  0.00     0.014 A 
ENDBRANCH   6  11
ENDBRANCH   4   5
ENDBRANCH   1   4
BRANCH   1  18
HETATM   18  C   UNL     1      42.376 -15.234   3.200  1.00  0.00     0.190 C 
HETATM   19  C   UNL     1      42.839 -16.156   2.068  1.00  0.00     0.048 C 
HETATM   20  C   UNL     1      42.043 -16.027   0.775  1.00  0.00     0.099 C 
HETATM   21  N   UNL     1      41.972 -14.613   0.399  1.00  0.00    -0.268 NA
HETATM   22  C   UNL     1      41.264 -13.772   1.373  1.00  0.00     0.099 C 
HETATM   23  C   UNL     1      41.973 -13.829   2.728  1.00  0.00     0.048 C 
BRANCH  21  24
HETATM   24  C   UNL     1      41.607 -14.379  -0.940  1.00  0.00     0.109 A 
HETATM   25  N   UNL     1      42.097 -13.307  -1.589  1.00  0.00    -0.224 NA
HETATM   26  C   UNL     1      41.774 -13.145  -2.896  1.00  0.00     0.102 A 
HETATM   27  C   UNL     1      42.336 -11.971  -3.635  1.00  0.00     0.091 C 
HETATM   28  N   UNL     1      40.986 -13.993  -3.570  1.00  0.00    -0.348 N 
HETATM   29  H   UNL     1      40.788 -13.816  -4.553  1.00  0.00     0.167 HD
HETATM   30  C   UNL     1      40.479 -15.071  -2.953  1.00  0.00     0.009 A 
HETATM   31  C   UNL     1      39.604 -16.006  -3.724  1.00  0.00     0.068 C 
HETATM   32  C   UNL     1      40.793 -15.288  -1.610  1.00  0.00     0.069 A 
ENDBRANCH  21  24
ENDBRANCH   1  18
TORSDOF 5
ENDMDL
