MODEL 1
REMARK VINA RESULT:      -7.8      0.000      0.000
REMARK  5 active torsions:
REMARK  status: ('A' for Active; 'I' for Inactive)
REMARK    1  A    between atoms: O_2  and  C_3 
REMARK    2  A    between atoms: C_5  and  C_6 
REMARK    3  A    between atoms: C_10  and  C_11 
REMARK       I    between atoms: C_11  and  N_12 
REMARK    4  A    between atoms: N_12  and  C_13 
REMARK    5  A    between atoms: C_15  and  O_16 
ROOT
HETATM    1  C   UNL     1      42.124 -17.493   2.149  1.00  0.00     0.063 A 
HETATM    2  N   UNL     1      40.902 -17.163   2.682  1.00  0.00    -0.277 N 
HETATM    3  H   UNL     1      40.462 -17.560   3.504  1.00  0.00     0.189 HD
HETATM    4  N   UNL     1      40.250 -16.184   2.027  1.00  0.00    -0.169 NA
HETATM    5  C   UNL     1      41.096 -15.841   1.035  1.00  0.00     0.147 A 
HETATM    6  C   UNL     1      42.268 -16.638   1.073  1.00  0.00     0.071 A 
ENDROOT
BRANCH   5   7
HETATM    7  C   UNL     1      40.786 -14.761   0.079  1.00  0.00     0.276 C 
HETATM    8  N   UNL     1      41.920 -14.322  -0.577  1.00  0.00    -0.322 N 
HETATM    9  H   UNL     1      42.767 -14.796  -0.272  1.00  0.00     0.169 HD
HETATM   10  O   UNL     1      39.642 -14.349  -0.071  1.00  0.00    -0.266 OA
BRANCH   8  11
HETATM   11  C   UNL     1      42.032 -13.348  -1.583  1.00  0.00     0.037 A 
HETATM   12  C   UNL     1      42.581 -12.077  -1.380  1.00  0.00     0.066 A 
HETATM   13  C   UNL     1      42.642 -11.154  -2.429  1.00  0.00     0.070 A 
HETATM   14  C   UNL     1      42.163 -11.513  -3.690  1.00  0.00     0.037 A 
HETATM   15  C   UNL     1      41.616 -12.776  -3.904  1.00  0.00     0.005 A 
HETATM   16  C   UNL     1      41.549 -13.689  -2.853  1.00  0.00     0.029 A 
BRANCH  13  17
HETATM   17  O   UNL     1      43.143  -9.882  -2.352  1.00  0.00    -0.356 OA
HETATM   18  C   UNL     1      43.988  -9.591  -1.244  1.00  0.00     0.210 C 
ENDBRANCH  13  17
ENDBRANCH   8  11
ENDBRANCH   5   7
BRANCH   1  19
HETATM   19  C   UNL     1      43.014 -18.516   2.703  1.00  0.00    -0.005 A 
HETATM   20  C   UNL     1      43.460 -18.414   4.034  1.00  0.00     0.050 A 
HETATM   21  C   UNL     1      44.305 -19.381   4.587  1.00  0.00     0.069 A 
HETATM   22  C   UNL     1      44.706 -20.465   3.806  1.00  0.00     0.037 A 
HETATM   23  C   UNL     1      44.280 -20.581   2.485  1.00  0.00     0.004 A 
HETATM   24  C   UNL     1      43.441 -19.609   1.936  1.00  0.00     0.014 A 
BRANCH  21  25
HETATM   25  O   UNL     1      44.798 -19.384   5.863  1.00  0.00    -0.356 OA
HETATM   26  C   UNL     1      45.191 -18.130   6.406  1.00  0.00     0.210 C 
ENDBRANCH  21  25
ENDBRANCH   1  19
TORSDOF 5
ENDMDL
MODEL 2
REMARK VINA RESULT:      -7.6      2.121      3.006
REMARK  5 active torsions:
REMARK  status: ('A' for Active; 'I' for Inactive)
REMARK    1  A    between atoms: O_2  and  C_3 
REMARK    2  A    between atoms: C_5  and  C_6 
REMARK    3  A    between atoms: C_10  and  C_11 
REMARK       I    between atoms: C_11  and  N_12 
REMARK    4  A    between atoms: N_12  and  C_13 
REMARK    5  A    between atoms: C_15  and  O_16 
ROOT
HETATM    1  C   UNL     1      43.219 -17.742   2.258  1.00  0.00     0.063 A 
HETATM    2  N   UNL     1      43.673 -16.672   2.988  1.00  0.00    -0.277 N 
HETATM    3  H   UNL     1      44.333 -16.688   3.758  1.00  0.00     0.189 HD
HETATM    4  N   UNL     1      43.186 -15.479   2.599  1.00  0.00    -0.169 NA
HETATM    5  C   UNL     1      42.396 -15.781   1.549  1.00  0.00     0.147 A 
HETATM    6  C   UNL     1      42.384 -17.179   1.312  1.00  0.00     0.071 A 
ENDROOT
BRANCH   5   7
HETATM    7  C   UNL     1      41.677 -14.744   0.785  1.00  0.00     0.276 C 
HETATM    8  N   UNL     1      41.795 -14.942  -0.577  1.00  0.00    -0.322 N 
HETATM    9  H   UNL     1      42.374 -15.745  -0.815  1.00  0.00     0.169 HD
HETATM   10  O   UNL     1      41.065 -13.843   1.348  1.00  0.00    -0.266 OA
BRANCH   8  11
HETATM   11  C   UNL     1      41.224 -14.204  -1.627  1.00  0.00     0.037 A 
HETATM   12  C   UNL     1      39.901 -14.357  -2.057  1.00  0.00     0.066 A 
HETATM   13  C   UNL     1      39.409 -13.596  -3.123  1.00  0.00     0.070 A 
HETATM   14  C   UNL     1      40.244 -12.669  -3.749  1.00  0.00     0.037 A 
HETATM   15  C   UNL     1      41.561 -12.507  -3.328  1.00  0.00     0.005 A 
HETATM   16  C   UNL     1      42.049 -13.274  -2.271  1.00  0.00     0.029 A 
BRANCH  13  17
HETATM   17  O   UNL     1      38.143 -13.663  -3.641  1.00  0.00    -0.356 OA
HETATM   18  C   UNL     1      37.470 -14.912  -3.532  1.00  0.00     0.210 C 
ENDBRANCH  13  17
ENDBRANCH   8  11
ENDBRANCH   5   7
BRANCH   1  19
HETATM   19  C   UNL     1      43.626 -19.130   2.492  1.00  0.00    -0.005 A 
HETATM   20  C   UNL     1      44.295 -19.476   3.680  1.00  0.00     0.050 A 
HETATM   21  C   UNL     1      44.688 -20.795   3.928  1.00  0.00     0.069 A 
HETATM   22  C   UNL     1      44.406 -21.781   2.983  1.00  0.00     0.037 A 
HETATM   23  C   UNL     1      43.750 -21.457   1.798  1.00  0.00     0.004 A 
HETATM   24  C   UNL     1      43.365 -20.137   1.552  1.00  0.00     0.014 A 
BRANCH  21  25
HETATM   25  O   UNL     1      45.340 -21.244   5.044  1.00  0.00    -0.356 OA
HETATM   26  C   UNL     1      45.231 -22.631   5.340  1.00  0.00     0.210 C 
ENDBRANCH  21  25
ENDBRANCH   1  19
TORSDOF 5
ENDMDL
MODEL 3
REMARK VINA RESULT:      -7.6      0.993      1.826
REMARK  5 active torsions:
REMARK  status: ('A' for Active; 'I' for Inactive)
REMARK    1  A    between atoms: O_2  and  C_3 
REMARK    2  A    between atoms: C_5  and  C_6 
REMARK    3  A    between atoms: C_10  and  C_11 
REMARK       I    between atoms: C_11  and  N_12 
REMARK    4  A    between atoms: N_12  and  C_13 
REMARK    5  A    between atoms: C_15  and  O_16 
ROOT
HETATM    1  C   UNL     1      41.850 -17.200   2.541  1.00  0.00     0.063 A 
HETATM    2  N   UNL     1      40.526 -17.005   2.847  1.00  0.00    -0.277 N 
HETATM    3  H   UNL     1      39.987 -17.467   3.569  1.00  0.00     0.189 HD
HETATM    4  N   UNL     1      39.909 -16.071   2.099  1.00  0.00    -0.169 NA
HETATM    5  C   UNL     1      40.882 -15.617   1.283  1.00  0.00     0.147 A 
HETATM    6  C   UNL     1      42.100 -16.301   1.522  1.00  0.00     0.071 A 
ENDROOT
BRANCH   5   7
HETATM    7  C   UNL     1      40.644 -14.540   0.303  1.00  0.00     0.276 C 
HETATM    8  N   UNL     1      41.767 -14.292  -0.462  1.00  0.00    -0.322 N 
HETATM    9  H   UNL     1      42.564 -14.869  -0.202  1.00  0.00     0.169 HD
HETATM   10  O   UNL     1      39.559 -13.976   0.224  1.00  0.00    -0.266 OA
BRANCH   8  11
HETATM   11  C   UNL     1      41.927 -13.382  -1.521  1.00  0.00     0.037 A 
HETATM   12  C   UNL     1      42.597 -12.160  -1.403  1.00  0.00     0.066 A 
HETATM   13  C   UNL     1      42.699 -11.297  -2.500  1.00  0.00     0.070 A 
HETATM   14  C   UNL     1      42.138 -11.671  -3.723  1.00  0.00     0.037 A 
HETATM   15  C   UNL     1      41.471 -12.886  -3.852  1.00  0.00     0.005 A 
HETATM   16  C   UNL     1      41.364 -13.737  -2.753  1.00  0.00     0.029 A 
BRANCH  13  17
HETATM   17  O   UNL     1      43.317 -10.075  -2.507  1.00  0.00    -0.356 OA
HETATM   18  C   UNL     1      43.794  -9.590  -1.257  1.00  0.00     0.210 C 
ENDBRANCH  13  17
ENDBRANCH   8  11
ENDBRANCH   5   7
BRANCH   1  19
HETATM   19  C   UNL     1      42.723 -18.152   3.233  1.00  0.00    -0.005 A 
HETATM   20  C   UNL     1      43.423 -19.127   2.499  1.00  0.00     0.050 A 
HETATM   21  C   UNL     1      44.266 -20.041   3.137  1.00  0.00     0.069 A 
HETATM   22  C   UNL     1      44.417 -19.980   4.522  1.00  0.00     0.037 A 
HETATM   23  C   UNL     1      43.728 -19.026   5.267  1.00  0.00     0.004 A 
HETATM   24  C   UNL     1      42.882 -18.119   4.626  1.00  0.00     0.014 A 
BRANCH  21  25
HETATM   25  O   UNL     1      44.993 -21.027   2.527  1.00  0.00    -0.356 OA
HETATM   26  C   UNL     1      44.274 -21.961   1.732  1.00  0.00     0.210 C 
ENDBRANCH  21  25
ENDBRANCH   1  19
TORSDOF 5
ENDMDL
MODEL 4
REMARK VINA RESULT:      -7.3      2.695      3.452
REMARK  5 active torsions:
REMARK  status: ('A' for Active; 'I' for Inactive)
REMARK    1  A    between atoms: O_2  and  C_3 
REMARK    2  A    between atoms: C_5  and  C_6 
REMARK    3  A    between atoms: C_10  and  C_11 
REMARK       I    between atoms: C_11  and  N_12 
REMARK    4  A    between atoms: N_12  and  C_13 
REMARK    5  A    between atoms: C_15  and  O_16 
ROOT
HETATM    1  C   UNL     1      42.095 -17.642   2.143  1.00  0.00     0.063 A 
HETATM    2  N   UNL     1      40.907 -17.269   2.721  1.00  0.00    -0.277 N 
HETATM    3  H   UNL     1      40.507 -17.616   3.584  1.00  0.00     0.189 HD
HETATM    4  N   UNL     1      40.232 -16.316   2.051  1.00  0.00    -0.169 NA
HETATM    5  C   UNL     1      41.028 -16.036   0.999  1.00  0.00     0.147 A 
HETATM    6  C   UNL     1      42.192 -16.845   1.018  1.00  0.00     0.071 A 
ENDROOT
BRANCH   5   7
HETATM    7  C   UNL     1      40.681 -15.002   0.006  1.00  0.00     0.276 C 
HETATM    8  N   UNL     1      39.319 -14.767  -0.029  1.00  0.00    -0.322 N 
HETATM    9  H   UNL     1      38.795 -15.361   0.610  1.00  0.00     0.169 HD
HETATM   10  O   UNL     1      41.541 -14.452  -0.672  1.00  0.00    -0.266 OA
BRANCH   8  11
HETATM   11  C   UNL     1      38.607 -13.836  -0.803  1.00  0.00     0.037 A 
HETATM   12  C   UNL     1      38.343 -13.995  -2.167  1.00  0.00     0.066 A 
HETATM   13  C   UNL     1      37.641 -13.013  -2.874  1.00  0.00     0.070 A 
HETATM   14  C   UNL     1      37.192 -11.873  -2.205  1.00  0.00     0.037 A 
HETATM   15  C   UNL     1      37.448 -11.705  -0.847  1.00  0.00     0.005 A 
HETATM   16  C   UNL     1      38.155 -12.683  -0.149  1.00  0.00     0.029 A 
BRANCH  13  17
HETATM   17  O   UNL     1      37.332 -13.049  -4.208  1.00  0.00    -0.356 OA
HETATM   18  C   UNL     1      35.975 -13.312  -4.545  1.00  0.00     0.210 C 
ENDBRANCH  13  17
ENDBRANCH   8  11
ENDBRANCH   5   7
BRANCH   1  19
HETATM   19  C   UNL     1      43.003 -18.647   2.703  1.00  0.00    -0.005 A 
HETATM   20  C   UNL     1      43.495 -18.499   4.013  1.00  0.00     0.050 A 
HETATM   21  C   UNL     1      44.356 -19.448   4.570  1.00  0.00     0.069 A 
HETATM   22  C   UNL     1      44.728 -20.560   3.816  1.00  0.00     0.037 A 
HETATM   23  C   UNL     1      44.257 -20.722   2.515  1.00  0.00     0.004 A 
HETATM   24  C   UNL     1      43.401 -19.768   1.960  1.00  0.00     0.014 A 
BRANCH  21  25
HETATM   25  O   UNL     1      44.893 -19.407   5.828  1.00  0.00    -0.356 OA
HETATM   26  C   UNL     1      45.078 -18.122   6.410  1.00  0.00     0.210 C 
ENDBRANCH  21  25
ENDBRANCH   1  19
TORSDOF 5
ENDMDL
MODEL 5
REMARK VINA RESULT:      -7.2      3.020      4.247
REMARK  5 active torsions:
REMARK  status: ('A' for Active; 'I' for Inactive)
REMARK    1  A    between atoms: O_2  and  C_3 
REMARK    2  A    between atoms: C_5  and  C_6 
REMARK    3  A    between atoms: C_10  and  C_11 
REMARK       I    between atoms: C_11  and  N_12 
REMARK    4  A    between atoms: N_12  and  C_13 
REMARK    5  A    between atoms: C_15  and  O_16 
ROOT
HETATM    1  C   UNL     1      41.521 -16.649   2.357  1.00  0.00     0.063 A 
HETATM    2  N   UNL     1      40.435 -15.969   2.849  1.00  0.00    -0.277 N 
HETATM    3  H   UNL     1      40.070 -15.994   3.794  1.00  0.00     0.189 HD
HETATM    4  N   UNL     1      39.822 -15.169   1.957  1.00  0.00    -0.169 NA
HETATM    5  C   UNL     1      40.556 -15.315   0.835  1.00  0.00     0.147 A 
HETATM    6  C   UNL     1      41.616 -16.233   1.043  1.00  0.00     0.071 A 
ENDROOT
BRANCH   5   7
HETATM    7  C   UNL     1      40.250 -14.576  -0.404  1.00  0.00     0.276 C 
HETATM    8  N   UNL     1      38.896 -14.585  -0.681  1.00  0.00    -0.322 N 
HETATM    9  H   UNL     1      38.354 -15.117  -0.004  1.00  0.00     0.169 HD
HETATM   10  O   UNL     1      41.133 -14.038  -1.062  1.00  0.00    -0.266 OA
BRANCH   8  11
HETATM   11  C   UNL     1      38.210 -13.961  -1.736  1.00  0.00     0.037 A 
HETATM   12  C   UNL     1      37.724 -14.640  -2.858  1.00  0.00     0.066 A 
HETATM   13  C   UNL     1      37.065 -13.946  -3.878  1.00  0.00     0.070 A 
HETATM   14  C   UNL     1      36.881 -12.567  -3.764  1.00  0.00     0.037 A 
HETATM   15  C   UNL     1      37.359 -11.881  -2.650  1.00  0.00     0.005 A 
HETATM   16  C   UNL     1      38.023 -12.577  -1.641  1.00  0.00     0.029 A 
BRANCH  13  17
HETATM   17  O   UNL     1      36.557 -14.494  -5.026  1.00  0.00    -0.356 OA
HETATM   18  C   UNL     1      35.366 -13.910  -5.543  1.00  0.00     0.210 C 
ENDBRANCH  13  17
ENDBRANCH   8  11
ENDBRANCH   5   7
BRANCH   1  19
HETATM   19  C   UNL     1      42.349 -17.561   3.150  1.00  0.00    -0.005 A 
HETATM   20  C   UNL     1      43.091 -18.572   2.512  1.00  0.00     0.050 A 
HETATM   21  C   UNL     1      43.894 -19.449   3.247  1.00  0.00     0.069 A 
HETATM   22  C   UNL     1      43.961 -19.315   4.633  1.00  0.00     0.037 A 
HETATM   23  C   UNL     1      43.229 -18.325   5.284  1.00  0.00     0.004 A 
HETATM   24  C   UNL     1      42.424 -17.454   4.546  1.00  0.00     0.014 A 
BRANCH  21  25
HETATM   25  O   UNL     1      44.655 -20.465   2.735  1.00  0.00    -0.356 OA
HETATM   26  C   UNL     1      43.982 -21.448   1.958  1.00  0.00     0.210 C 
ENDBRANCH  21  25
ENDBRANCH   1  19
TORSDOF 5
ENDMDL
MODEL 6
REMARK VINA RESULT:      -7.1      1.623      8.908
REMARK  5 active torsions:
REMARK  status: ('A' for Active; 'I' for Inactive)
REMARK    1  A    between atoms: O_2  and  C_3 
REMARK    2  A    between atoms: C_5  and  C_6 
REMARK    3  A    between atoms: C_10  and  C_11 
REMARK       I    between atoms: C_11  and  N_12 
REMARK    4  A    between atoms: N_12  and  C_13 
REMARK    5  A    between atoms: C_15  and  O_16 
ROOT
HETATM    1  C   UNL     1      41.879 -13.656  -1.353  1.00  0.00     0.063 A 
HETATM    2  N   UNL     1      41.319 -14.679  -2.077  1.00  0.00    -0.277 N 
HETATM    3  H   UNL     1      41.059 -14.668  -3.057  1.00  0.00     0.189 HD
HETATM    4  N   UNL     1      41.129 -15.818  -1.385  1.00  0.00    -0.169 NA
HETATM    5  C   UNL     1      41.609 -15.534  -0.158  1.00  0.00     0.147 A 
HETATM    6  C   UNL     1      42.077 -14.197  -0.097  1.00  0.00     0.071 A 
ENDROOT
BRANCH   5   7
HETATM    7  C   UNL     1      41.628 -16.533   0.927  1.00  0.00     0.276 C 
HETATM    8  N   UNL     1      42.916 -16.928   1.233  1.00  0.00    -0.322 N 
HETATM    9  H   UNL     1      43.619 -16.486   0.645  1.00  0.00     0.169 HD
HETATM   10  O   UNL     1      40.593 -16.922   1.455  1.00  0.00    -0.266 OA
BRANCH   8  11
HETATM   11  C   UNL     1      43.350 -17.820   2.228  1.00  0.00     0.037 A 
HETATM   12  C   UNL     1      43.677 -19.158   1.985  1.00  0.00     0.066 A 
HETATM   13  C   UNL     1      44.084 -19.991   3.032  1.00  0.00     0.070 A 
HETATM   14  C   UNL     1      44.177 -19.473   4.326  1.00  0.00     0.037 A 
HETATM   15  C   UNL     1      43.856 -18.142   4.579  1.00  0.00     0.005 A 
HETATM   16  C   UNL     1      43.442 -17.319   3.532  1.00  0.00     0.029 A 
BRANCH  13  17
HETATM   17  O   UNL     1      44.418 -21.314   2.924  1.00  0.00    -0.356 OA
HETATM   18  C   UNL     1      44.157 -21.942   1.673  1.00  0.00     0.210 C 
ENDBRANCH  13  17
ENDBRANCH   8  11
ENDBRANCH   5   7
BRANCH   1  19
HETATM   19  C   UNL     1      42.192 -12.334  -1.902  1.00  0.00    -0.005 A 
HETATM   20  C   UNL     1      42.825 -11.369  -1.097  1.00  0.00     0.050 A 
HETATM   21  C   UNL     1      43.139 -10.104  -1.600  1.00  0.00     0.069 A 
HETATM   22  C   UNL     1      42.823  -9.797  -2.924  1.00  0.00     0.037 A 
HETATM   23  C   UNL     1      42.190 -10.736  -3.735  1.00  0.00     0.004 A 
HETATM   24  C   UNL     1      41.873 -11.997  -3.225  1.00  0.00     0.014 A 
BRANCH  21  25
HETATM   25  O   UNL     1      43.752  -9.093  -0.912  1.00  0.00    -0.356 OA
HETATM   26  C   UNL     1      43.799  -7.819  -1.542  1.00  0.00     0.210 C 
ENDBRANCH  21  25
ENDBRANCH   1  19
TORSDOF 5
ENDMDL
MODEL 7
REMARK VINA RESULT:      -7.1      1.809      2.215
REMARK  5 active torsions:
REMARK  status: ('A' for Active; 'I' for Inactive)
REMARK    1  A    between atoms: O_2  and  C_3 
REMARK    2  A    between atoms: C_5  and  C_6 
REMARK    3  A    between atoms: C_10  and  C_11 
REMARK       I    between atoms: C_11  and  N_12 
REMARK    4  A    between atoms: N_12  and  C_13 
REMARK    5  A    between atoms: C_15  and  O_16 
ROOT
HETATM    1  C   UNL     1      41.854 -17.373   2.307  1.00  0.00     0.063 A 
HETATM    2  N   UNL     1      40.595 -17.167   2.815  1.00  0.00    -0.277 N 
HETATM    3  H   UNL     1      40.139 -17.684   3.557  1.00  0.00     0.189 HD
HETATM    4  N   UNL     1      39.927 -16.140   2.257  1.00  0.00    -0.169 NA
HETATM    5  C   UNL     1      40.799 -15.637   1.361  1.00  0.00     0.147 A 
HETATM    6  C   UNL     1      42.005 -16.382   1.357  1.00  0.00     0.071 A 
ENDROOT
BRANCH   5   7
HETATM    7  C   UNL     1      40.480 -14.457   0.535  1.00  0.00     0.276 C 
HETATM    8  N   UNL     1      39.907 -14.817  -0.670  1.00  0.00    -0.322 N 
HETATM    9  H   UNL     1      39.830 -15.825  -0.789  1.00  0.00     0.169 HD
HETATM   10  O   UNL     1      40.717 -13.319   0.927  1.00  0.00    -0.266 OA
BRANCH   8  11
HETATM   11  C   UNL     1      39.428 -13.990  -1.699  1.00  0.00     0.037 A 
HETATM   12  C   UNL     1      40.252 -13.222  -2.528  1.00  0.00     0.066 A 
HETATM   13  C   UNL     1      39.699 -12.407  -3.521  1.00  0.00     0.070 A 
HETATM   14  C   UNL     1      38.314 -12.375  -3.691  1.00  0.00     0.037 A 
HETATM   15  C   UNL     1      37.484 -13.137  -2.873  1.00  0.00     0.005 A 
HETATM   16  C   UNL     1      38.040 -13.940  -1.879  1.00  0.00     0.029 A 
BRANCH  13  17
HETATM   17  O   UNL     1      40.397 -11.604  -4.383  1.00  0.00    -0.356 OA
HETATM   18  C   UNL     1      41.806 -11.532  -4.196  1.00  0.00     0.210 C 
ENDBRANCH  13  17
ENDBRANCH   8  11
ENDBRANCH   5   7
BRANCH   1  19
HETATM   19  C   UNL     1      42.767 -18.420   2.773  1.00  0.00    -0.005 A 
HETATM   20  C   UNL     1      43.092 -18.515   4.138  1.00  0.00     0.050 A 
HETATM   21  C   UNL     1      43.955 -19.509   4.607  1.00  0.00     0.069 A 
HETATM   22  C   UNL     1      44.499 -20.423   3.704  1.00  0.00     0.037 A 
HETATM   23  C   UNL     1      44.195 -20.343   2.347  1.00  0.00     0.004 A 
HETATM   24  C   UNL     1      43.336 -19.343   1.883  1.00  0.00     0.014 A 
BRANCH  21  25
HETATM   25  O   UNL     1      44.339 -19.696   5.907  1.00  0.00    -0.356 OA
HETATM   26  C   UNL     1      43.863 -18.756   6.861  1.00  0.00     0.210 C 
ENDBRANCH  21  25
ENDBRANCH   1  19
TORSDOF 5
ENDMDL
MODEL 8
REMARK VINA RESULT:      -7.1      5.582      6.770
REMARK  5 active torsions:
REMARK  status: ('A' for Active; 'I' for Inactive)
REMARK    1  A    between atoms: O_2  and  C_3 
REMARK    2  A    between atoms: C_5  and  C_6 
REMARK    3  A    between atoms: C_10  and  C_11 
REMARK       I    between atoms: C_11  and  N_12 
REMARK    4  A    between atoms: N_12  and  C_13 
REMARK    5  A    between atoms: C_15  and  O_16 
ROOT
HETATM    1  C   UNL     1      42.870 -17.022   4.616  1.00  0.00     0.063 A 
HETATM    2  N   UNL     1      43.528 -16.350   5.616  1.00  0.00    -0.277 N 
HETATM    3  H   UNL     1      44.425 -16.581   6.026  1.00  0.00     0.189 HD
HETATM    4  N   UNL     1      42.893 -15.251   6.066  1.00  0.00    -0.169 NA
HETATM    5  C   UNL     1      41.781 -15.188   5.307  1.00  0.00     0.147 A 
HETATM    6  C   UNL     1      41.727 -16.276   4.400  1.00  0.00     0.071 A 
ENDROOT
BRANCH   5   7
HETATM    7  C   UNL     1      40.798 -14.096   5.444  1.00  0.00     0.276 C 
HETATM    8  N   UNL     1      41.307 -13.043   6.180  1.00  0.00    -0.322 N 
HETATM    9  H   UNL     1      42.252 -13.212   6.518  1.00  0.00     0.169 HD
HETATM   10  O   UNL     1      39.682 -14.173   4.942  1.00  0.00    -0.266 OA
BRANCH   8  11
HETATM   11  C   UNL     1      40.702 -11.814   6.490  1.00  0.00     0.037 A 
HETATM   12  C   UNL     1      39.846 -11.619   7.579  1.00  0.00     0.066 A 
HETATM   13  C   UNL     1      39.267 -10.368   7.813  1.00  0.00     0.070 A 
HETATM   14  C   UNL     1      39.560  -9.304   6.957  1.00  0.00     0.037 A 
HETATM   15  C   UNL     1      40.412  -9.485   5.871  1.00  0.00     0.005 A 
HETATM   16  C   UNL     1      40.979 -10.738   5.638  1.00  0.00     0.029 A 
BRANCH  13  17
HETATM   17  O   UNL     1      38.409 -10.057   8.834  1.00  0.00    -0.356 OA
HETATM   18  C   UNL     1      38.810  -9.013   9.714  1.00  0.00     0.210 C 
ENDBRANCH  13  17
ENDBRANCH   8  11
ENDBRANCH   5   7
BRANCH   1  19
HETATM   19  C   UNL     1      43.378 -18.232   3.966  1.00  0.00    -0.005 A 
HETATM   20  C   UNL     1      44.144 -19.157   4.700  1.00  0.00     0.050 A 
HETATM   21  C   UNL     1      44.634 -20.322   4.103  1.00  0.00     0.069 A 
HETATM   22  C   UNL     1      44.354 -20.571   2.759  1.00  0.00     0.037 A 
HETATM   23  C   UNL     1      43.604 -19.665   2.014  1.00  0.00     0.004 A 
HETATM   24  C   UNL     1      43.121 -18.499   2.614  1.00  0.00     0.014 A 
BRANCH  21  25
HETATM   25  O   UNL     1      45.384 -21.287   4.717  1.00  0.00    -0.356 OA
HETATM   26  C   UNL     1      44.830 -22.595   4.778  1.00  0.00     0.210 C 
ENDBRANCH  21  25
ENDBRANCH   1  19
TORSDOF 5
ENDMDL
MODEL 9
REMARK VINA RESULT:      -7.0      4.697      6.011
REMARK  5 active torsions:
REMARK  status: ('A' for Active; 'I' for Inactive)
REMARK    1  A    between atoms: O_2  and  C_3 
REMARK    2  A    between atoms: C_5  and  C_6 
REMARK    3  A    between atoms: C_10  and  C_11 
REMARK       I    between atoms: C_11  and  N_12 
REMARK    4  A    between atoms: N_12  and  C_13 
REMARK    5  A    between atoms: C_15  and  O_16 
ROOT
HETATM    1  C   UNL     1      43.190 -17.287   2.739  1.00  0.00     0.063 A 
HETATM    2  N   UNL     1      42.909 -16.669   1.546  1.00  0.00    -0.277 N 
HETATM    3  H   UNL     1      42.950 -17.075   0.618  1.00  0.00     0.189 HD
HETATM    4  N   UNL     1      42.515 -15.387   1.657  1.00  0.00    -0.169 NA
HETATM    5  C   UNL     1      42.516 -15.164   2.987  1.00  0.00     0.147 A 
HETATM    6  C   UNL     1      42.938 -16.319   3.692  1.00  0.00     0.071 A 
ENDROOT
BRANCH   5   7
HETATM    7  C   UNL     1      42.107 -13.870   3.565  1.00  0.00     0.276 C 
HETATM    8  N   UNL     1      41.638 -14.014   4.856  1.00  0.00    -0.322 N 
HETATM    9  H   UNL     1      41.631 -14.982   5.172  1.00  0.00     0.169 HD
HETATM   10  O   UNL     1      42.200 -12.827   2.927  1.00  0.00    -0.266 OA
BRANCH   8  11
HETATM   11  C   UNL     1      41.202 -13.022   5.750  1.00  0.00     0.037 A 
HETATM   12  C   UNL     1      42.036 -12.037   6.289  1.00  0.00     0.066 A 
HETATM   13  C   UNL     1      41.531 -11.093   7.189  1.00  0.00     0.070 A 
HETATM   14  C   UNL     1      40.180 -11.130   7.538  1.00  0.00     0.037 A 
HETATM   15  C   UNL     1      39.340 -12.104   7.006  1.00  0.00     0.005 A 
HETATM   16  C   UNL     1      39.851 -13.049   6.116  1.00  0.00     0.029 A 
BRANCH  13  17
HETATM   17  O   UNL     1      42.247 -10.092   7.790  1.00  0.00    -0.356 OA
HETATM   18  C   UNL     1      42.569 -10.271   9.165  1.00  0.00     0.210 C 
ENDBRANCH  13  17
ENDBRANCH   8  11
ENDBRANCH   5   7
BRANCH   1  19
HETATM   19  C   UNL     1      43.619 -18.683   2.861  1.00  0.00    -0.005 A 
HETATM   20  C   UNL     1      44.036 -19.184   4.108  1.00  0.00     0.050 A 
HETATM   21  C   UNL     1      44.443 -20.514   4.251  1.00  0.00     0.069 A 
HETATM   22  C   UNL     1      44.430 -21.355   3.139  1.00  0.00     0.037 A 
HETATM   23  C   UNL     1      44.027 -20.877   1.895  1.00  0.00     0.004 A 
HETATM   24  C   UNL     1      43.627 -19.546   1.756  1.00  0.00     0.014 A 
BRANCH  21  25
HETATM   25  O   UNL     1      44.865 -21.106   5.410  1.00  0.00    -0.356 OA
HETATM   26  C   UNL     1      43.998 -21.019   6.533  1.00  0.00     0.210 C 
ENDBRANCH  21  25
ENDBRANCH   1  19
TORSDOF 5
ENDMDL
MODEL 10
REMARK VINA RESULT:      -7.0      1.488      8.992
REMARK  5 active torsions:
REMARK  status: ('A' for Active; 'I' for Inactive)
REMARK    1  A    between atoms: O_2  and  C_3 
REMARK    2  A    between atoms: C_5  and  C_6 
REMARK    3  A    between atoms: C_10  and  C_11 
REMARK       I    between atoms: C_11  and  N_12 
REMARK    4  A    between atoms: N_12  and  C_13 
REMARK    5  A    between atoms: C_15  and  O_16 
ROOT
HETATM    1  C   UNL     1      41.861 -14.124  -0.727  1.00  0.00     0.063 A 
HETATM    2  N   UNL     1      41.319 -15.206  -1.374  1.00  0.00    -0.277 N 
HETATM    3  H   UNL     1      41.004 -15.253  -2.337  1.00  0.00     0.189 HD
HETATM    4  N   UNL     1      41.227 -16.321  -0.625  1.00  0.00    -0.169 NA
HETATM    5  C   UNL     1      41.758 -15.958   0.559  1.00  0.00     0.147 A 
HETATM    6  C   UNL     1      42.156 -14.598   0.538  1.00  0.00     0.071 A 
ENDROOT
BRANCH   5   7
HETATM    7  C   UNL     1      41.890 -16.905   1.683  1.00  0.00     0.276 C 
HETATM    8  N   UNL     1      43.093 -17.584   1.638  1.00  0.00    -0.322 N 
HETATM    9  H   UNL     1      43.662 -17.335   0.832  1.00  0.00     0.169 HD
HETATM   10  O   UNL     1      41.006 -17.027   2.523  1.00  0.00    -0.266 OA
BRANCH   8  11
HETATM   11  C   UNL     1      43.605 -18.527   2.545  1.00  0.00     0.037 A 
HETATM   12  C   UNL     1      43.900 -18.242   3.882  1.00  0.00     0.066 A 
HETATM   13  C   UNL     1      44.425 -19.231   4.720  1.00  0.00     0.070 A 
HETATM   14  C   UNL     1      44.642 -20.514   4.216  1.00  0.00     0.037 A 
HETATM   15  C   UNL     1      44.350 -20.810   2.887  1.00  0.00     0.005 A 
HETATM   16  C   UNL     1      43.835 -19.818   2.054  1.00  0.00     0.029 A 
BRANCH  13  17
HETATM   17  O   UNL     1      44.763 -19.072   6.037  1.00  0.00    -0.356 OA
HETATM   18  C   UNL     1      44.936 -17.737   6.499  1.00  0.00     0.210 C 
ENDBRANCH  13  17
ENDBRANCH   8  11
ENDBRANCH   5   7
BRANCH   1  19
HETATM   19  C   UNL     1      42.072 -12.814  -1.348  1.00  0.00    -0.005 A 
HETATM   20  C   UNL     1      42.027 -12.684  -2.748  1.00  0.00     0.050 A 
HETATM   21  C   UNL     1      42.218 -11.443  -3.362  1.00  0.00     0.069 A 
HETATM   22  C   UNL     1      42.453 -10.318  -2.573  1.00  0.00     0.037 A 
HETATM   23  C   UNL     1      42.508 -10.428  -1.185  1.00  0.00     0.004 A 
HETATM   24  C   UNL     1      42.322 -11.671  -0.576  1.00  0.00     0.014 A 
BRANCH  21  25
HETATM   25  O   UNL     1      42.195 -11.199  -4.709  1.00  0.00    -0.356 OA
HETATM   26  C   UNL     1      42.558  -9.892  -5.134  1.00  0.00     0.210 C 
ENDBRANCH  21  25
ENDBRANCH   1  19
TORSDOF 5
ENDMDL
