MODEL 1
REMARK VINA RESULT:      -9.5      0.000      0.000
REMARK  7 active torsions:
REMARK  status: ('A' for Active; 'I' for Inactive)
REMARK    1  A    between atoms: C_2  and  O_3 
REMARK    2  A    between atoms: O_3  and  C_4 
REMARK    3  A    between atoms: C_7  and  N_8 
REMARK    4  A    between atoms: C_9  and  O_10 
REMARK    5  A    between atoms: C_9  and  C_11 
REMARK       I    between atoms: C_11  and  N_12 
REMARK    6  A    between atoms: N_12  and  C_13 
REMARK    7  A    between atoms: C_13  and  C_14 
ROOT
HETATM    1  N   UNL     1      41.151 -14.649   2.258  1.00  0.00    -0.254 N 
HETATM    2  C   UNL     1      41.058 -16.002   2.834  1.00  0.00     0.256 C 
HETATM    3  C   UNL     1      41.594 -16.063   4.246  1.00  0.00     0.034 A 
HETATM    4  C   UNL     1      42.602 -15.169   4.592  1.00  0.00     0.048 A 
HETATM    5  N   UNL     1      42.995 -14.219   3.652  1.00  0.00    -0.308 N 
HETATM    6  C   UNL     1      42.289 -13.894   2.520  1.00  0.00     0.330 C 
HETATM    7  O   UNL     1      42.680 -12.926   1.870  1.00  0.00    -0.246 OA
HETATM    8  C   UNL     1      41.195 -17.027   5.185  1.00  0.00     0.015 A 
HETATM    9  C   UNL     1      41.794 -17.076   6.445  1.00  0.00     0.001 A 
HETATM   10  C   UNL     1      42.809 -16.176   6.770  1.00  0.00     0.002 A 
HETATM   11  C   UNL     1      43.223 -15.224   5.838  1.00  0.00     0.030 A 
HETATM   12  H   UNL     1      43.732 -13.562   3.878  1.00  0.00     0.170 HD
ENDROOT
BRANCH   2  13
HETATM   13  O   UNL     1      39.697 -16.445   2.892  1.00  0.00    -0.359 OA
HETATM   14  H   UNL     1      39.760 -17.421   2.889  1.00  0.00     0.213 HD
ENDBRANCH   2  13
BRANCH   2  15
HETATM   15  C   UNL     1      41.857 -17.005   1.896  1.00  0.00     0.279 C 
HETATM   16  N   UNL     1      43.204 -17.168   2.138  1.00  0.00    -0.352 N 
HETATM   17  H   UNL     1      43.628 -16.724   2.945  1.00  0.00     0.162 HD
HETATM   18  O   UNL     1      41.285 -17.600   0.975  1.00  0.00    -0.268 OA
BRANCH  16  19
HETATM   19  C   UNL     1      43.995 -18.111   1.388  1.00  0.00     0.161 C 
BRANCH  19  20
HETATM   20  C   UNL     1      44.128 -19.409   2.138  1.00  0.00    -0.038 A 
HETATM   21  C   UNL     1      44.398 -19.405   3.517  1.00  0.00     0.048 A 
HETATM   22  C   UNL     1      44.539 -20.618   4.157  1.00  0.00     0.105 A 
HETATM   23  C   UNL     1      44.431 -21.811   3.482  1.00  0.00     0.105 A 
HETATM   24  O   UNL     1      44.798 -20.793   5.481  1.00  0.00    -0.323 OA
HETATM   25  O   UNL     1      44.605 -22.886   4.297  1.00  0.00    -0.323 OA
HETATM   26  C   UNL     1      44.181 -21.858   2.129  1.00  0.00     0.040 A 
HETATM   27  C   UNL     1      44.821 -22.233   5.565  1.00  0.00     0.352 A 
HETATM   28  C   UNL     1      44.033 -20.643   1.451  1.00  0.00     0.012 A 
ENDBRANCH  19  20
ENDBRANCH  16  19
ENDBRANCH   2  15
BRANCH   1  29
HETATM   29  C   UNL     1      40.300 -14.303   1.160  1.00  0.00     0.043 A 
HETATM   30  C   UNL     1      38.967 -13.926   1.349  1.00  0.00     0.032 A 
HETATM   31  C   UNL     1      38.152 -13.594   0.255  1.00  0.00     0.039 A 
HETATM   32  C   UNL     1      38.659 -13.652  -1.041  1.00  0.00     0.068 A 
HETATM   33  C   UNL     1      39.974 -14.066  -1.238  1.00  0.00     0.039 A 
HETATM   34  C   UNL     1      40.787 -14.389  -0.149  1.00  0.00     0.032 A 
BRANCH  32  35
HETATM   35  O   UNL     1      37.978 -13.357  -2.189  1.00  0.00    -0.352 OA
BRANCH  35  36
HETATM   36  C   UNL     1      38.352 -14.077  -3.362  1.00  0.00     0.171 C 
HETATM   37  C   UNL     1      37.305 -15.152  -3.595  1.00  0.00     0.034 C 
ENDBRANCH  35  36
ENDBRANCH  32  35
ENDBRANCH   1  29
TORSDOF 7
ENDMDL
MODEL 2
REMARK VINA RESULT:      -9.5      0.925      1.617
REMARK  7 active torsions:
REMARK  status: ('A' for Active; 'I' for Inactive)
REMARK    1  A    between atoms: C_2  and  O_3 
REMARK    2  A    between atoms: O_3  and  C_4 
REMARK    3  A    between atoms: C_7  and  N_8 
REMARK    4  A    between atoms: C_9  and  O_10 
REMARK    5  A    between atoms: C_9  and  C_11 
REMARK       I    between atoms: C_11  and  N_12 
REMARK    6  A    between atoms: N_12  and  C_13 
REMARK    7  A    between atoms: C_13  and  C_14 
ROOT
HETATM    1  N   UNL     1      40.939 -14.328   1.507  1.00  0.00    -0.254 N 
HETATM    2  C   UNL     1      40.825 -15.551   2.320  1.00  0.00     0.256 C 
HETATM    3  C   UNL     1      41.358 -15.361   3.722  1.00  0.00     0.034 A 
HETATM    4  C   UNL     1      42.379 -14.434   3.903  1.00  0.00     0.048 A 
HETATM    5  N   UNL     1      42.787 -13.677   2.808  1.00  0.00    -0.308 N 
HETATM    6  C   UNL     1      42.087 -13.554   1.632  1.00  0.00     0.330 C 
HETATM    7  O   UNL     1      42.494 -12.727   0.818  1.00  0.00    -0.246 OA
HETATM    8  C   UNL     1      40.943 -16.132   4.820  1.00  0.00     0.015 A 
HETATM    9  C   UNL     1      41.539 -15.959   6.069  1.00  0.00     0.001 A 
HETATM   10  C   UNL     1      42.567 -15.030   6.229  1.00  0.00     0.002 A 
HETATM   11  C   UNL     1      42.996 -14.270   5.141  1.00  0.00     0.030 A 
HETATM   12  H   UNL     1      43.534 -13.001   2.912  1.00  0.00     0.170 HD
ENDROOT
BRANCH   2  13
HETATM   13  O   UNL     1      39.457 -15.956   2.452  1.00  0.00    -0.359 OA
HETATM   14  H   UNL     1      38.946 -15.196   2.110  1.00  0.00     0.213 HD
ENDBRANCH   2  13
BRANCH   2  15
HETATM   15  C   UNL     1      41.609 -16.720   1.584  1.00  0.00     0.279 C 
HETATM   16  N   UNL     1      42.958 -16.844   1.843  1.00  0.00    -0.352 N 
HETATM   17  H   UNL     1      43.392 -16.257   2.546  1.00  0.00     0.162 HD
HETATM   18  O   UNL     1      41.026 -17.475   0.798  1.00  0.00    -0.268 OA
BRANCH  16  19
HETATM   19  C   UNL     1      43.737 -17.918   1.279  1.00  0.00     0.161 C 
BRANCH  19  20
HETATM   20  C   UNL     1      44.059 -18.948   2.328  1.00  0.00    -0.038 A 
HETATM   21  C   UNL     1      44.137 -20.308   1.983  1.00  0.00     0.048 A 
HETATM   22  C   UNL     1      44.407 -21.219   2.982  1.00  0.00     0.105 A 
HETATM   23  C   UNL     1      44.589 -20.831   4.288  1.00  0.00     0.105 A 
HETATM   24  O   UNL     1      44.520 -22.565   2.822  1.00  0.00    -0.323 OA
HETATM   25  O   UNL     1      44.843 -21.882   5.112  1.00  0.00    -0.323 OA
HETATM   26  C   UNL     1      44.507 -19.510   4.669  1.00  0.00     0.040 A 
HETATM   27  C   UNL     1      44.813 -22.977   4.173  1.00  0.00     0.352 A 
HETATM   28  C   UNL     1      44.234 -18.561   3.678  1.00  0.00     0.012 A 
ENDBRANCH  19  20
ENDBRANCH  16  19
ENDBRANCH   2  15
BRANCH   1  29
HETATM   29  C   UNL     1      40.095 -14.175   0.362  1.00  0.00     0.043 A 
HETATM   30  C   UNL     1      40.517 -14.539  -0.922  1.00  0.00     0.032 A 
HETATM   31  C   UNL     1      39.671 -14.376  -2.030  1.00  0.00     0.039 A 
HETATM   32  C   UNL     1      38.399 -13.832  -1.868  1.00  0.00     0.068 A 
HETATM   33  C   UNL     1      37.989 -13.429  -0.599  1.00  0.00     0.039 A 
HETATM   34  C   UNL     1      38.828 -13.599   0.505  1.00  0.00     0.032 A 
BRANCH  32  35
HETATM   35  O   UNL     1      37.479 -13.619  -2.856  1.00  0.00    -0.352 OA
BRANCH  35  36
HETATM   36  C   UNL     1      37.258 -14.690  -3.772  1.00  0.00     0.171 C 
HETATM   37  C   UNL     1      36.088 -14.303  -4.659  1.00  0.00     0.034 C 
ENDBRANCH  35  36
ENDBRANCH  32  35
ENDBRANCH   1  29
TORSDOF 7
ENDMDL
MODEL 3
REMARK VINA RESULT:      -9.3      1.624      2.431
REMARK  7 active torsions:
REMARK  status: ('A' for Active; 'I' for Inactive)
REMARK    1  A    between atoms: C_2  and  O_3 
REMARK    2  A    between atoms: O_3  and  C_4 
REMARK    3  A    between atoms: C_7  and  N_8 
REMARK    4  A    between atoms: C_9  and  O_10 
REMARK    5  A    between atoms: C_9  and  C_11 
REMARK       I    between atoms: C_11  and  N_12 
REMARK    6  A    between atoms: N_12  and  C_13 
REMARK    7  A    between atoms: C_13  and  C_14 
ROOT
HETATM    1  N   UNL     1      41.222 -13.921   3.121  1.00  0.00    -0.254 N 
HETATM    2  C   UNL     1      41.235 -15.141   3.948  1.00  0.00     0.256 C 
HETATM    3  C   UNL     1      42.298 -15.095   5.022  1.00  0.00     0.034 A 
HETATM    4  C   UNL     1      43.446 -14.354   4.762  1.00  0.00     0.048 A 
HETATM    5  N   UNL     1      43.512 -13.631   3.573  1.00  0.00    -0.308 N 
HETATM    6  C   UNL     1      42.438 -13.350   2.764  1.00  0.00     0.330 C 
HETATM    7  O   UNL     1      42.624 -12.569   1.832  1.00  0.00    -0.246 OA
HETATM    8  C   UNL     1      42.225 -15.831   6.216  1.00  0.00     0.015 A 
HETATM    9  C   UNL     1      43.283 -15.806   7.126  1.00  0.00     0.001 A 
HETATM   10  C   UNL     1      44.430 -15.064   6.843  1.00  0.00     0.002 A 
HETATM   11  C   UNL     1      44.517 -14.341   5.653  1.00  0.00     0.030 A 
HETATM   12  H   UNL     1      44.340 -13.090   3.357  1.00  0.00     0.170 HD
ENDROOT
BRANCH   2  13
HETATM   13  O   UNL     1      39.983 -15.323   4.618  1.00  0.00    -0.359 OA
HETATM   14  H   UNL     1      40.185 -15.156   5.560  1.00  0.00     0.213 HD
ENDBRANCH   2  13
BRANCH   2  15
HETATM   15  C   UNL     1      41.465 -16.392   2.996  1.00  0.00     0.279 C 
HETATM   16  N   UNL     1      42.745 -16.616   2.536  1.00  0.00    -0.352 N 
HETATM   17  H   UNL     1      43.510 -16.045   2.877  1.00  0.00     0.162 HD
HETATM   18  O   UNL     1      40.521 -17.122   2.673  1.00  0.00    -0.268 OA
BRANCH  16  19
HETATM   19  C   UNL     1      43.063 -17.767   1.729  1.00  0.00     0.161 C 
BRANCH  19  20
HETATM   20  C   UNL     1      43.653 -18.864   2.575  1.00  0.00    -0.038 A 
HETATM   21  C   UNL     1      43.694 -20.183   2.094  1.00  0.00     0.048 A 
HETATM   22  C   UNL     1      44.216 -21.160   2.915  1.00  0.00     0.105 A 
HETATM   23  C   UNL     1      44.683 -20.874   4.176  1.00  0.00     0.105 A 
HETATM   24  O   UNL     1      44.333 -22.480   2.607  1.00  0.00    -0.323 OA
HETATM   25  O   UNL     1      45.154 -21.977   4.818  1.00  0.00    -0.323 OA
HETATM   26  C   UNL     1      44.648 -19.596   4.689  1.00  0.00     0.040 A 
HETATM   27  C   UNL     1      44.944 -22.988   3.811  1.00  0.00     0.352 A 
HETATM   28  C   UNL     1      44.123 -18.584   3.879  1.00  0.00     0.012 A 
ENDBRANCH  19  20
ENDBRANCH  16  19
ENDBRANCH   2  15
BRANCH   1  29
HETATM   29  C   UNL     1      40.035 -13.589   2.395  1.00  0.00     0.043 A 
HETATM   30  C   UNL     1      39.624 -14.319   1.275  1.00  0.00     0.032 A 
HETATM   31  C   UNL     1      38.456 -13.970   0.578  1.00  0.00     0.039 A 
HETATM   32  C   UNL     1      37.696 -12.877   0.985  1.00  0.00     0.068 A 
HETATM   33  C   UNL     1      38.122 -12.121   2.075  1.00  0.00     0.039 A 
HETATM   34  C   UNL     1      39.280 -12.473   2.773  1.00  0.00     0.032 A 
BRANCH  32  35
HETATM   35  O   UNL     1      36.545 -12.430   0.400  1.00  0.00    -0.352 OA
BRANCH  35  36
HETATM   36  C   UNL     1      36.132 -11.103   0.720  1.00  0.00     0.171 C 
HETATM   37  C   UNL     1      34.650 -10.995   0.409  1.00  0.00     0.034 C 
ENDBRANCH  35  36
ENDBRANCH  32  35
ENDBRANCH   1  29
TORSDOF 7
ENDMDL
MODEL 4
REMARK VINA RESULT:      -9.3      1.742      5.777
REMARK  7 active torsions:
REMARK  status: ('A' for Active; 'I' for Inactive)
REMARK    1  A    between atoms: C_2  and  O_3 
REMARK    2  A    between atoms: O_3  and  C_4 
REMARK    3  A    between atoms: C_7  and  N_8 
REMARK    4  A    between atoms: C_9  and  O_10 
REMARK    5  A    between atoms: C_9  and  C_11 
REMARK       I    between atoms: C_11  and  N_12 
REMARK    6  A    between atoms: N_12  and  C_13 
REMARK    7  A    between atoms: C_13  and  C_14 
ROOT
HETATM    1  N   UNL     1      40.411 -14.620   1.869  1.00  0.00    -0.254 N 
HETATM    2  C   UNL     1      41.592 -14.438   1.007  1.00  0.00     0.256 C 
HETATM    3  C   UNL     1      41.318 -13.509  -0.154  1.00  0.00     0.034 A 
HETATM    4  C   UNL     1      40.017 -13.457  -0.644  1.00  0.00     0.048 A 
HETATM    5  N   UNL     1      39.032 -14.190   0.013  1.00  0.00    -0.308 N 
HETATM    6  C   UNL     1      39.162 -14.734   1.267  1.00  0.00     0.330 C 
HETATM    7  O   UNL     1      38.154 -15.217   1.780  1.00  0.00    -0.246 OA
HETATM    8  C   UNL     1      42.318 -12.777  -0.813  1.00  0.00     0.015 A 
HETATM    9  C   UNL     1      42.005 -12.004  -1.932  1.00  0.00     0.001 A 
HETATM   10  C   UNL     1      40.697 -11.972  -2.414  1.00  0.00     0.002 A 
HETATM   11  C   UNL     1      39.699 -12.707  -1.774  1.00  0.00     0.030 A 
HETATM   12  H   UNL     1      38.079 -14.175  -0.330  1.00  0.00     0.170 HD
ENDROOT
BRANCH   2  13
HETATM   13  O   UNL     1      42.681 -13.868   1.741  1.00  0.00    -0.359 OA
HETATM   14  H   UNL     1      42.781 -14.451   2.520  1.00  0.00     0.213 HD
ENDBRANCH   2  13
BRANCH   2  15
HETATM   15  C   UNL     1      42.054 -15.863   0.479  1.00  0.00     0.279 C 
HETATM   16  N   UNL     1      43.129 -16.457   1.105  1.00  0.00    -0.352 N 
HETATM   17  H   UNL     1      43.537 -16.023   1.925  1.00  0.00     0.162 HD
HETATM   18  O   UNL     1      41.474 -16.404  -0.470  1.00  0.00    -0.268 OA
BRANCH  16  19
HETATM   19  C   UNL     1      43.574 -17.780   0.744  1.00  0.00     0.161 C 
BRANCH  19  20
HETATM   20  C   UNL     1      43.912 -18.581   1.972  1.00  0.00    -0.038 A 
HETATM   21  C   UNL     1      44.031 -19.978   1.894  1.00  0.00     0.048 A 
HETATM   22  C   UNL     1      44.315 -20.674   3.051  1.00  0.00     0.105 A 
HETATM   23  C   UNL     1      44.472 -20.038   4.259  1.00  0.00     0.105 A 
HETATM   24  O   UNL     1      44.465 -22.022   3.152  1.00  0.00    -0.323 OA
HETATM   25  O   UNL     1      44.745 -20.905   5.271  1.00  0.00    -0.323 OA
HETATM   26  C   UNL     1      44.350 -18.671   4.380  1.00  0.00     0.040 A 
HETATM   27  C   UNL     1      44.755 -22.159   4.559  1.00  0.00     0.352 A 
HETATM   28  C   UNL     1      44.062 -17.938   3.224  1.00  0.00     0.012 A 
ENDBRANCH  19  20
ENDBRANCH  16  19
ENDBRANCH   2  15
BRANCH   1  29
HETATM   29  C   UNL     1      40.598 -15.061   3.217  1.00  0.00     0.043 A 
HETATM   30  C   UNL     1      40.538 -14.178   4.300  1.00  0.00     0.032 A 
HETATM   31  C   UNL     1      40.729 -14.636   5.614  1.00  0.00     0.039 A 
HETATM   32  C   UNL     1      40.996 -15.981   5.856  1.00  0.00     0.068 A 
HETATM   33  C   UNL     1      41.097 -16.858   4.778  1.00  0.00     0.039 A 
HETATM   34  C   UNL     1      40.900 -16.403   3.472  1.00  0.00     0.032 A 
BRANCH  32  35
HETATM   35  O   UNL     1      41.201 -16.557   7.078  1.00  0.00    -0.352 OA
BRANCH  35  36
HETATM   36  C   UNL     1      42.269 -17.497   7.177  1.00  0.00     0.171 C 
HETATM   37  C   UNL     1      43.417 -16.815   7.898  1.00  0.00     0.034 C 
ENDBRANCH  35  36
ENDBRANCH  32  35
ENDBRANCH   1  29
TORSDOF 7
ENDMDL
MODEL 5
REMARK VINA RESULT:      -9.2      2.510      7.811
REMARK  7 active torsions:
REMARK  status: ('A' for Active; 'I' for Inactive)
REMARK    1  A    between atoms: C_2  and  O_3 
REMARK    2  A    between atoms: O_3  and  C_4 
REMARK    3  A    between atoms: C_7  and  N_8 
REMARK    4  A    between atoms: C_9  and  O_10 
REMARK    5  A    between atoms: C_9  and  C_11 
REMARK       I    between atoms: C_11  and  N_12 
REMARK    6  A    between atoms: N_12  and  C_13 
REMARK    7  A    between atoms: C_13  and  C_14 
ROOT
HETATM    1  N   UNL     1      41.943 -15.928   5.134  1.00  0.00    -0.254 N 
HETATM    2  C   UNL     1      41.982 -14.833   4.150  1.00  0.00     0.256 C 
HETATM    3  C   UNL     1      41.499 -13.522   4.729  1.00  0.00     0.034 A 
HETATM    4  C   UNL     1      40.557 -13.578   5.751  1.00  0.00     0.048 A 
HETATM    5  N   UNL     1      40.182 -14.827   6.238  1.00  0.00    -0.308 N 
HETATM    6  C   UNL     1      40.861 -15.998   6.005  1.00  0.00     0.330 C 
HETATM    7  O   UNL     1      40.499 -16.994   6.630  1.00  0.00    -0.246 OA
HETATM    8  C   UNL     1      41.880 -12.267   4.229  1.00  0.00     0.015 A 
HETATM    9  C   UNL     1      41.329 -11.099   4.758  1.00  0.00     0.001 A 
HETATM   10  C   UNL     1      40.380 -11.176   5.777  1.00  0.00     0.002 A 
HETATM   11  C   UNL     1      39.984 -12.419   6.271  1.00  0.00     0.030 A 
HETATM   12  H   UNL     1      39.492 -14.894   6.977  1.00  0.00     0.170 HD
ENDROOT
BRANCH   2  13
HETATM   13  O   UNL     1      43.317 -14.608   3.683  1.00  0.00    -0.359 OA
HETATM   14  H   UNL     1      43.862 -14.613   4.495  1.00  0.00     0.213 HD
ENDBRANCH   2  13
BRANCH   2  15
HETATM   15  C   UNL     1      41.093 -15.246   2.901  1.00  0.00     0.279 C 
HETATM   16  N   UNL     1      41.745 -15.518   1.716  1.00  0.00    -0.352 N 
HETATM   17  H   UNL     1      42.758 -15.534   1.691  1.00  0.00     0.162 HD
HETATM   18  O   UNL     1      39.862 -15.304   2.993  1.00  0.00    -0.268 OA
BRANCH  16  19
HETATM   19  C   UNL     1      41.029 -15.972   0.550  1.00  0.00     0.161 C 
BRANCH  19  20
HETATM   20  C   UNL     1      41.303 -15.074  -0.626  1.00  0.00    -0.038 A 
HETATM   21  C   UNL     1      41.820 -13.783  -0.424  1.00  0.00     0.048 A 
HETATM   22  C   UNL     1      42.029 -12.985  -1.529  1.00  0.00     0.105 A 
HETATM   23  C   UNL     1      41.740 -13.417  -2.801  1.00  0.00     0.105 A 
HETATM   24  O   UNL     1      42.524 -11.717  -1.512  1.00  0.00    -0.323 OA
HETATM   25  O   UNL     1      42.018 -12.478  -3.744  1.00  0.00    -0.323 OA
HETATM   26  C   UNL     1      41.220 -14.670  -3.040  1.00  0.00     0.040 A 
HETATM   27  C   UNL     1      42.530 -11.409  -2.921  1.00  0.00     0.352 A 
HETATM   28  C   UNL     1      40.996 -15.503  -1.938  1.00  0.00     0.012 A 
ENDBRANCH  19  20
ENDBRANCH  16  19
ENDBRANCH   2  15
BRANCH   1  29
HETATM   29  C   UNL     1      42.768 -17.078   4.925  1.00  0.00     0.043 A 
HETATM   30  C   UNL     1      42.460 -18.045   3.962  1.00  0.00     0.032 A 
HETATM   31  C   UNL     1      43.284 -19.166   3.779  1.00  0.00     0.039 A 
HETATM   32  C   UNL     1      44.418 -19.340   4.568  1.00  0.00     0.068 A 
HETATM   33  C   UNL     1      44.708 -18.402   5.557  1.00  0.00     0.039 A 
HETATM   34  C   UNL     1      43.892 -17.283   5.734  1.00  0.00     0.032 A 
BRANCH  32  35
HETATM   35  O   UNL     1      45.302 -20.380   4.495  1.00  0.00    -0.352 OA
BRANCH  35  36
HETATM   36  C   UNL     1      44.884 -21.621   5.061  1.00  0.00     0.171 C 
HETATM   37  C   UNL     1      44.665 -22.596   3.919  1.00  0.00     0.034 C 
ENDBRANCH  35  36
ENDBRANCH  32  35
ENDBRANCH   1  29
TORSDOF 7
ENDMDL
MODEL 6
REMARK VINA RESULT:      -8.8      2.745      6.114
REMARK  7 active torsions:
REMARK  status: ('A' for Active; 'I' for Inactive)
REMARK    1  A    between atoms: C_2  and  O_3 
REMARK    2  A    between atoms: O_3  and  C_4 
REMARK    3  A    between atoms: C_7  and  N_8 
REMARK    4  A    between atoms: C_9  and  O_10 
REMARK    5  A    between atoms: C_9  and  C_11 
REMARK       I    between atoms: C_11  and  N_12 
REMARK    6  A    between atoms: N_12  and  C_13 
REMARK    7  A    between atoms: C_13  and  C_14 
ROOT
HETATM    1  N   UNL     1      39.822 -13.772   1.350  1.00  0.00    -0.254 N 
HETATM    2  C   UNL     1      41.153 -13.906   0.733  1.00  0.00     0.256 C 
HETATM    3  C   UNL     1      41.134 -13.593  -0.747  1.00  0.00     0.034 A 
HETATM    4  C   UNL     1      39.957 -13.845  -1.443  1.00  0.00     0.048 A 
HETATM    5  N   UNL     1      38.846 -14.282  -0.728  1.00  0.00    -0.308 N 
HETATM    6  C   UNL     1      38.714 -14.218   0.638  1.00  0.00     0.330 C 
HETATM    7  O   UNL     1      37.614 -14.496   1.112  1.00  0.00    -0.246 OA
HETATM    8  C   UNL     1      42.261 -13.156  -1.460  1.00  0.00     0.015 A 
HETATM    9  C   UNL     1      42.193 -12.967  -2.841  1.00  0.00     0.001 A 
HETATM   10  C   UNL     1      41.006 -13.233  -3.523  1.00  0.00     0.002 A 
HETATM   11  C   UNL     1      39.885 -13.682  -2.825  1.00  0.00     0.030 A 
HETATM   12  H   UNL     1      37.979 -14.480  -1.214  1.00  0.00     0.170 HD
ENDROOT
BRANCH   2  13
HETATM   13  O   UNL     1      42.091 -13.003   1.331  1.00  0.00    -0.359 OA
HETATM   14  H   UNL     1      41.790 -12.921   2.258  1.00  0.00     0.213 HD
ENDBRANCH   2  13
BRANCH   2  15
HETATM   15  C   UNL     1      41.677 -15.385   0.979  1.00  0.00     0.279 C 
HETATM   16  N   UNL     1      42.799 -15.541   1.765  1.00  0.00    -0.352 N 
HETATM   17  H   UNL     1      43.204 -14.737   2.230  1.00  0.00     0.162 HD
HETATM   18  O   UNL     1      41.102 -16.352   0.467  1.00  0.00    -0.268 OA
BRANCH  16  19
HETATM   19  C   UNL     1      43.304 -16.848   2.104  1.00  0.00     0.161 C 
BRANCH  19  20
HETATM   20  C   UNL     1      43.397 -17.011   3.598  1.00  0.00    -0.038 A 
HETATM   21  C   UNL     1      43.566 -18.287   4.161  1.00  0.00     0.048 A 
HETATM   22  C   UNL     1      43.617 -18.392   5.535  1.00  0.00     0.105 A 
HETATM   23  C   UNL     1      43.500 -17.292   6.351  1.00  0.00     0.105 A 
HETATM   24  O   UNL     1      43.779 -19.544   6.239  1.00  0.00    -0.323 OA
HETATM   25  O   UNL     1      43.576 -17.613   7.670  1.00  0.00    -0.323 OA
HETATM   26  C   UNL     1      43.319 -16.026   5.839  1.00  0.00     0.040 A 
HETATM   27  C   UNL     1      43.769 -19.040   7.591  1.00  0.00     0.352 A 
HETATM   28  C   UNL     1      43.263 -15.888   4.447  1.00  0.00     0.012 A 
ENDBRANCH  19  20
ENDBRANCH  16  19
ENDBRANCH   2  15
BRANCH   1  29
HETATM   29  C   UNL     1      39.730 -13.572   2.764  1.00  0.00     0.043 A 
HETATM   30  C   UNL     1      39.966 -14.607   3.675  1.00  0.00     0.032 A 
HETATM   31  C   UNL     1      39.866 -14.385   5.058  1.00  0.00     0.039 A 
HETATM   32  C   UNL     1      39.514 -13.127   5.543  1.00  0.00     0.068 A 
HETATM   33  C   UNL     1      39.237 -12.104   4.639  1.00  0.00     0.039 A 
HETATM   34  C   UNL     1      39.344 -12.323   3.264  1.00  0.00     0.032 A 
BRANCH  32  35
HETATM   35  O   UNL     1      39.381 -12.777   6.857  1.00  0.00    -0.352 OA
BRANCH  35  36
HETATM   36  C   UNL     1      39.715 -11.434   7.202  1.00  0.00     0.171 C 
HETATM   37  C   UNL     1      39.344 -11.228   8.660  1.00  0.00     0.034 C 
ENDBRANCH  35  36
ENDBRANCH  32  35
ENDBRANCH   1  29
TORSDOF 7
ENDMDL
MODEL 7
REMARK VINA RESULT:      -8.7      2.369      6.232
REMARK  7 active torsions:
REMARK  status: ('A' for Active; 'I' for Inactive)
REMARK    1  A    between atoms: C_2  and  O_3 
REMARK    2  A    between atoms: O_3  and  C_4 
REMARK    3  A    between atoms: C_7  and  N_8 
REMARK    4  A    between atoms: C_9  and  O_10 
REMARK    5  A    between atoms: C_9  and  C_11 
REMARK       I    between atoms: C_11  and  N_12 
REMARK    6  A    between atoms: N_12  and  C_13 
REMARK    7  A    between atoms: C_13  and  C_14 
ROOT
HETATM    1  N   UNL     1      41.496 -14.066   4.138  1.00  0.00    -0.254 N 
HETATM    2  C   UNL     1      42.104 -13.985   2.799  1.00  0.00     0.256 C 
HETATM    3  C   UNL     1      41.559 -12.831   1.989  1.00  0.00     0.034 A 
HETATM    4  C   UNL     1      40.253 -12.424   2.245  1.00  0.00     0.048 A 
HETATM    5  N   UNL     1      39.560 -13.040   3.284  1.00  0.00    -0.308 N 
HETATM    6  C   UNL     1      40.135 -13.811   4.265  1.00  0.00     0.330 C 
HETATM    7  O   UNL     1      39.419 -14.156   5.203  1.00  0.00    -0.246 OA
HETATM    8  C   UNL     1      42.263 -12.219   0.941  1.00  0.00     0.015 A 
HETATM    9  C   UNL     1      41.665 -11.213   0.181  1.00  0.00     0.001 A 
HETATM   10  C   UNL     1      40.352 -10.825   0.447  1.00  0.00     0.002 A 
HETATM   11  C   UNL     1      39.639 -11.437   1.478  1.00  0.00     0.030 A 
HETATM   12  H   UNL     1      38.606 -12.767   3.485  1.00  0.00     0.170 HD
ENDROOT
BRANCH   2  13
HETATM   13  O   UNL     1      43.520 -13.792   2.887  1.00  0.00    -0.359 OA
HETATM   14  H   UNL     1      43.741 -14.032   3.809  1.00  0.00     0.213 HD
ENDBRANCH   2  13
BRANCH   2  15
HETATM   15  C   UNL     1      41.847 -15.360   2.045  1.00  0.00     0.279 C 
HETATM   16  N   UNL     1      42.911 -16.228   1.922  1.00  0.00    -0.352 N 
HETATM   17  H   UNL     1      43.789 -16.016   2.380  1.00  0.00     0.162 HD
HETATM   18  O   UNL     1      40.734 -15.625   1.576  1.00  0.00    -0.268 OA
BRANCH  16  19
HETATM   19  C   UNL     1      42.755 -17.529   1.320  1.00  0.00     0.161 C 
BRANCH  19  20
HETATM   20  C   UNL     1      43.379 -18.592   2.183  1.00  0.00    -0.038 A 
HETATM   21  C   UNL     1      43.421 -19.926   1.741  1.00  0.00     0.048 A 
HETATM   22  C   UNL     1      43.977 -20.871   2.578  1.00  0.00     0.105 A 
HETATM   23  C   UNL     1      44.474 -20.542   3.816  1.00  0.00     0.105 A 
HETATM   24  O   UNL     1      44.099 -22.199   2.307  1.00  0.00    -0.323 OA
HETATM   25  O   UNL     1      44.974 -21.619   4.478  1.00  0.00    -0.323 OA
HETATM   26  C   UNL     1      44.438 -19.249   4.291  1.00  0.00     0.040 A 
HETATM   27  C   UNL     1      44.748 -22.663   3.509  1.00  0.00     0.352 A 
HETATM   28  C   UNL     1      43.880 -18.267   3.465  1.00  0.00     0.012 A 
ENDBRANCH  19  20
ENDBRANCH  16  19
ENDBRANCH   2  15
BRANCH   1  29
HETATM   29  C   UNL     1      42.192 -14.767   5.174  1.00  0.00     0.043 A 
HETATM   30  C   UNL     1      43.290 -14.209   5.836  1.00  0.00     0.032 A 
HETATM   31  C   UNL     1      43.958 -14.918   6.847  1.00  0.00     0.039 A 
HETATM   32  C   UNL     1      43.542 -16.201   7.195  1.00  0.00     0.068 A 
HETATM   33  C   UNL     1      42.475 -16.778   6.511  1.00  0.00     0.039 A 
HETATM   34  C   UNL     1      41.806 -16.069   5.511  1.00  0.00     0.032 A 
BRANCH  32  35
HETATM   35  O   UNL     1      44.100 -16.998   8.155  1.00  0.00    -0.352 OA
BRANCH  35  36
HETATM   36  C   UNL     1      43.981 -18.408   7.971  1.00  0.00     0.171 C 
HETATM   37  C   UNL     1      44.610 -19.083   9.177  1.00  0.00     0.034 C 
ENDBRANCH  35  36
ENDBRANCH  32  35
ENDBRANCH   1  29
TORSDOF 7
ENDMDL
MODEL 8
REMARK VINA RESULT:      -8.7      2.778      6.154
REMARK  7 active torsions:
REMARK  status: ('A' for Active; 'I' for Inactive)
REMARK    1  A    between atoms: C_2  and  O_3 
REMARK    2  A    between atoms: O_3  and  C_4 
REMARK    3  A    between atoms: C_7  and  N_8 
REMARK    4  A    between atoms: C_9  and  O_10 
REMARK    5  A    between atoms: C_9  and  C_11 
REMARK       I    between atoms: C_11  and  N_12 
REMARK    6  A    between atoms: N_12  and  C_13 
REMARK    7  A    between atoms: C_13  and  C_14 
ROOT
HETATM    1  N   UNL     1      39.830 -13.794   1.257  1.00  0.00    -0.254 N 
HETATM    2  C   UNL     1      41.140 -13.958   0.602  1.00  0.00     0.256 C 
HETATM    3  C   UNL     1      41.095 -13.606  -0.868  1.00  0.00     0.034 A 
HETATM    4  C   UNL     1      39.892 -13.798  -1.540  1.00  0.00     0.048 A 
HETATM    5  N   UNL     1      38.784 -14.215  -0.807  1.00  0.00    -0.308 N 
HETATM    6  C   UNL     1      38.689 -14.182   0.563  1.00  0.00     0.330 C 
HETATM    7  O   UNL     1      37.592 -14.433   1.058  1.00  0.00    -0.246 OA
HETATM    8  C   UNL     1      42.219 -13.191  -1.600  1.00  0.00     0.015 A 
HETATM    9  C   UNL     1      42.122 -12.964  -2.973  1.00  0.00     0.001 A 
HETATM   10  C   UNL     1      40.910 -13.170  -3.631  1.00  0.00     0.002 A 
HETATM   11  C   UNL     1      39.791 -13.596  -2.915  1.00  0.00     0.030 A 
HETATM   12  H   UNL     1      37.899 -14.369  -1.275  1.00  0.00     0.170 HD
ENDROOT
BRANCH   2  13
HETATM   13  O   UNL     1      42.124 -13.105   1.198  1.00  0.00    -0.359 OA
HETATM   14  H   UNL     1      41.611 -12.346   1.541  1.00  0.00     0.213 HD
ENDBRANCH   2  13
BRANCH   2  15
HETATM   15  C   UNL     1      41.616 -15.461   0.797  1.00  0.00     0.279 C 
HETATM   16  N   UNL     1      42.845 -15.669   1.386  1.00  0.00    -0.352 N 
HETATM   17  H   UNL     1      43.368 -14.881   1.753  1.00  0.00     0.162 HD
HETATM   18  O   UNL     1      40.910 -16.402   0.417  1.00  0.00    -0.268 OA
BRANCH  16  19
HETATM   19  C   UNL     1      43.328 -16.996   1.671  1.00  0.00     0.161 C 
BRANCH  19  20
HETATM   20  C   UNL     1      43.432 -17.217   3.156  1.00  0.00    -0.038 A 
HETATM   21  C   UNL     1      43.287 -16.137   4.043  1.00  0.00     0.048 A 
HETATM   22  C   UNL     1      43.419 -16.381   5.394  1.00  0.00     0.105 A 
HETATM   23  C   UNL     1      43.691 -17.637   5.881  1.00  0.00     0.105 A 
HETATM   24  O   UNL     1      43.306 -15.455   6.384  1.00  0.00    -0.323 OA
HETATM   25  O   UNL     1      43.782 -17.660   7.237  1.00  0.00    -0.323 OA
HETATM   26  C   UNL     1      43.854 -18.719   5.044  1.00  0.00     0.040 A 
HETATM   27  C   UNL     1      43.520 -16.276   7.550  1.00  0.00     0.352 A 
HETATM   28  C   UNL     1      43.727 -18.503   3.667  1.00  0.00     0.012 A 
ENDBRANCH  19  20
ENDBRANCH  16  19
ENDBRANCH   2  15
BRANCH   1  29
HETATM   29  C   UNL     1      39.782 -13.627   2.677  1.00  0.00     0.043 A 
HETATM   30  C   UNL     1      40.012 -14.691   3.555  1.00  0.00     0.032 A 
HETATM   31  C   UNL     1      39.955 -14.502   4.945  1.00  0.00     0.039 A 
HETATM   32  C   UNL     1      39.651 -13.249   5.471  1.00  0.00     0.068 A 
HETATM   33  C   UNL     1      39.380 -12.195   4.601  1.00  0.00     0.039 A 
HETATM   34  C   UNL     1      39.444 -12.382   3.218  1.00  0.00     0.032 A 
BRANCH  32  35
HETATM   35  O   UNL     1      39.563 -12.929   6.797  1.00  0.00    -0.352 OA
BRANCH  35  36
HETATM   36  C   UNL     1      39.668 -11.547   7.134  1.00  0.00     0.171 C 
HETATM   37  C   UNL     1      39.282 -11.399   8.594  1.00  0.00     0.034 C 
ENDBRANCH  35  36
ENDBRANCH  32  35
ENDBRANCH   1  29
TORSDOF 7
ENDMDL
MODEL 9
REMARK VINA RESULT:      -8.3      2.532      6.301
REMARK  7 active torsions:
REMARK  status: ('A' for Active; 'I' for Inactive)
REMARK    1  A    between atoms: C_2  and  O_3 
REMARK    2  A    between atoms: O_3  and  C_4 
REMARK    3  A    between atoms: C_7  and  N_8 
REMARK    4  A    between atoms: C_9  and  O_10 
REMARK    5  A    between atoms: C_9  and  C_11 
REMARK       I    between atoms: C_11  and  N_12 
REMARK    6  A    between atoms: N_12  and  C_13 
REMARK    7  A    between atoms: C_13  and  C_14 
ROOT
HETATM    1  N   UNL     1      40.820 -13.839   0.906  1.00  0.00    -0.254 N 
HETATM    2  C   UNL     1      39.469 -13.779   1.489  1.00  0.00     0.256 C 
HETATM    3  C   UNL     1      38.589 -12.763   0.796  1.00  0.00     0.034 A 
HETATM    4  C   UNL     1      39.209 -11.655   0.227  1.00  0.00     0.048 A 
HETATM    5  N   UNL     1      40.599 -11.591   0.250  1.00  0.00    -0.308 N 
HETATM    6  C   UNL     1      41.431 -12.649   0.526  1.00  0.00     0.330 C 
HETATM    7  O   UNL     1      42.637 -12.478   0.353  1.00  0.00    -0.246 OA
HETATM    8  C   UNL     1      37.187 -12.834   0.782  1.00  0.00     0.015 A 
HETATM    9  C   UNL     1      36.435 -11.816   0.196  1.00  0.00     0.001 A 
HETATM   10  C   UNL     1      37.074 -10.709  -0.362  1.00  0.00     0.002 A 
HETATM   11  C   UNL     1      38.466 -10.622  -0.340  1.00  0.00     0.030 A 
HETATM   12  H   UNL     1      41.074 -10.791  -0.151  1.00  0.00     0.170 HD
ENDROOT
BRANCH   2  13
HETATM   13  O   UNL     1      38.804 -15.043   1.376  1.00  0.00    -0.359 OA
HETATM   14  H   UNL     1      37.939 -14.826   0.974  1.00  0.00     0.213 HD
ENDBRANCH   2  13
BRANCH   2  15
HETATM   15  C   UNL     1      39.601 -13.435   3.033  1.00  0.00     0.279 C 
HETATM   16  N   UNL     1      39.565 -14.486   3.926  1.00  0.00    -0.352 N 
HETATM   17  H   UNL     1      39.544 -15.439   3.582  1.00  0.00     0.162 HD
HETATM   18  O   UNL     1      39.716 -12.264   3.413  1.00  0.00    -0.268 OA
BRANCH  16  19
HETATM   19  C   UNL     1      39.752 -14.278   5.340  1.00  0.00     0.161 C 
BRANCH  19  20
HETATM   20  C   UNL     1      41.059 -14.869   5.796  1.00  0.00    -0.038 A 
HETATM   21  C   UNL     1      41.095 -16.155   6.360  1.00  0.00     0.048 A 
HETATM   22  C   UNL     1      42.311 -16.644   6.790  1.00  0.00     0.105 A 
HETATM   23  C   UNL     1      43.466 -15.908   6.686  1.00  0.00     0.105 A 
HETATM   24  O   UNL     1      42.523 -17.864   7.354  1.00  0.00    -0.323 OA
HETATM   25  O   UNL     1      44.551 -16.572   7.168  1.00  0.00    -0.323 OA
HETATM   26  C   UNL     1      43.471 -14.638   6.152  1.00  0.00     0.040 A 
HETATM   27  C   UNL     1      43.948 -17.818   7.575  1.00  0.00     0.352 A 
HETATM   28  C   UNL     1      42.252 -14.114   5.707  1.00  0.00     0.012 A 
ENDBRANCH  19  20
ENDBRANCH  16  19
ENDBRANCH   2  15
BRANCH   1  29
HETATM   29  C   UNL     1      41.609 -15.016   1.102  1.00  0.00     0.043 A 
HETATM   30  C   UNL     1      42.489 -15.145   2.182  1.00  0.00     0.032 A 
HETATM   31  C   UNL     1      43.255 -16.310   2.351  1.00  0.00     0.039 A 
HETATM   32  C   UNL     1      43.159 -17.352   1.431  1.00  0.00     0.068 A 
HETATM   33  C   UNL     1      42.315 -17.212   0.332  1.00  0.00     0.039 A 
HETATM   34  C   UNL     1      41.548 -16.057   0.168  1.00  0.00     0.032 A 
BRANCH  32  35
HETATM   35  O   UNL     1      43.844 -18.534   1.476  1.00  0.00    -0.352 OA
BRANCH  35  36
HETATM   36  C   UNL     1      43.323 -19.548   2.333  1.00  0.00     0.171 C 
HETATM   37  C   UNL     1      43.908 -20.875   1.884  1.00  0.00     0.034 C 
ENDBRANCH  35  36
ENDBRANCH  32  35
ENDBRANCH   1  29
TORSDOF 7
ENDMDL
MODEL 10
REMARK VINA RESULT:      -8.3      2.785      6.693
REMARK  7 active torsions:
REMARK  status: ('A' for Active; 'I' for Inactive)
REMARK    1  A    between atoms: C_2  and  O_3 
REMARK    2  A    between atoms: O_3  and  C_4 
REMARK    3  A    between atoms: C_7  and  N_8 
REMARK    4  A    between atoms: C_9  and  O_10 
REMARK    5  A    between atoms: C_9  and  C_11 
REMARK       I    between atoms: C_11  and  N_12 
REMARK    6  A    between atoms: N_12  and  C_13 
REMARK    7  A    between atoms: C_13  and  C_14 
ROOT
HETATM    1  N   UNL     1      42.074 -14.772   5.437  1.00  0.00    -0.254 N 
HETATM    2  C   UNL     1      42.020 -16.023   4.662  1.00  0.00     0.256 C 
HETATM    3  C   UNL     1      42.833 -17.129   5.298  1.00  0.00     0.034 A 
HETATM    4  C   UNL     1      43.944 -16.760   6.049  1.00  0.00     0.048 A 
HETATM    5  N   UNL     1      44.191 -15.404   6.245  1.00  0.00    -0.308 N 
HETATM    6  C   UNL     1      43.286 -14.398   6.008  1.00  0.00     0.330 C 
HETATM    7  O   UNL     1      43.593 -13.265   6.377  1.00  0.00    -0.246 OA
HETATM    8  C   UNL     1      42.579 -18.494   5.091  1.00  0.00     0.015 A 
HETATM    9  C   UNL     1      43.422 -19.459   5.642  1.00  0.00     0.001 A 
HETATM   10  C   UNL     1      44.536 -19.070   6.386  1.00  0.00     0.002 A 
HETATM   11  C   UNL     1      44.805 -17.716   6.584  1.00  0.00     0.030 A 
HETATM   12  H   UNL     1      44.998 -15.111   6.782  1.00  0.00     0.170 HD
ENDROOT
BRANCH   2  13
HETATM   13  O   UNL     1      40.676 -16.508   4.561  1.00  0.00    -0.359 OA
HETATM   14  H   UNL     1      40.409 -16.678   5.486  1.00  0.00     0.213 HD
ENDBRANCH   2  13
BRANCH   2  15
HETATM   15  C   UNL     1      42.543 -15.728   3.191  1.00  0.00     0.279 C 
HETATM   16  N   UNL     1      41.758 -16.151   2.139  1.00  0.00    -0.352 N 
HETATM   17  H   UNL     1      40.845 -16.552   2.321  1.00  0.00     0.162 HD
HETATM   18  O   UNL     1      43.622 -15.154   3.007  1.00  0.00    -0.268 OA
BRANCH  16  19
HETATM   19  C   UNL     1      42.114 -15.863   0.772  1.00  0.00     0.161 C 
BRANCH  19  20
HETATM   20  C   UNL     1      40.977 -15.182   0.059  1.00  0.00    -0.038 A 
HETATM   21  C   UNL     1      40.993 -15.056  -1.340  1.00  0.00     0.048 A 
HETATM   22  C   UNL     1      39.944 -14.400  -1.948  1.00  0.00     0.105 A 
HETATM   23  C   UNL     1      38.904 -13.868  -1.224  1.00  0.00     0.105 A 
HETATM   24  O   UNL     1      39.803 -14.193  -3.285  1.00  0.00    -0.323 OA
HETATM   25  O   UNL     1      37.977 -13.263  -2.013  1.00  0.00    -0.323 OA
HETATM   26  C   UNL     1      38.857 -13.958   0.150  1.00  0.00     0.040 A 
HETATM   27  C   UNL     1      38.545 -13.487  -3.320  1.00  0.00     0.352 A 
HETATM   28  C   UNL     1      39.908 -14.619   0.796  1.00  0.00     0.012 A 
ENDBRANCH  19  20
ENDBRANCH  16  19
ENDBRANCH   2  15
BRANCH   1  29
HETATM   29  C   UNL     1      41.037 -13.802   5.261  1.00  0.00     0.043 A 
HETATM   30  C   UNL     1      40.050 -13.590   6.230  1.00  0.00     0.032 A 
HETATM   31  C   UNL     1      39.041 -12.634   6.031  1.00  0.00     0.039 A 
HETATM   32  C   UNL     1      39.001 -11.891   4.854  1.00  0.00     0.068 A 
HETATM   33  C   UNL     1      39.956 -12.126   3.869  1.00  0.00     0.039 A 
HETATM   34  C   UNL     1      40.965 -13.072   4.069  1.00  0.00     0.032 A 
BRANCH  32  35
HETATM   35  O   UNL     1      38.078 -10.934   4.534  1.00  0.00    -0.352 OA
BRANCH  35  36
HETATM   36  C   UNL     1      38.574  -9.622   4.277  1.00  0.00     0.171 C 
HETATM   37  C   UNL     1      38.785  -8.940   5.617  1.00  0.00     0.034 C 
ENDBRANCH  35  36
ENDBRANCH  32  35
ENDBRANCH   1  29
TORSDOF 7
ENDMDL
