MODEL 1
REMARK VINA RESULT:      -8.7      0.000      0.000
REMARK  7 active torsions:
REMARK  status: ('A' for Active; 'I' for Inactive)
REMARK    1  A    between atoms: C_2  and  N_3 
REMARK    2  A    between atoms: C_11  and  C_12 
REMARK    3  A    between atoms: C_14  and  O_15 
REMARK    4  A    between atoms: C_17  and  O_18 
REMARK    5  A    between atoms: O_18  and  C_19 
REMARK    6  A    between atoms: C_19  and  C_20 
REMARK    7  A    between atoms: C_31  and  O_32 
ROOT
HETATM    1  N   UNL     1      41.562 -10.830  -3.654  1.00  0.00    -0.067 N 
HETATM    2  H   UNL     1      42.324 -10.590  -4.299  1.00  0.00     0.280 HD
HETATM    3  C   UNL     1      42.174 -10.764  -2.252  1.00  0.00     0.281 C 
HETATM    4  C   UNL     1      41.332 -11.499  -1.268  1.00  0.00     0.018 A 
HETATM    5  C   UNL     1      40.353 -12.426  -1.589  1.00  0.00    -0.024 A 
HETATM    6  C   UNL     1      39.719 -12.930  -0.410  1.00  0.00     0.057 A 
HETATM    7  C   UNL     1      40.278 -12.405   0.728  1.00  0.00     0.087 A 
HETATM    8  N   UNL     1      39.857 -12.751   1.959  1.00  0.00    -0.357 N 
HETATM    9  C   UNL     1      39.076 -13.980   2.072  1.00  0.00     0.243 C 
HETATM   10  N   UNL     1      38.276 -14.371   0.890  1.00  0.00    -0.235 NA
HETATM   11  C   UNL     1      38.638 -13.862  -0.229  1.00  0.00     0.173 C 
HETATM   12  S   UNL     1      41.515 -11.290   0.411  1.00  0.00    -0.074 SA
HETATM   13  C   UNL     1      40.047 -12.776  -3.015  1.00  0.00     0.068 C 
HETATM   14  C   UNL     1      41.143 -12.267  -3.970  1.00  0.00     0.240 C 
HETATM   15  H   UNL     1      40.445 -12.541   2.760  1.00  0.00     0.162 HD
ENDROOT
BRANCH   9  16
HETATM   16  C   UNL     1      39.998 -15.103   2.555  1.00  0.00    -0.012 A 
HETATM   17  C   UNL     1      40.612 -15.064   3.823  1.00  0.00     0.050 A 
HETATM   18  C   UNL     1      41.410 -16.120   4.269  1.00  0.00     0.102 A 
HETATM   19  C   UNL     1      41.548 -17.252   3.462  1.00  0.00     0.112 A 
HETATM   20  C   UNL     1      40.984 -17.304   2.189  1.00  0.00     0.041 A 
HETATM   21  C   UNL     1      40.211 -16.231   1.740  1.00  0.00     0.014 A 
BRANCH  18  22
HETATM   22  O   UNL     1      42.030 -16.141   5.489  1.00  0.00    -0.353 OA
HETATM   23  C   UNL     1      43.009 -15.127   5.688  1.00  0.00     0.210 C 
ENDBRANCH  18  22
BRANCH  19  24
HETATM   24  O   UNL     1      42.343 -18.304   3.936  1.00  0.00    -0.272 OA
BRANCH  24  25
HETATM   25  C   UNL     1      43.572 -18.397   3.319  1.00  0.00     0.300 C 
HETATM   26  O   UNL     1      44.272 -17.517   2.846  1.00  0.00    -0.259 OA
BRANCH  25  27
HETATM   27  C   UNL     1      43.941 -19.817   3.331  1.00  0.00     0.061 A 
HETATM   28  C   UNL     1      44.426 -20.412   4.498  1.00  0.00     0.050 A 
HETATM   29 CL   UNL     1      44.619 -19.537   5.973  1.00  0.00    -0.083 Cl
HETATM   30  C   UNL     1      44.769 -21.766   4.484  1.00  0.00     0.025 A 
HETATM   31  C   UNL     1      44.622 -22.516   3.314  1.00  0.00     0.002 A 
HETATM   32  C   UNL     1      44.128 -21.917   2.154  1.00  0.00     0.001 A 
HETATM   33  C   UNL     1      43.783 -20.565   2.158  1.00  0.00     0.019 A 
ENDBRANCH  25  27
ENDBRANCH  24  25
ENDBRANCH  19  24
ENDBRANCH   9  16
BRANCH  11  34
HETATM   34  O   UNL     1      37.965 -14.221  -1.337  1.00  0.00    -0.344 OA
HETATM   35  H   UNL     1      37.493 -13.426  -1.644  1.00  0.00     0.219 HD
ENDBRANCH  11  34
BRANCH   1  36
HETATM   36  C   UNL     1      40.486  -9.781  -3.844  1.00  0.00     0.231 C 
HETATM   37  C   UNL     1      39.942  -9.806  -5.260  1.00  0.00     0.034 C 
ENDBRANCH   1  36
TORSDOF 7
ENDMDL
MODEL 2
REMARK VINA RESULT:      -8.5      6.008      9.718
REMARK  7 active torsions:
REMARK  status: ('A' for Active; 'I' for Inactive)
REMARK    1  A    between atoms: C_2  and  N_3 
REMARK    2  A    between atoms: C_11  and  C_12 
REMARK    3  A    between atoms: C_14  and  O_15 
REMARK    4  A    between atoms: C_17  and  O_18 
REMARK    5  A    between atoms: O_18  and  C_19 
REMARK    6  A    between atoms: C_19  and  C_20 
REMARK    7  A    between atoms: C_31  and  O_32 
ROOT
HETATM    1  N   UNL     1      39.829  -9.504  12.691  1.00  0.00    -0.067 N 
HETATM    2  H   UNL     1      38.855  -9.246  12.888  1.00  0.00     0.280 HD
HETATM    3  C   UNL     1      40.024  -9.249  11.193  1.00  0.00     0.281 C 
HETATM    4  C   UNL     1      41.220  -9.974  10.680  1.00  0.00     0.018 A 
HETATM    5  C   UNL     1      41.857 -11.023  11.328  1.00  0.00    -0.024 A 
HETATM    6  C   UNL     1      42.983 -11.480  10.573  1.00  0.00     0.057 A 
HETATM    7  C   UNL     1      43.108 -10.800   9.389  1.00  0.00     0.087 A 
HETATM    8  N   UNL     1      44.086 -11.074   8.504  1.00  0.00    -0.357 N 
HETATM    9  C   UNL     1      44.762 -12.361   8.641  1.00  0.00     0.243 C 
HETATM   10  N   UNL     1      44.826 -12.937  10.002  1.00  0.00    -0.235 NA
HETATM   11  C   UNL     1      43.964 -12.497  10.842  1.00  0.00     0.173 C 
HETATM   12  S   UNL     1      41.932  -9.596   9.182  1.00  0.00    -0.074 SA
HETATM   13  C   UNL     1      41.374 -11.529  12.654  1.00  0.00     0.068 C 
HETATM   14  C   UNL     1      39.966 -11.000  12.984  1.00  0.00     0.240 C 
HETATM   15  H   UNL     1      44.000 -10.732   7.551  1.00  0.00     0.162 HD
ENDROOT
BRANCH   9  16
HETATM   16  C   UNL     1      44.171 -13.335   7.617  1.00  0.00    -0.012 A 
HETATM   17  C   UNL     1      43.064 -12.988   6.817  1.00  0.00     0.050 A 
HETATM   18  C   UNL     1      42.570 -13.869   5.852  1.00  0.00     0.102 A 
HETATM   19  C   UNL     1      43.225 -15.086   5.647  1.00  0.00     0.112 A 
HETATM   20  C   UNL     1      44.298 -15.472   6.448  1.00  0.00     0.041 A 
HETATM   21  C   UNL     1      44.768 -14.597   7.429  1.00  0.00     0.014 A 
BRANCH  18  22
HETATM   22  O   UNL     1      41.501 -13.589   5.044  1.00  0.00    -0.353 OA
HETATM   23  C   UNL     1      40.226 -13.695   5.668  1.00  0.00     0.210 C 
ENDBRANCH  18  22
BRANCH  19  24
HETATM   24  O   UNL     1      42.719 -15.948   4.665  1.00  0.00    -0.272 OA
BRANCH  24  25
HETATM   25  C   UNL     1      42.293 -17.164   5.155  1.00  0.00     0.300 C 
HETATM   26  O   UNL     1      41.485 -17.406   6.036  1.00  0.00    -0.259 OA
BRANCH  25  27
HETATM   27  C   UNL     1      43.001 -18.195   4.390  1.00  0.00     0.061 A 
HETATM   28  C   UNL     1      43.907 -19.051   5.023  1.00  0.00     0.050 A 
HETATM   29 CL   UNL     1      44.245 -18.955   6.712  1.00  0.00    -0.083 Cl
HETATM   30  C   UNL     1      44.568 -20.025   4.271  1.00  0.00     0.025 A 
HETATM   31  C   UNL     1      44.319 -20.144   2.902  1.00  0.00     0.002 A 
HETATM   32  C   UNL     1      43.406 -19.293   2.277  1.00  0.00     0.001 A 
HETATM   33  C   UNL     1      42.741 -18.316   3.019  1.00  0.00     0.019 A 
ENDBRANCH  25  27
ENDBRANCH  24  25
ENDBRANCH  19  24
ENDBRANCH   9  16
BRANCH  11  34
HETATM   34  O   UNL     1      43.959 -13.022  12.080  1.00  0.00    -0.344 OA
HETATM   35  H   UNL     1      44.759 -12.689  12.525  1.00  0.00     0.219 HD
ENDBRANCH  11  34
BRANCH   1  36
HETATM   36  C   UNL     1      40.699  -8.592  13.531  1.00  0.00     0.231 C 
HETATM   37  C   UNL     1      39.900  -7.958  14.654  1.00  0.00     0.034 C 
ENDBRANCH   1  36
TORSDOF 7
ENDMDL
MODEL 3
REMARK VINA RESULT:      -8.2      5.793      9.811
REMARK  7 active torsions:
REMARK  status: ('A' for Active; 'I' for Inactive)
REMARK    1  A    between atoms: C_2  and  N_3 
REMARK    2  A    between atoms: C_11  and  C_12 
REMARK    3  A    between atoms: C_14  and  O_15 
REMARK    4  A    between atoms: C_17  and  O_18 
REMARK    5  A    between atoms: O_18  and  C_19 
REMARK    6  A    between atoms: C_19  and  C_20 
REMARK    7  A    between atoms: C_31  and  O_32 
ROOT
HETATM    1  N   UNL     1      40.764  -9.610  12.938  1.00  0.00    -0.067 N 
HETATM    2  H   UNL     1      39.859  -9.382  13.365  1.00  0.00     0.280 HD
HETATM    3  C   UNL     1      40.540  -9.506  11.426  1.00  0.00     0.281 C 
HETATM    4  C   UNL     1      41.613 -10.220  10.678  1.00  0.00     0.018 A 
HETATM    5  C   UNL     1      42.476 -11.159  11.222  1.00  0.00    -0.024 A 
HETATM    6  C   UNL     1      43.397 -11.636  10.237  1.00  0.00     0.057 A 
HETATM    7  C   UNL     1      43.155 -11.081   9.007  1.00  0.00     0.087 A 
HETATM    8  N   UNL     1      43.885 -11.397   7.920  1.00  0.00    -0.357 N 
HETATM    9  C   UNL     1      44.671 -12.626   7.985  1.00  0.00     0.243 C 
HETATM   10  N   UNL     1      45.134 -13.050   9.325  1.00  0.00    -0.235 NA
HETATM   11  C   UNL     1      44.491 -12.567  10.323  1.00  0.00     0.173 C 
HETATM   12  S   UNL     1      41.876  -9.968   9.016  1.00  0.00    -0.074 SA
HETATM   13  C   UNL     1      42.398 -11.546  12.669  1.00  0.00     0.068 C 
HETATM   14  C   UNL     1      41.089 -11.056  13.316  1.00  0.00     0.240 C 
HETATM   15  H   UNL     1      43.526 -11.164   6.999  1.00  0.00     0.162 HD
ENDROOT
BRANCH   9  16
HETATM   16  C   UNL     1      43.910 -13.733   7.249  1.00  0.00    -0.012 A 
HETATM   17  C   UNL     1      44.197 -15.096   7.458  1.00  0.00     0.050 A 
HETATM   18  C   UNL     1      43.459 -16.093   6.817  1.00  0.00     0.102 A 
HETATM   19  C   UNL     1      42.386 -15.724   6.000  1.00  0.00     0.112 A 
HETATM   20  C   UNL     1      42.103 -14.383   5.745  1.00  0.00     0.041 A 
HETATM   21  C   UNL     1      42.864 -13.394   6.369  1.00  0.00     0.014 A 
BRANCH  18  22
HETATM   22  O   UNL     1      43.687 -17.433   6.982  1.00  0.00    -0.353 OA
HETATM   23  C   UNL     1      44.959 -17.890   6.533  1.00  0.00     0.210 C 
ENDBRANCH  18  22
BRANCH  19  24
HETATM   24  O   UNL     1      41.654 -16.742   5.378  1.00  0.00    -0.272 OA
BRANCH  24  25
HETATM   25  C   UNL     1      41.342 -16.480   4.061  1.00  0.00     0.300 C 
HETATM   26  O   UNL     1      40.447 -15.794   3.596  1.00  0.00    -0.259 OA
BRANCH  25  27
HETATM   27  C   UNL     1      42.331 -17.193   3.246  1.00  0.00     0.061 A 
HETATM   28  C   UNL     1      42.895 -16.584   2.122  1.00  0.00     0.050 A 
HETATM   29 CL   UNL     1      42.475 -14.985   1.627  1.00  0.00    -0.083 Cl
HETATM   30  C   UNL     1      43.836 -17.283   1.363  1.00  0.00     0.025 A 
HETATM   31  C   UNL     1      44.211 -18.578   1.731  1.00  0.00     0.002 A 
HETATM   32  C   UNL     1      43.652 -19.178   2.860  1.00  0.00     0.001 A 
HETATM   33  C   UNL     1      42.711 -18.486   3.624  1.00  0.00     0.019 A 
ENDBRANCH  25  27
ENDBRANCH  24  25
ENDBRANCH  19  24
ENDBRANCH   9  16
BRANCH  11  34
HETATM   34  O   UNL     1      44.851 -12.957  11.558  1.00  0.00    -0.344 OA
HETATM   35  H   UNL     1      44.219 -13.649  11.825  1.00  0.00     0.219 HD
ENDBRANCH  11  34
BRANCH   1  36
HETATM   36  C   UNL     1      41.750  -8.570  13.429  1.00  0.00     0.231 C 
HETATM   37  C   UNL     1      42.154  -8.837  14.867  1.00  0.00     0.034 C 
ENDBRANCH   1  36
TORSDOF 7
ENDMDL
MODEL 4
REMARK VINA RESULT:      -8.2      1.860      2.369
REMARK  7 active torsions:
REMARK  status: ('A' for Active; 'I' for Inactive)
REMARK    1  A    between atoms: C_2  and  N_3 
REMARK    2  A    between atoms: C_11  and  C_12 
REMARK    3  A    between atoms: C_14  and  O_15 
REMARK    4  A    between atoms: C_17  and  O_18 
REMARK    5  A    between atoms: O_18  and  C_19 
REMARK    6  A    between atoms: C_19  and  C_20 
REMARK    7  A    between atoms: C_31  and  O_32 
ROOT
HETATM    1  N   UNL     1      38.675 -12.668  -3.887  1.00  0.00    -0.067 N 
HETATM    2  H   UNL     1      38.600 -13.174  -4.778  1.00  0.00     0.280 HD
HETATM    3  C   UNL     1      40.164 -12.689  -3.527  1.00  0.00     0.281 C 
HETATM    4  C   UNL     1      40.367 -12.391  -2.082  1.00  0.00     0.018 A 
HETATM    5  C   UNL     1      39.383 -12.455  -1.107  1.00  0.00    -0.024 A 
HETATM    6  C   UNL     1      39.907 -12.089   0.172  1.00  0.00     0.057 A 
HETATM    7  C   UNL     1      41.251 -11.820   0.110  1.00  0.00     0.087 A 
HETATM    8  N   UNL     1      41.964 -11.473   1.198  1.00  0.00    -0.357 N 
HETATM    9  C   UNL     1      41.375 -11.774   2.500  1.00  0.00     0.243 C 
HETATM   10  N   UNL     1      39.898 -11.798   2.573  1.00  0.00    -0.235 NA
HETATM   11  C   UNL     1      39.281 -11.964   1.461  1.00  0.00     0.173 C 
HETATM   12  S   UNL     1      41.887 -11.955  -1.456  1.00  0.00    -0.074 SA
HETATM   13  C   UNL     1      37.974 -12.844  -1.444  1.00  0.00     0.068 C 
HETATM   14  C   UNL     1      37.879 -13.464  -2.851  1.00  0.00     0.240 C 
HETATM   15  H   UNL     1      42.978 -11.526   1.162  1.00  0.00     0.162 HD
ENDROOT
BRANCH   9  16
HETATM   16  C   UNL     1      42.012 -13.059   3.039  1.00  0.00    -0.012 A 
HETATM   17  C   UNL     1      42.302 -13.225   4.408  1.00  0.00     0.050 A 
HETATM   18  C   UNL     1      42.835 -14.422   4.890  1.00  0.00     0.102 A 
HETATM   19  C   UNL     1      43.028 -15.484   4.002  1.00  0.00     0.112 A 
HETATM   20  C   UNL     1      42.786 -15.337   2.638  1.00  0.00     0.041 A 
HETATM   21  C   UNL     1      42.279 -14.127   2.161  1.00  0.00     0.014 A 
BRANCH  18  22
HETATM   22  O   UNL     1      43.135 -14.645   6.207  1.00  0.00    -0.353 OA
HETATM   23  C   UNL     1      44.390 -14.128   6.638  1.00  0.00     0.210 C 
ENDBRANCH  18  22
BRANCH  19  24
HETATM   24  O   UNL     1      43.553 -16.679   4.512  1.00  0.00    -0.272 OA
BRANCH  24  25
HETATM   25  C   UNL     1      42.656 -17.726   4.515  1.00  0.00     0.300 C 
HETATM   26  O   UNL     1      41.517 -17.771   4.949  1.00  0.00    -0.259 OA
BRANCH  25  27
HETATM   27  C   UNL     1      43.325 -18.853   3.857  1.00  0.00     0.061 A 
HETATM   28  C   UNL     1      44.225 -19.654   4.565  1.00  0.00     0.050 A 
HETATM   29 CL   UNL     1      44.602 -19.377   6.225  1.00  0.00    -0.083 Cl
HETATM   30  C   UNL     1      44.848 -20.722   3.915  1.00  0.00     0.025 A 
HETATM   31  C   UNL     1      44.567 -20.988   2.573  1.00  0.00     0.002 A 
HETATM   32  C   UNL     1      43.659 -20.190   1.874  1.00  0.00     0.001 A 
HETATM   33  C   UNL     1      43.032 -19.121   2.514  1.00  0.00     0.019 A 
ENDBRANCH  25  27
ENDBRANCH  24  25
ENDBRANCH  19  24
ENDBRANCH   9  16
BRANCH  11  34
HETATM   34  O   UNL     1      37.938 -12.033   1.485  1.00  0.00    -0.344 OA
HETATM   35  H   UNL     1      37.713 -12.878   1.916  1.00  0.00     0.219 HD
ENDBRANCH  11  34
BRANCH   1  36
HETATM   36  C   UNL     1      38.182 -11.259  -4.145  1.00  0.00     0.231 C 
HETATM   37  C   UNL     1      39.190 -10.469  -4.959  1.00  0.00     0.034 C 
ENDBRANCH   1  36
TORSDOF 7
ENDMDL
MODEL 5
REMARK VINA RESULT:      -8.0      6.058      9.908
REMARK  7 active torsions:
REMARK  status: ('A' for Active; 'I' for Inactive)
REMARK    1  A    between atoms: C_2  and  N_3 
REMARK    2  A    between atoms: C_11  and  C_12 
REMARK    3  A    between atoms: C_14  and  O_15 
REMARK    4  A    between atoms: C_17  and  O_18 
REMARK    5  A    between atoms: O_18  and  C_19 
REMARK    6  A    between atoms: C_19  and  C_20 
REMARK    7  A    between atoms: C_31  and  O_32 
ROOT
HETATM    1  N   UNL     1      42.897 -17.998   3.286  1.00  0.00    -0.067 N 
HETATM    2  H   UNL     1      43.502 -18.825   3.219  1.00  0.00     0.280 HD
HETATM    3  C   UNL     1      43.849 -16.806   3.428  1.00  0.00     0.281 C 
HETATM    4  C   UNL     1      43.135 -15.615   3.968  1.00  0.00     0.018 A 
HETATM    5  C   UNL     1      41.906 -15.644   4.609  1.00  0.00    -0.024 A 
HETATM    6  C   UNL     1      41.496 -14.326   4.985  1.00  0.00     0.057 A 
HETATM    7  C   UNL     1      42.443 -13.389   4.659  1.00  0.00     0.087 A 
HETATM    8  N   UNL     1      42.283 -12.081   4.936  1.00  0.00    -0.357 N 
HETATM    9  C   UNL     1      41.276 -11.733   5.936  1.00  0.00     0.243 C 
HETATM   10  N   UNL     1      40.126 -12.653   6.070  1.00  0.00    -0.235 NA
HETATM   11  C   UNL     1      40.301 -13.843   5.624  1.00  0.00     0.173 C 
HETATM   12  S   UNL     1      43.793 -14.049   3.875  1.00  0.00    -0.074 SA
HETATM   13  C   UNL     1      41.164 -16.930   4.817  1.00  0.00     0.068 C 
HETATM   14  C   UNL     1      42.065 -18.152   4.561  1.00  0.00     0.240 C 
HETATM   15  H   UNL     1      43.092 -11.468   4.909  1.00  0.00     0.162 HD
ENDROOT
BRANCH   9  16
HETATM   16  C   UNL     1      41.982 -11.474   7.270  1.00  0.00    -0.012 A 
HETATM   17  C   UNL     1      43.198 -12.105   7.601  1.00  0.00     0.050 A 
HETATM   18  C   UNL     1      43.854 -11.818   8.800  1.00  0.00     0.102 A 
HETATM   19  C   UNL     1      43.317 -10.849   9.652  1.00  0.00     0.112 A 
HETATM   20  C   UNL     1      42.097 -10.237   9.369  1.00  0.00     0.041 A 
HETATM   21  C   UNL     1      41.435 -10.550   8.181  1.00  0.00     0.014 A 
BRANCH  18  22
HETATM   22  O   UNL     1      45.037 -12.395   9.176  1.00  0.00    -0.353 OA
HETATM   23  C   UNL     1      46.039 -12.432   8.165  1.00  0.00     0.210 C 
ENDBRANCH  18  22
BRANCH  19  24
HETATM   24  O   UNL     1      43.999 -10.570  10.843  1.00  0.00    -0.272 OA
BRANCH  24  25
HETATM   25  C   UNL     1      43.537 -11.280  11.931  1.00  0.00     0.300 C 
HETATM   26  O   UNL     1      43.656 -12.466  12.192  1.00  0.00    -0.259 OA
BRANCH  25  27
HETATM   27  C   UNL     1      42.843 -10.319  12.794  1.00  0.00     0.061 A 
HETATM   28  C   UNL     1      41.468 -10.429  13.016  1.00  0.00     0.050 A 
HETATM   29 CL   UNL     1      40.513 -11.679  12.305  1.00  0.00    -0.083 Cl
HETATM   30  C   UNL     1      40.832  -9.502  13.844  1.00  0.00     0.025 A 
HETATM   31  C   UNL     1      41.567  -8.478  14.447  1.00  0.00     0.002 A 
HETATM   32  C   UNL     1      42.942  -8.379  14.229  1.00  0.00     0.001 A 
HETATM   33  C   UNL     1      43.586  -9.300  13.403  1.00  0.00     0.019 A 
ENDBRANCH  25  27
ENDBRANCH  24  25
ENDBRANCH  19  24
ENDBRANCH   9  16
BRANCH  11  34
HETATM   34  O   UNL     1      39.296 -14.726   5.762  1.00  0.00    -0.344 OA
HETATM   35  H   UNL     1      38.500 -14.207   5.976  1.00  0.00     0.219 HD
ENDBRANCH  11  34
BRANCH   1  36
HETATM   36  C   UNL     1      42.107 -17.930   1.996  1.00  0.00     0.231 C 
HETATM   37  C   UNL     1      42.891 -17.216   0.911  1.00  0.00     0.034 C 
ENDBRANCH   1  36
TORSDOF 7
ENDMDL
MODEL 6
REMARK VINA RESULT:      -8.0      1.524      2.202
REMARK  7 active torsions:
REMARK  status: ('A' for Active; 'I' for Inactive)
REMARK    1  A    between atoms: C_2  and  N_3 
REMARK    2  A    between atoms: C_11  and  C_12 
REMARK    3  A    between atoms: C_14  and  O_15 
REMARK    4  A    between atoms: C_17  and  O_18 
REMARK    5  A    between atoms: O_18  and  C_19 
REMARK    6  A    between atoms: C_19  and  C_20 
REMARK    7  A    between atoms: C_31  and  O_32 
ROOT
HETATM    1  N   UNL     1      39.518 -11.621  -4.254  1.00  0.00    -0.067 N 
HETATM    2  H   UNL     1      39.539 -11.930  -5.234  1.00  0.00     0.280 HD
HETATM    3  C   UNL     1      40.931 -11.864  -3.717  1.00  0.00     0.281 C 
HETATM    4  C   UNL     1      40.940 -11.880  -2.228  1.00  0.00     0.018 A 
HETATM    5  C   UNL     1      39.820 -12.037  -1.424  1.00  0.00    -0.024 A 
HETATM    6  C   UNL     1      40.175 -11.986  -0.039  1.00  0.00     0.057 A 
HETATM    7  C   UNL     1      41.528 -11.848   0.132  1.00  0.00     0.087 A 
HETATM    8  N   UNL     1      42.096 -11.798   1.351  1.00  0.00    -0.357 N 
HETATM    9  C   UNL     1      41.301 -12.290   2.473  1.00  0.00     0.243 C 
HETATM   10  N   UNL     1      39.831 -12.178   2.347  1.00  0.00    -0.235 NA
HETATM   11  C   UNL     1      39.375 -12.057   1.155  1.00  0.00     0.173 C 
HETATM   12  S   UNL     1      42.378 -11.734  -1.331  1.00  0.00    -0.074 SA
HETATM   13  C   UNL     1      38.452 -12.207  -2.015  1.00  0.00     0.068 C 
HETATM   14  C   UNL     1      38.522 -12.522  -3.521  1.00  0.00     0.240 C 
HETATM   15  H   UNL     1      43.097 -11.945   1.437  1.00  0.00     0.162 HD
ENDROOT
BRANCH   9  16
HETATM   16  C   UNL     1      41.756 -13.714   2.808  1.00  0.00    -0.012 A 
HETATM   17  C   UNL     1      40.990 -14.841   2.450  1.00  0.00     0.050 A 
HETATM   18  C   UNL     1      41.445 -16.134   2.717  1.00  0.00     0.102 A 
HETATM   19  C   UNL     1      42.705 -16.303   3.297  1.00  0.00     0.112 A 
HETATM   20  C   UNL     1      43.468 -15.207   3.696  1.00  0.00     0.041 A 
HETATM   21  C   UNL     1      42.993 -13.918   3.450  1.00  0.00     0.014 A 
BRANCH  18  22
HETATM   22  O   UNL     1      40.748 -17.267   2.392  1.00  0.00    -0.353 OA
HETATM   23  C   UNL     1      40.772 -17.616   1.011  1.00  0.00     0.210 C 
ENDBRANCH  18  22
BRANCH  19  24
HETATM   24  O   UNL     1      43.145 -17.610   3.544  1.00  0.00    -0.272 OA
BRANCH  24  25
HETATM   25  C   UNL     1      43.965 -18.118   2.560  1.00  0.00     0.300 C 
HETATM   26  O   UNL     1      44.482 -17.552   1.611  1.00  0.00    -0.259 OA
BRANCH  25  27
HETATM   27  C   UNL     1      44.146 -19.542   2.859  1.00  0.00     0.061 A 
HETATM   28  C   UNL     1      44.655 -19.948   4.096  1.00  0.00     0.050 A 
HETATM   29 CL   UNL     1      45.093 -18.824   5.329  1.00  0.00    -0.083 Cl
HETATM   30  C   UNL     1      44.817 -21.310   4.356  1.00  0.00     0.025 A 
HETATM   31  C   UNL     1      44.468 -22.256   3.389  1.00  0.00     0.002 A 
HETATM   32  C   UNL     1      43.951 -21.846   2.159  1.00  0.00     0.001 A 
HETATM   33  C   UNL     1      43.786 -20.487   1.889  1.00  0.00     0.019 A 
ENDBRANCH  25  27
ENDBRANCH  24  25
ENDBRANCH  19  24
ENDBRANCH   9  16
BRANCH  11  34
HETATM   34  O   UNL     1      38.042 -11.993   0.989  1.00  0.00    -0.344 OA
HETATM   35  H   UNL     1      37.693 -11.493   1.748  1.00  0.00     0.219 HD
ENDBRANCH  11  34
BRANCH   1  36
HETATM   36  C   UNL     1      39.172 -10.146  -4.272  1.00  0.00     0.231 C 
HETATM   37  C   UNL     1      40.354  -9.314  -4.733  1.00  0.00     0.034 C 
ENDBRANCH   1  36
TORSDOF 7
ENDMDL
MODEL 7
REMARK VINA RESULT:      -7.9      3.802      9.712
REMARK  7 active torsions:
REMARK  status: ('A' for Active; 'I' for Inactive)
REMARK    1  A    between atoms: C_2  and  N_3 
REMARK    2  A    between atoms: C_11  and  C_12 
REMARK    3  A    between atoms: C_14  and  O_15 
REMARK    4  A    between atoms: C_17  and  O_18 
REMARK    5  A    between atoms: O_18  and  C_19 
REMARK    6  A    between atoms: C_19  and  C_20 
REMARK    7  A    between atoms: C_31  and  O_32 
ROOT
HETATM    1  N   UNL     1      44.764 -19.182   5.830  1.00  0.00    -0.067 N 
HETATM    2  H   UNL     1      45.711 -19.511   6.053  1.00  0.00     0.280 HD
HETATM    3  C   UNL     1      44.621 -19.341   4.313  1.00  0.00     0.281 C 
HETATM    4  C   UNL     1      43.496 -18.514   3.795  1.00  0.00     0.018 A 
HETATM    5  C   UNL     1      42.895 -17.466   4.475  1.00  0.00    -0.024 A 
HETATM    6  C   UNL     1      41.834 -16.897   3.702  1.00  0.00     0.057 A 
HETATM    7  C   UNL     1      41.721 -17.501   2.476  1.00  0.00     0.087 A 
HETATM    8  N   UNL     1      40.803 -17.117   1.569  1.00  0.00    -0.357 N 
HETATM    9  C   UNL     1      40.200 -15.799   1.753  1.00  0.00     0.243 C 
HETATM   10  N   UNL     1      40.109 -15.297   3.141  1.00  0.00    -0.235 NA
HETATM   11  C   UNL     1      40.905 -15.837   3.989  1.00  0.00     0.173 C 
HETATM   12  S   UNL     1      42.831 -18.762   2.248  1.00  0.00    -0.074 SA
HETATM   13  C   UNL     1      43.347 -17.065   5.848  1.00  0.00     0.068 C 
HETATM   14  C   UNL     1      44.703 -17.700   6.205  1.00  0.00     0.240 C 
HETATM   15  H   UNL     1      40.911 -17.410   0.602  1.00  0.00     0.162 HD
ENDROOT
BRANCH   9  16
HETATM   16  C   UNL     1      40.894 -14.809   0.813  1.00  0.00    -0.012 A 
HETATM   17  C   UNL     1      40.934 -15.013  -0.581  1.00  0.00     0.050 A 
HETATM   18  C   UNL     1      41.527 -14.074  -1.428  1.00  0.00     0.102 A 
HETATM   19  C   UNL     1      42.035 -12.892  -0.881  1.00  0.00     0.112 A 
HETATM   20  C   UNL     1      42.043 -12.680   0.496  1.00  0.00     0.041 A 
HETATM   21  C   UNL     1      41.473 -13.637   1.338  1.00  0.00     0.014 A 
BRANCH  18  22
HETATM   22  O   UNL     1      41.594 -14.213  -2.789  1.00  0.00    -0.353 OA
HETATM   23  C   UNL     1      40.339 -14.197  -3.461  1.00  0.00     0.210 C 
ENDBRANCH  18  22
BRANCH  19  24
HETATM   24  O   UNL     1      42.613 -11.960  -1.753  1.00  0.00    -0.272 OA
BRANCH  24  25
HETATM   25  C   UNL     1      41.833 -10.846  -1.976  1.00  0.00     0.300 C 
HETATM   26  O   UNL     1      40.797 -10.737  -2.611  1.00  0.00    -0.259 OA
BRANCH  25  27
HETATM   27  C   UNL     1      42.477  -9.734  -1.269  1.00  0.00     0.061 A 
HETATM   28  C   UNL     1      41.830  -9.101  -0.205  1.00  0.00     0.050 A 
HETATM   29 CL   UNL     1      40.263  -9.574   0.339  1.00  0.00    -0.083 Cl
HETATM   30  C   UNL     1      42.466  -8.045   0.453  1.00  0.00     0.025 A 
HETATM   31  C   UNL     1      43.739  -7.633   0.051  1.00  0.00     0.002 A 
HETATM   32  C   UNL     1      44.385  -8.276  -1.007  1.00  0.00     0.001 A 
HETATM   33  C   UNL     1      43.757  -9.331  -1.670  1.00  0.00     0.019 A 
ENDBRANCH  25  27
ENDBRANCH  24  25
ENDBRANCH  19  24
ENDBRANCH   9  16
BRANCH  11  34
HETATM   34  O   UNL     1      40.885 -15.383   5.255  1.00  0.00    -0.344 OA
HETATM   35  H   UNL     1      41.515 -14.640   5.291  1.00  0.00     0.219 HD
ENDBRANCH  11  34
BRANCH   1  36
HETATM   36  C   UNL     1      43.803 -20.083   6.579  1.00  0.00     0.231 C 
HETATM   37  C   UNL     1      44.061 -21.543   6.258  1.00  0.00     0.034 C 
ENDBRANCH   1  36
TORSDOF 7
ENDMDL
MODEL 8
REMARK VINA RESULT:      -7.9      3.781      9.837
REMARK  7 active torsions:
REMARK  status: ('A' for Active; 'I' for Inactive)
REMARK    1  A    between atoms: C_2  and  N_3 
REMARK    2  A    between atoms: C_11  and  C_12 
REMARK    3  A    between atoms: C_14  and  O_15 
REMARK    4  A    between atoms: C_17  and  O_18 
REMARK    5  A    between atoms: O_18  and  C_19 
REMARK    6  A    between atoms: C_19  and  C_20 
REMARK    7  A    between atoms: C_31  and  O_32 
ROOT
HETATM    1  N   UNL     1      45.192 -19.934   5.159  1.00  0.00    -0.067 N 
HETATM    2  H   UNL     1      46.154 -20.255   5.319  1.00  0.00     0.280 HD
HETATM    3  C   UNL     1      45.043 -19.836   3.637  1.00  0.00     0.281 C 
HETATM    4  C   UNL     1      43.878 -18.982   3.270  1.00  0.00     0.018 A 
HETATM    5  C   UNL     1      43.240 -18.093   4.122  1.00  0.00    -0.024 A 
HETATM    6  C   UNL     1      42.148 -17.447   3.460  1.00  0.00     0.057 A 
HETATM    7  C   UNL     1      42.050 -17.836   2.149  1.00  0.00     0.087 A 
HETATM    8  N   UNL     1      41.108 -17.343   1.323  1.00  0.00    -0.357 N 
HETATM    9  C   UNL     1      40.452 -16.103   1.731  1.00  0.00     0.243 C 
HETATM   10  N   UNL     1      40.352 -15.851   3.185  1.00  0.00    -0.235 NA
HETATM   11  C   UNL     1      41.178 -16.493   3.927  1.00  0.00     0.173 C 
HETATM   12  S   UNL     1      43.211 -18.990   1.706  1.00  0.00    -0.074 SA
HETATM   13  C   UNL     1      43.687 -17.915   5.542  1.00  0.00     0.068 C 
HETATM   14  C   UNL     1      45.073 -18.542   5.783  1.00  0.00     0.240 C 
HETATM   15  H   UNL     1      41.220 -17.460   0.320  1.00  0.00     0.162 HD
ENDROOT
BRANCH   9  16
HETATM   16  C   UNL     1      41.095 -14.937   0.975  1.00  0.00    -0.012 A 
HETATM   17  C   UNL     1      41.272 -14.968  -0.423  1.00  0.00     0.050 A 
HETATM   18  C   UNL     1      41.813 -13.875  -1.104  1.00  0.00     0.102 A 
HETATM   19  C   UNL     1      42.128 -12.718  -0.386  1.00  0.00     0.112 A 
HETATM   20  C   UNL     1      41.998 -12.671   1.001  1.00  0.00     0.041 A 
HETATM   21  C   UNL     1      41.483 -13.779   1.676  1.00  0.00     0.014 A 
BRANCH  18  22
HETATM   22  O   UNL     1      42.007 -13.843  -2.459  1.00  0.00    -0.353 OA
HETATM   23  C   UNL     1      41.104 -14.642  -3.217  1.00  0.00     0.210 C 
ENDBRANCH  18  22
BRANCH  19  24
HETATM   24  O   UNL     1      42.657 -11.630  -1.093  1.00  0.00    -0.272 OA
BRANCH  24  25
HETATM   25  C   UNL     1      41.753 -10.613  -1.312  1.00  0.00     0.300 C 
HETATM   26  O   UNL     1      41.185  -9.892  -0.508  1.00  0.00    -0.259 OA
BRANCH  25  27
HETATM   27  C   UNL     1      41.577 -10.514  -2.765  1.00  0.00     0.061 A 
HETATM   28  C   UNL     1      40.393 -10.946  -3.366  1.00  0.00     0.050 A 
HETATM   29 CL   UNL     1      39.083 -11.610  -2.460  1.00  0.00    -0.083 Cl
HETATM   30  C   UNL     1      40.250 -10.840  -4.752  1.00  0.00     0.025 A 
HETATM   31  C   UNL     1      41.282 -10.301  -5.524  1.00  0.00     0.002 A 
HETATM   32  C   UNL     1      42.460  -9.862  -4.916  1.00  0.00     0.001 A 
HETATM   33  C   UNL     1      42.611  -9.965  -3.533  1.00  0.00     0.019 A 
ENDBRANCH  25  27
ENDBRANCH  24  25
ENDBRANCH  19  24
ENDBRANCH   9  16
BRANCH  11  34
HETATM   34  O   UNL     1      41.151 -16.264   5.252  1.00  0.00    -0.344 OA
HETATM   35  H   UNL     1      42.019 -16.541   5.598  1.00  0.00     0.219 HD
ENDBRANCH  11  34
BRANCH   1  36
HETATM   36  C   UNL     1      44.278 -20.991   5.743  1.00  0.00     0.231 C 
HETATM   37  C   UNL     1      44.684 -22.379   5.284  1.00  0.00     0.034 C 
ENDBRANCH   1  36
TORSDOF 7
ENDMDL
MODEL 9
REMARK VINA RESULT:      -7.8      3.521      9.490
REMARK  7 active torsions:
REMARK  status: ('A' for Active; 'I' for Inactive)
REMARK    1  A    between atoms: C_2  and  N_3 
REMARK    2  A    between atoms: C_11  and  C_12 
REMARK    3  A    between atoms: C_14  and  O_15 
REMARK    4  A    between atoms: C_17  and  O_18 
REMARK    5  A    between atoms: O_18  and  C_19 
REMARK    6  A    between atoms: C_19  and  C_20 
REMARK    7  A    between atoms: C_31  and  O_32 
ROOT
HETATM    1  N   UNL     1      44.615 -18.093   6.154  1.00  0.00    -0.067 N 
HETATM    2  H   UNL     1      45.595 -18.390   6.222  1.00  0.00     0.280 HD
HETATM    3  C   UNL     1      44.268 -18.162   4.663  1.00  0.00     0.281 C 
HETATM    4  C   UNL     1      43.050 -17.359   4.362  1.00  0.00     0.018 A 
HETATM    5  C   UNL     1      42.510 -16.386   5.190  1.00  0.00    -0.024 A 
HETATM    6  C   UNL     1      41.330 -15.821   4.611  1.00  0.00     0.057 A 
HETATM    7  C   UNL     1      41.071 -16.350   3.373  1.00  0.00     0.087 A 
HETATM    8  N   UNL     1      40.021 -15.954   2.628  1.00  0.00    -0.357 N 
HETATM    9  C   UNL     1      39.399 -14.681   2.984  1.00  0.00     0.243 C 
HETATM   10  N   UNL     1      39.483 -14.274   4.403  1.00  0.00    -0.235 NA
HETATM   11  C   UNL     1      40.409 -14.827   5.096  1.00  0.00     0.173 C 
HETATM   12  S   UNL     1      42.186 -17.540   2.908  1.00  0.00    -0.074 SA
HETATM   13  C   UNL     1      43.133 -16.052   6.512  1.00  0.00     0.068 C 
HETATM   14  C   UNL     1      44.550 -16.642   6.636  1.00  0.00     0.240 C 
HETATM   15  H   UNL     1      40.004 -16.179   1.638  1.00  0.00     0.162 HD
ENDROOT
BRANCH   9  16
HETATM   16  C   UNL     1      39.916 -13.601   2.030  1.00  0.00    -0.012 A 
HETATM   17  C   UNL     1      39.468 -13.513   0.697  1.00  0.00     0.050 A 
HETATM   18  C   UNL     1      39.912 -12.491  -0.145  1.00  0.00     0.102 A 
HETATM   19  C   UNL     1      40.768 -11.513   0.368  1.00  0.00     0.112 A 
HETATM   20  C   UNL     1      41.257 -11.595   1.671  1.00  0.00     0.041 A 
HETATM   21  C   UNL     1      40.829 -12.636   2.497  1.00  0.00     0.014 A 
BRANCH  18  22
HETATM   22  O   UNL     1      39.512 -12.351  -1.447  1.00  0.00    -0.353 OA
HETATM   23  C   UNL     1      38.639 -13.371  -1.924  1.00  0.00     0.210 C 
ENDBRANCH  18  22
BRANCH  19  24
HETATM   24  O   UNL     1      41.189 -10.491  -0.492  1.00  0.00    -0.272 OA
BRANCH  24  25
HETATM   25  C   UNL     1      42.476 -10.650  -0.960  1.00  0.00     0.300 C 
HETATM   26  O   UNL     1      43.496 -10.925  -0.350  1.00  0.00    -0.259 OA
BRANCH  25  27
HETATM   27  C   UNL     1      42.423 -10.438  -2.410  1.00  0.00     0.061 A 
HETATM   28  C   UNL     1      42.459 -11.524  -3.288  1.00  0.00     0.050 A 
HETATM   29 CL   UNL     1      42.563 -13.156  -2.736  1.00  0.00    -0.083 Cl
HETATM   30  C   UNL     1      42.407 -11.295  -4.664  1.00  0.00     0.025 A 
HETATM   31  C   UNL     1      42.315  -9.990  -5.156  1.00  0.00     0.002 A 
HETATM   32  C   UNL     1      42.270  -8.909  -4.273  1.00  0.00     0.001 A 
HETATM   33  C   UNL     1      42.322  -9.128  -2.897  1.00  0.00     0.019 A 
ENDBRANCH  25  27
ENDBRANCH  24  25
ENDBRANCH  19  24
ENDBRANCH   9  16
BRANCH  11  34
HETATM   34  O   UNL     1      40.549 -14.456   6.380  1.00  0.00    -0.344 OA
HETATM   35  H   UNL     1      41.441 -14.738   6.654  1.00  0.00     0.219 HD
ENDBRANCH  11  34
BRANCH   1  36
HETATM   36  C   UNL     1      43.804 -19.085   6.963  1.00  0.00     0.231 C 
HETATM   37  C   UNL     1      43.905 -20.480   6.375  1.00  0.00     0.034 C 
ENDBRANCH   1  36
TORSDOF 7
ENDMDL
MODEL 10
REMARK VINA RESULT:      -7.7      6.512     10.791
REMARK  7 active torsions:
REMARK  status: ('A' for Active; 'I' for Inactive)
REMARK    1  A    between atoms: C_2  and  N_3 
REMARK    2  A    between atoms: C_11  and  C_12 
REMARK    3  A    between atoms: C_14  and  O_15 
REMARK    4  A    between atoms: C_17  and  O_18 
REMARK    5  A    between atoms: O_18  and  C_19 
REMARK    6  A    between atoms: C_19  and  C_20 
REMARK    7  A    between atoms: C_31  and  O_32 
ROOT
HETATM    1  N   UNL     1      44.191 -17.932   6.718  1.00  0.00    -0.067 N 
HETATM    2  H   UNL     1      44.846 -18.494   7.274  1.00  0.00     0.280 HD
HETATM    3  C   UNL     1      44.818 -16.537   6.631  1.00  0.00     0.281 C 
HETATM    4  C   UNL     1      43.802 -15.520   6.243  1.00  0.00     0.018 A 
HETATM    5  C   UNL     1      42.428 -15.696   6.313  1.00  0.00    -0.024 A 
HETATM    6  C   UNL     1      41.740 -14.531   5.847  1.00  0.00     0.057 A 
HETATM    7  C   UNL     1      42.614 -13.531   5.502  1.00  0.00     0.087 A 
HETATM    8  N   UNL     1      42.193 -12.333   5.055  1.00  0.00    -0.357 N 
HETATM    9  C   UNL     1      40.800 -11.979   5.320  1.00  0.00     0.243 C 
HETATM   10  N   UNL     1      39.839 -13.098   5.427  1.00  0.00    -0.235 NA
HETATM   11  C   UNL     1      40.339 -14.249   5.689  1.00  0.00     0.173 C 
HETATM   12  S   UNL     1      44.240 -13.974   5.685  1.00  0.00    -0.074 SA
HETATM   13  C   UNL     1      41.830 -16.981   6.802  1.00  0.00     0.068 C 
HETATM   14  C   UNL     1      42.879 -17.864   7.502  1.00  0.00     0.240 C 
HETATM   15  H   UNL     1      42.842 -11.552   5.050  1.00  0.00     0.162 HD
ENDROOT
BRANCH   9  16
HETATM   16  C   UNL     1      40.756 -11.046   6.533  1.00  0.00    -0.012 A 
HETATM   17  C   UNL     1      39.746 -10.074   6.685  1.00  0.00     0.050 A 
HETATM   18  C   UNL     1      39.691  -9.266   7.822  1.00  0.00     0.102 A 
HETATM   19  C   UNL     1      40.621  -9.470   8.845  1.00  0.00     0.112 A 
HETATM   20  C   UNL     1      41.653 -10.396   8.707  1.00  0.00     0.041 A 
HETATM   21  C   UNL     1      41.717 -11.181   7.554  1.00  0.00     0.014 A 
BRANCH  18  22
HETATM   22  O   UNL     1      38.735  -8.308   8.028  1.00  0.00    -0.353 OA
HETATM   23  C   UNL     1      38.067  -7.858   6.854  1.00  0.00     0.210 C 
ENDBRANCH  18  22
BRANCH  19  24
HETATM   24  O   UNL     1      40.538  -8.655   9.981  1.00  0.00    -0.272 OA
BRANCH  24  25
HETATM   25  C   UNL     1      40.014  -9.290  11.087  1.00  0.00     0.300 C 
HETATM   26  O   UNL     1      38.902  -9.762  11.257  1.00  0.00    -0.259 OA
BRANCH  25  27
HETATM   27  C   UNL     1      41.081  -9.329  12.092  1.00  0.00     0.061 A 
HETATM   28  C   UNL     1      41.284 -10.474  12.867  1.00  0.00     0.050 A 
HETATM   29 CL   UNL     1      40.314 -11.891  12.696  1.00  0.00    -0.083 Cl
HETATM   30  C   UNL     1      42.307 -10.485  13.818  1.00  0.00     0.025 A 
HETATM   31  C   UNL     1      43.122  -9.363  13.985  1.00  0.00     0.002 A 
HETATM   32  C   UNL     1      42.921  -8.225  13.202  1.00  0.00     0.001 A 
HETATM   33  C   UNL     1      41.901  -8.205  12.250  1.00  0.00     0.019 A 
ENDBRANCH  25  27
ENDBRANCH  24  25
ENDBRANCH  19  24
ENDBRANCH   9  16
BRANCH  11  34
HETATM   34  O   UNL     1      39.497 -15.287   5.837  1.00  0.00    -0.344 OA
HETATM   35  H   UNL     1      38.770 -15.145   5.204  1.00  0.00     0.219 HD
ENDBRANCH  11  34
BRANCH   1  36
HETATM   36  C   UNL     1      44.103 -18.591   5.356  1.00  0.00     0.231 C 
HETATM   37  C   UNL     1      44.385 -20.078   5.449  1.00  0.00     0.034 C 
ENDBRANCH   1  36
TORSDOF 7
ENDMDL
