MODEL 1
REMARK VINA RESULT:      -8.6      0.000      0.000
REMARK  3 active torsions:
REMARK  status: ('A' for Active; 'I' for Inactive)
REMARK    1  A    between atoms: C_3  and  O_4 
REMARK    2  A    between atoms: C_6  and  C_7 
REMARK    3  A    between atoms: N_8  and  N_9 
ROOT
HETATM    1  N   UNL     1      43.638 -15.154   6.164  1.00  0.00    -0.189 N 
HETATM    2  C   UNL     1      43.262 -15.173   4.809  1.00  0.00     0.298 A 
HETATM    3  O   UNL     1      42.859 -14.225   4.143  1.00  0.00    -0.264 OA
HETATM    4  C   UNL     1      43.429 -16.474   4.241  1.00  0.00     0.133 A 
HETATM    5  C   UNL     1      43.968 -17.532   4.913  1.00  0.00     0.103 A 
HETATM    6  N   UNL     1      44.431 -17.443   6.226  1.00  0.00    -0.239 NA
HETATM    7  C   UNL     1      44.239 -16.268   6.752  1.00  0.00     0.239 A 
HETATM    8  N   UNL     1      43.106 -16.901   2.984  1.00  0.00    -0.349 N 
HETATM    9  H   UNL     1      42.697 -16.321   2.263  1.00  0.00     0.166 HD
HETATM   10  C   UNL     1      43.411 -18.244   2.857  1.00  0.00     0.045 A 
HETATM   11  C   UNL     1      43.967 -18.665   4.072  1.00  0.00     0.024 A 
HETATM   12  C   UNL     1      43.240 -19.107   1.767  1.00  0.00     0.032 A 
HETATM   13  C   UNL     1      43.647 -20.436   1.929  1.00  0.00     0.026 A 
HETATM   14  C   UNL     1      44.204 -20.874   3.129  1.00  0.00     0.035 A 
HETATM   15 CL   UNL     1      44.690 -22.520   3.284  1.00  0.00    -0.084 Cl
HETATM   16  C   UNL     1      44.374 -20.006   4.210  1.00  0.00     0.040 A 
ENDROOT
BRANCH   1  17
HETATM   17  N   UNL     1      43.585 -14.021   6.967  1.00  0.00    -0.175 NA
HETATM   18  C   UNL     1      44.638 -13.701   7.649  1.00  0.00     0.150 C 
BRANCH  18  19
HETATM   19  C   UNL     1      44.648 -12.539   8.563  1.00  0.00    -0.014 A 
HETATM   20  C   UNL     1      43.479 -11.789   8.697  1.00  0.00     0.049 A 
HETATM   21  C   UNL     1      43.467 -10.697   9.557  1.00  0.00     0.066 A 
HETATM   22  C   UNL     1      44.600 -10.342  10.283  1.00  0.00     0.036 A 
HETATM   23  C   UNL     1      45.769 -11.095  10.146  1.00  0.00     0.004 A 
HETATM   24  C   UNL     1      45.796 -12.195   9.284  1.00  0.00     0.013 A 
BRANCH  21  25
HETATM   25  O   UNL     1      42.306  -9.989   9.663  1.00  0.00    -0.361 OA
HETATM   26  H   UNL     1      42.462  -9.211  10.224  1.00  0.00     0.217 HD
ENDBRANCH  21  25
ENDBRANCH  18  19
ENDBRANCH   1  17
TORSDOF 3
ENDMDL
MODEL 2
REMARK VINA RESULT:      -8.4      4.734      8.934
REMARK  3 active torsions:
REMARK  status: ('A' for Active; 'I' for Inactive)
REMARK    1  A    between atoms: C_3  and  O_4 
REMARK    2  A    between atoms: C_6  and  C_7 
REMARK    3  A    between atoms: N_8  and  N_9 
ROOT
HETATM    1  N   UNL     1      42.045 -16.703   4.786  1.00  0.00    -0.189 N 
HETATM    2  C   UNL     1      41.100 -16.300   5.747  1.00  0.00     0.298 A 
HETATM    3  O   UNL     1      40.491 -17.023   6.530  1.00  0.00    -0.264 OA
HETATM    4  C   UNL     1      40.925 -14.882   5.741  1.00  0.00     0.133 A 
HETATM    5  C   UNL     1      41.651 -14.030   4.961  1.00  0.00     0.103 A 
HETATM    6  N   UNL     1      42.658 -14.462   4.098  1.00  0.00    -0.239 NA
HETATM    7  C   UNL     1      42.786 -15.758   4.076  1.00  0.00     0.239 A 
HETATM    8  N   UNL     1      40.050 -14.130   6.474  1.00  0.00    -0.349 N 
HETATM    9  H   UNL     1      39.392 -14.501   7.147  1.00  0.00     0.166 HD
HETATM   10  C   UNL     1      40.193 -12.795   6.142  1.00  0.00     0.045 A 
HETATM   11  C   UNL     1      41.212 -12.709   5.184  1.00  0.00     0.024 A 
HETATM   12  C   UNL     1      39.506 -11.671   6.615  1.00  0.00     0.032 A 
HETATM   13  C   UNL     1      39.871 -10.426   6.091  1.00  0.00     0.026 A 
HETATM   14  C   UNL     1      40.884 -10.318   5.139  1.00  0.00     0.035 A 
HETATM   15 CL   UNL     1      41.299  -8.764   4.521  1.00  0.00    -0.084 Cl
HETATM   16  C   UNL     1      41.567 -11.444   4.675  1.00  0.00     0.040 A 
ENDROOT
BRANCH   1  17
HETATM   17  N   UNL     1      42.419 -18.025   4.573  1.00  0.00    -0.175 NA
HETATM   18  C   UNL     1      43.344 -18.269   3.701  1.00  0.00     0.150 C 
BRANCH  18  19
HETATM   19  C   UNL     1      43.766 -19.649   3.381  1.00  0.00    -0.014 A 
HETATM   20  C   UNL     1      44.388 -20.402   4.379  1.00  0.00     0.049 A 
HETATM   21  C   UNL     1      44.785 -21.704   4.099  1.00  0.00     0.066 A 
HETATM   22  C   UNL     1      44.574 -22.266   2.843  1.00  0.00     0.036 A 
HETATM   23  C   UNL     1      43.952 -21.509   1.847  1.00  0.00     0.004 A 
HETATM   24  C   UNL     1      43.547 -20.198   2.114  1.00  0.00     0.013 A 
BRANCH  21  25
HETATM   25  O   UNL     1      45.388 -22.409   5.099  1.00  0.00    -0.361 OA
HETATM   26  H   UNL     1      45.985 -23.066   4.705  1.00  0.00     0.217 HD
ENDBRANCH  21  25
ENDBRANCH  18  19
ENDBRANCH   1  17
TORSDOF 3
ENDMDL
MODEL 3
REMARK VINA RESULT:      -8.1      4.614      6.567
REMARK  3 active torsions:
REMARK  status: ('A' for Active; 'I' for Inactive)
REMARK    1  A    between atoms: C_3  and  O_4 
REMARK    2  A    between atoms: C_6  and  C_7 
REMARK    3  A    between atoms: N_8  and  N_9 
ROOT
HETATM    1  N   UNL     1      40.528 -15.317   2.935  1.00  0.00    -0.189 N 
HETATM    2  C   UNL     1      41.342 -15.592   4.048  1.00  0.00     0.298 A 
HETATM    3  O   UNL     1      41.422 -14.936   5.083  1.00  0.00    -0.264 OA
HETATM    4  C   UNL     1      42.094 -16.792   3.859  1.00  0.00     0.133 A 
HETATM    5  C   UNL     1      41.965 -17.606   2.773  1.00  0.00     0.103 A 
HETATM    6  N   UNL     1      41.063 -17.355   1.738  1.00  0.00    -0.239 NA
HETATM    7  C   UNL     1      40.411 -16.239   1.894  1.00  0.00     0.239 A 
HETATM    8  N   UNL     1      43.039 -17.342   4.679  1.00  0.00    -0.349 N 
HETATM    9  H   UNL     1      43.332 -16.953   5.567  1.00  0.00     0.166 HD
HETATM   10  C   UNL     1      43.539 -18.496   4.105  1.00  0.00     0.045 A 
HETATM   11  C   UNL     1      42.864 -18.686   2.892  1.00  0.00     0.024 A 
HETATM   12  C   UNL     1      44.526 -19.376   4.564  1.00  0.00     0.032 A 
HETATM   13  C   UNL     1      44.830 -20.479   3.759  1.00  0.00     0.026 A 
HETATM   14  C   UNL     1      44.169 -20.688   2.549  1.00  0.00     0.035 A 
HETATM   15 CL   UNL     1      44.577 -22.060   1.589  1.00  0.00    -0.084 Cl
HETATM   16  C   UNL     1      43.183 -19.806   2.100  1.00  0.00     0.040 A 
ENDROOT
BRANCH   1  17
HETATM   17  N   UNL     1      39.684 -14.217   2.844  1.00  0.00    -0.175 NA
HETATM   18  C   UNL     1      39.020 -14.041   1.747  1.00  0.00     0.150 C 
BRANCH  18  19
HETATM   19  C   UNL     1      38.138 -12.871   1.551  1.00  0.00    -0.014 A 
HETATM   20  C   UNL     1      38.335 -11.748   2.358  1.00  0.00     0.049 A 
HETATM   21  C   UNL     1      37.521 -10.635   2.184  1.00  0.00     0.066 A 
HETATM   22  C   UNL     1      36.515 -10.624   1.222  1.00  0.00     0.036 A 
HETATM   23  C   UNL     1      36.320 -11.749   0.417  1.00  0.00     0.004 A 
HETATM   24  C   UNL     1      37.131 -12.876   0.581  1.00  0.00     0.013 A 
BRANCH  21  25
HETATM   25  O   UNL     1      37.744  -9.557   2.989  1.00  0.00    -0.361 OA
HETATM   26  H   UNL     1      38.164  -9.861   3.812  1.00  0.00     0.217 HD
ENDBRANCH  21  25
ENDBRANCH  18  19
ENDBRANCH   1  17
TORSDOF 3
ENDMDL
MODEL 4
REMARK VINA RESULT:      -8.1      5.268      7.370
REMARK  3 active torsions:
REMARK  status: ('A' for Active; 'I' for Inactive)
REMARK    1  A    between atoms: C_3  and  O_4 
REMARK    2  A    between atoms: C_6  and  C_7 
REMARK    3  A    between atoms: N_8  and  N_9 
ROOT
HETATM    1  N   UNL     1      41.916 -16.224   2.464  1.00  0.00    -0.189 N 
HETATM    2  C   UNL     1      41.322 -16.745   1.300  1.00  0.00     0.298 A 
HETATM    3  O   UNL     1      40.815 -17.855   1.166  1.00  0.00    -0.264 OA
HETATM    4  C   UNL     1      41.344 -15.794   0.234  1.00  0.00     0.133 A 
HETATM    5  C   UNL     1      41.804 -14.516   0.366  1.00  0.00     0.103 A 
HETATM    6  N   UNL     1      42.286 -14.002   1.570  1.00  0.00    -0.239 NA
HETATM    7  C   UNL     1      42.303 -14.884   2.527  1.00  0.00     0.239 A 
HETATM    8  N   UNL     1      40.931 -15.955  -1.058  1.00  0.00    -0.349 N 
HETATM    9  H   UNL     1      40.532 -16.805  -1.436  1.00  0.00     0.166 HD
HETATM   10  C   UNL     1      41.153 -14.788  -1.766  1.00  0.00     0.045 A 
HETATM   11  C   UNL     1      41.704 -13.857  -0.877  1.00  0.00     0.024 A 
HETATM   12  C   UNL     1      40.908 -14.492  -3.113  1.00  0.00     0.032 A 
HETATM   13  C   UNL     1      41.238 -13.208  -3.559  1.00  0.00     0.026 A 
HETATM   14  C   UNL     1      41.786 -12.265  -2.690  1.00  0.00     0.035 A 
HETATM   15 CL   UNL     1      42.178 -10.695  -3.283  1.00  0.00    -0.084 Cl
HETATM   16  C   UNL     1      42.023 -12.568  -1.347  1.00  0.00     0.040 A 
ENDROOT
BRANCH   1  17
HETATM   17  N   UNL     1      42.029 -16.926   3.658  1.00  0.00    -0.175 NA
HETATM   18  C   UNL     1      43.207 -17.070   4.176  1.00  0.00     0.150 C 
BRANCH  18  19
HETATM   19  C   UNL     1      43.420 -17.843   5.418  1.00  0.00    -0.014 A 
HETATM   20  C   UNL     1      43.359 -17.168   6.639  1.00  0.00     0.049 A 
HETATM   21  C   UNL     1      43.550 -17.878   7.819  1.00  0.00     0.066 A 
HETATM   22  C   UNL     1      43.800 -19.247   7.800  1.00  0.00     0.036 A 
HETATM   23  C   UNL     1      43.860 -19.919   6.577  1.00  0.00     0.004 A 
HETATM   24  C   UNL     1      43.671 -19.218   5.383  1.00  0.00     0.013 A 
BRANCH  21  25
HETATM   25  O   UNL     1      43.482 -17.185   8.991  1.00  0.00    -0.361 OA
HETATM   26  H   UNL     1      43.197 -17.788   9.697  1.00  0.00     0.217 HD
ENDBRANCH  21  25
ENDBRANCH  18  19
ENDBRANCH   1  17
TORSDOF 3
ENDMDL
MODEL 5
REMARK VINA RESULT:      -8.1      5.531      9.201
REMARK  3 active torsions:
REMARK  status: ('A' for Active; 'I' for Inactive)
REMARK    1  A    between atoms: C_3  and  O_4 
REMARK    2  A    between atoms: C_6  and  C_7 
REMARK    3  A    between atoms: N_8  and  N_9 
ROOT
HETATM    1  N   UNL     1      40.998 -16.285   3.237  1.00  0.00    -0.189 N 
HETATM    2  C   UNL     1      41.063 -15.049   3.906  1.00  0.00     0.298 A 
HETATM    3  O   UNL     1      41.792 -14.760   4.849  1.00  0.00    -0.264 OA
HETATM    4  C   UNL     1      40.163 -14.100   3.330  1.00  0.00     0.133 A 
HETATM    5  C   UNL     1      39.409 -14.343   2.220  1.00  0.00     0.103 A 
HETATM    6  N   UNL     1      39.455 -15.549   1.520  1.00  0.00    -0.239 NA
HETATM    7  C   UNL     1      40.244 -16.426   2.072  1.00  0.00     0.239 A 
HETATM    8  N   UNL     1      39.892 -12.826   3.745  1.00  0.00    -0.349 N 
HETATM    9  H   UNL     1      40.319 -12.374   4.543  1.00  0.00     0.166 HD
HETATM   10  C   UNL     1      38.939 -12.261   2.917  1.00  0.00     0.045 A 
HETATM   11  C   UNL     1      38.622 -13.209   1.936  1.00  0.00     0.024 A 
HETATM   12  C   UNL     1      38.343 -10.994   2.964  1.00  0.00     0.032 A 
HETATM   13  C   UNL     1      37.396 -10.693   1.979  1.00  0.00     0.026 A 
HETATM   14  C   UNL     1      37.067 -11.621   0.992  1.00  0.00     0.035 A 
HETATM   15 CL   UNL     1      35.893 -11.207  -0.200  1.00  0.00    -0.084 Cl
HETATM   16  C   UNL     1      37.669 -12.881   0.952  1.00  0.00     0.040 A 
ENDROOT
BRANCH   1  17
HETATM   17  N   UNL     1      41.766 -17.392   3.578  1.00  0.00    -0.175 NA
HETATM   18  C   UNL     1      42.520 -17.921   2.669  1.00  0.00     0.150 C 
BRANCH  18  19
HETATM   19  C   UNL     1      43.331 -19.128   2.937  1.00  0.00    -0.014 A 
HETATM   20  C   UNL     1      43.348 -20.143   1.978  1.00  0.00     0.049 A 
HETATM   21  C   UNL     1      44.110 -21.282   2.209  1.00  0.00     0.066 A 
HETATM   22  C   UNL     1      44.854 -21.425   3.377  1.00  0.00     0.036 A 
HETATM   23  C   UNL     1      44.834 -20.407   4.334  1.00  0.00     0.004 A 
HETATM   24  C   UNL     1      44.072 -19.257   4.116  1.00  0.00     0.013 A 
BRANCH  21  25
HETATM   25  O   UNL     1      44.103 -22.252   1.249  1.00  0.00    -0.361 OA
HETATM   26  H   UNL     1      43.264 -22.204   0.761  1.00  0.00     0.217 HD
ENDBRANCH  21  25
ENDBRANCH  18  19
ENDBRANCH   1  17
TORSDOF 3
ENDMDL
MODEL 6
REMARK VINA RESULT:      -8.0      6.219      9.293
REMARK  3 active torsions:
REMARK  status: ('A' for Active; 'I' for Inactive)
REMARK    1  A    between atoms: C_3  and  O_4 
REMARK    2  A    between atoms: C_6  and  C_7 
REMARK    3  A    between atoms: N_8  and  N_9 
ROOT
HETATM    1  N   UNL     1      41.342 -16.246   1.897  1.00  0.00    -0.189 N 
HETATM    2  C   UNL     1      40.437 -15.367   2.519  1.00  0.00     0.298 A 
HETATM    3  O   UNL     1      40.244 -15.240   3.725  1.00  0.00    -0.264 OA
HETATM    4  C   UNL     1      39.741 -14.572   1.558  1.00  0.00     0.133 A 
HETATM    5  C   UNL     1      39.993 -14.606   0.218  1.00  0.00     0.103 A 
HETATM    6  N   UNL     1      40.978 -15.415  -0.350  1.00  0.00    -0.239 NA
HETATM    7  C   UNL     1      41.581 -16.168   0.525  1.00  0.00     0.239 A 
HETATM    8  N   UNL     1      38.741 -13.664   1.769  1.00  0.00    -0.349 N 
HETATM    9  H   UNL     1      38.357 -13.426   2.674  1.00  0.00     0.166 HD
HETATM   10  C   UNL     1      38.330 -13.136   0.559  1.00  0.00     0.045 A 
HETATM   11  C   UNL     1      39.119 -13.718  -0.442  1.00  0.00     0.024 A 
HETATM   12  C   UNL     1      37.331 -12.195   0.280  1.00  0.00     0.032 A 
HETATM   13  C   UNL     1      37.134 -11.843  -1.060  1.00  0.00     0.026 A 
HETATM   14  C   UNL     1      37.910 -12.410  -2.071  1.00  0.00     0.035 A 
HETATM   15 CL   UNL     1      37.631 -11.948  -3.708  1.00  0.00    -0.084 Cl
HETATM   16  C   UNL     1      38.906 -13.345  -1.784  1.00  0.00     0.040 A 
ENDROOT
BRANCH   1  17
HETATM   17  N   UNL     1      42.158 -17.135   2.587  1.00  0.00    -0.175 NA
HETATM   18  C   UNL     1      42.535 -18.217   1.985  1.00  0.00     0.150 C 
BRANCH  18  19
HETATM   19  C   UNL     1      43.364 -19.236   2.663  1.00  0.00    -0.014 A 
HETATM   20  C   UNL     1      43.607 -20.442   2.003  1.00  0.00     0.049 A 
HETATM   21  C   UNL     1      44.390 -21.409   2.621  1.00  0.00     0.066 A 
HETATM   22  C   UNL     1      44.932 -21.194   3.885  1.00  0.00     0.036 A 
HETATM   23  C   UNL     1      44.686 -19.987   4.543  1.00  0.00     0.004 A 
HETATM   24  C   UNL     1      43.900 -19.005   3.934  1.00  0.00     0.013 A 
BRANCH  21  25
HETATM   25  O   UNL     1      44.607 -22.574   1.944  1.00  0.00    -0.361 OA
HETATM   26  H   UNL     1      44.068 -22.572   1.136  1.00  0.00     0.217 HD
ENDBRANCH  21  25
ENDBRANCH  18  19
ENDBRANCH   1  17
TORSDOF 3
ENDMDL
MODEL 7
REMARK VINA RESULT:      -8.0      6.472      9.245
REMARK  3 active torsions:
REMARK  status: ('A' for Active; 'I' for Inactive)
REMARK    1  A    between atoms: C_3  and  O_4 
REMARK    2  A    between atoms: C_6  and  C_7 
REMARK    3  A    between atoms: N_8  and  N_9 
ROOT
HETATM    1  N   UNL     1      41.410 -16.164   2.036  1.00  0.00    -0.189 N 
HETATM    2  C   UNL     1      41.287 -15.945   0.652  1.00  0.00     0.298 A 
HETATM    3  O   UNL     1      41.951 -16.466  -0.238  1.00  0.00    -0.264 OA
HETATM    4  C   UNL     1      40.234 -15.023   0.363  1.00  0.00     0.133 A 
HETATM    5  C   UNL     1      39.404 -14.497   1.309  1.00  0.00     0.103 A 
HETATM    6  N   UNL     1      39.490 -14.825   2.663  1.00  0.00    -0.239 NA
HETATM    7  C   UNL     1      40.477 -15.632   2.927  1.00  0.00     0.239 A 
HETATM    8  N   UNL     1      39.860 -14.511  -0.848  1.00  0.00    -0.349 N 
HETATM    9  H   UNL     1      40.297 -14.738  -1.731  1.00  0.00     0.166 HD
HETATM   10  C   UNL     1      38.807 -13.632  -0.675  1.00  0.00     0.045 A 
HETATM   11  C   UNL     1      38.496 -13.612   0.691  1.00  0.00     0.024 A 
HETATM   12  C   UNL     1      38.112 -12.862  -1.617  1.00  0.00     0.032 A 
HETATM   13  C   UNL     1      37.075 -12.050  -1.146  1.00  0.00     0.026 A 
HETATM   14  C   UNL     1      36.749 -12.018   0.210  1.00  0.00     0.035 A 
HETATM   15 CL   UNL     1      35.464 -11.002   0.746  1.00  0.00    -0.084 Cl
HETATM   16  C   UNL     1      37.444 -12.791   1.142  1.00  0.00     0.040 A 
ENDROOT
BRANCH   1  17
HETATM   17  N   UNL     1      42.348 -17.017   2.605  1.00  0.00    -0.175 NA
HETATM   18  C   UNL     1      42.347 -18.260   2.245  1.00  0.00     0.150 C 
BRANCH  18  19
HETATM   19  C   UNL     1      43.280 -19.241   2.838  1.00  0.00    -0.014 A 
HETATM   20  C   UNL     1      43.509 -20.437   2.154  1.00  0.00     0.049 A 
HETATM   21  C   UNL     1      44.389 -21.370   2.692  1.00  0.00     0.066 A 
HETATM   22  C   UNL     1      45.042 -21.129   3.897  1.00  0.00     0.036 A 
HETATM   23  C   UNL     1      44.810 -19.932   4.579  1.00  0.00     0.004 A 
HETATM   24  C   UNL     1      43.928 -18.986   4.051  1.00  0.00     0.013 A 
BRANCH  21  25
HETATM   25  O   UNL     1      44.587 -22.525   1.995  1.00  0.00    -0.361 OA
HETATM   26  H   UNL     1      44.960 -22.307   1.125  1.00  0.00     0.217 HD
ENDBRANCH  21  25
ENDBRANCH  18  19
ENDBRANCH   1  17
TORSDOF 3
ENDMDL
MODEL 8
REMARK VINA RESULT:      -7.9      4.978      7.936
REMARK  3 active torsions:
REMARK  status: ('A' for Active; 'I' for Inactive)
REMARK    1  A    between atoms: C_3  and  O_4 
REMARK    2  A    between atoms: C_6  and  C_7 
REMARK    3  A    between atoms: N_8  and  N_9 
ROOT
HETATM    1  N   UNL     1      42.387 -16.020   1.388  1.00  0.00    -0.189 N 
HETATM    2  C   UNL     1      42.036 -15.972   2.749  1.00  0.00     0.298 A 
HETATM    3  O   UNL     1      41.348 -15.120   3.303  1.00  0.00    -0.264 OA
HETATM    4  C   UNL     1      42.566 -17.091   3.463  1.00  0.00     0.133 A 
HETATM    5  C   UNL     1      43.248 -18.114   2.872  1.00  0.00     0.103 A 
HETATM    6  N   UNL     1      43.482 -18.178   1.499  1.00  0.00    -0.239 NA
HETATM    7  C   UNL     1      43.034 -17.137   0.859  1.00  0.00     0.239 A 
HETATM    8  N   UNL     1      42.500 -17.355   4.802  1.00  0.00    -0.349 N 
HETATM    9  H   UNL     1      42.040 -16.767   5.485  1.00  0.00     0.166 HD
HETATM   10  C   UNL     1      43.167 -18.534   5.077  1.00  0.00     0.045 A 
HETATM   11  C   UNL     1      43.647 -19.038   3.861  1.00  0.00     0.024 A 
HETATM   12  C   UNL     1      43.377 -19.186   6.299  1.00  0.00     0.032 A 
HETATM   13  C   UNL     1      44.100 -20.384   6.272  1.00  0.00     0.026 A 
HETATM   14  C   UNL     1      44.584 -20.903   5.072  1.00  0.00     0.035 A 
HETATM   15 CL   UNL     1      45.470 -22.382   5.088  1.00  0.00    -0.084 Cl
HETATM   16  C   UNL     1      44.367 -20.248   3.858  1.00  0.00     0.040 A 
ENDROOT
BRANCH   1  17
HETATM   17  N   UNL     1      42.005 -15.064   0.455  1.00  0.00    -0.175 NA
HETATM   18  C   UNL     1      41.229 -15.428  -0.516  1.00  0.00     0.150 C 
BRANCH  18  19
HETATM   19  C   UNL     1      40.815 -14.484  -1.576  1.00  0.00    -0.014 A 
HETATM   20  C   UNL     1      41.807 -13.870  -2.343  1.00  0.00     0.049 A 
HETATM   21  C   UNL     1      41.437 -12.985  -3.349  1.00  0.00     0.066 A 
HETATM   22  C   UNL     1      40.097 -12.703  -3.601  1.00  0.00     0.036 A 
HETATM   23  C   UNL     1      39.108 -13.319  -2.831  1.00  0.00     0.004 A 
HETATM   24  C   UNL     1      39.465 -14.211  -1.816  1.00  0.00     0.013 A 
BRANCH  21  25
HETATM   25  O   UNL     1      42.433 -12.406  -4.078  1.00  0.00    -0.361 OA
HETATM   26  H   UNL     1      42.535 -11.482  -3.793  1.00  0.00     0.217 HD
ENDBRANCH  21  25
ENDBRANCH  18  19
ENDBRANCH   1  17
TORSDOF 3
ENDMDL
MODEL 9
REMARK VINA RESULT:      -7.9      5.126      8.949
REMARK  3 active torsions:
REMARK  status: ('A' for Active; 'I' for Inactive)
REMARK    1  A    between atoms: C_3  and  O_4 
REMARK    2  A    between atoms: C_6  and  C_7 
REMARK    3  A    between atoms: N_8  and  N_9 
ROOT
HETATM    1  N   UNL     1      41.301 -16.712   4.117  1.00  0.00    -0.189 N 
HETATM    2  C   UNL     1      40.580 -16.027   3.122  1.00  0.00     0.298 A 
HETATM    3  O   UNL     1      40.266 -16.453   2.015  1.00  0.00    -0.264 OA
HETATM    4  C   UNL     1      40.204 -14.720   3.560  1.00  0.00     0.133 A 
HETATM    5  C   UNL     1      40.442 -14.241   4.815  1.00  0.00     0.103 A 
HETATM    6  N   UNL     1      41.066 -14.994   5.810  1.00  0.00    -0.239 NA
HETATM    7  C   UNL     1      41.444 -16.169   5.394  1.00  0.00     0.239 A 
HETATM    8  N   UNL     1      39.563 -13.739   2.856  1.00  0.00    -0.349 N 
HETATM    9  H   UNL     1      39.255 -13.824   1.896  1.00  0.00     0.166 HD
HETATM   10  C   UNL     1      39.416 -12.617   3.651  1.00  0.00     0.045 A 
HETATM   11  C   UNL     1      39.964 -12.918   4.905  1.00  0.00     0.024 A 
HETATM   12  C   UNL     1      38.843 -11.374   3.357  1.00  0.00     0.032 A 
HETATM   13  C   UNL     1      38.833 -10.413   4.374  1.00  0.00     0.026 A 
HETATM   14  C   UNL     1      39.371 -10.692   5.629  1.00  0.00     0.035 A 
HETATM   15 CL   UNL     1      39.338  -9.478   6.852  1.00  0.00    -0.084 Cl
HETATM   16  C   UNL     1      39.938 -11.936   5.915  1.00  0.00     0.040 A 
ENDROOT
BRANCH   1  17
HETATM   17  N   UNL     1      41.790 -18.005   3.969  1.00  0.00    -0.175 NA
HETATM   18  C   UNL     1      42.953 -18.164   3.424  1.00  0.00     0.150 C 
BRANCH  18  19
HETATM   19  C   UNL     1      43.524 -19.507   3.188  1.00  0.00    -0.014 A 
HETATM   20  C   UNL     1      44.212 -20.129   4.232  1.00  0.00     0.049 A 
HETATM   21  C   UNL     1      44.750 -21.395   4.031  1.00  0.00     0.066 A 
HETATM   22  C   UNL     1      44.613 -22.048   2.810  1.00  0.00     0.036 A 
HETATM   23  C   UNL     1      43.925 -21.423   1.768  1.00  0.00     0.004 A 
HETATM   24  C   UNL     1      43.380 -20.150   1.955  1.00  0.00     0.013 A 
BRANCH  21  25
HETATM   25  O   UNL     1      45.414 -21.971   5.075  1.00  0.00    -0.361 OA
HETATM   26  H   UNL     1      44.845 -21.944   5.862  1.00  0.00     0.217 HD
ENDBRANCH  21  25
ENDBRANCH  18  19
ENDBRANCH   1  17
TORSDOF 3
ENDMDL
MODEL 10
REMARK VINA RESULT:      -7.9      2.342      3.355
REMARK  3 active torsions:
REMARK  status: ('A' for Active; 'I' for Inactive)
REMARK    1  A    between atoms: C_3  and  O_4 
REMARK    2  A    between atoms: C_6  and  C_7 
REMARK    3  A    between atoms: N_8  and  N_9 
ROOT
HETATM    1  N   UNL     1      43.270 -15.216   5.470  1.00  0.00    -0.189 N 
HETATM    2  C   UNL     1      43.648 -16.237   6.360  1.00  0.00     0.298 A 
HETATM    3  O   UNL     1      43.788 -16.142   7.575  1.00  0.00    -0.264 OA
HETATM    4  C   UNL     1      43.842 -17.477   5.675  1.00  0.00     0.133 A 
HETATM    5  C   UNL     1      43.601 -17.656   4.344  1.00  0.00     0.103 A 
HETATM    6  N   UNL     1      43.121 -16.641   3.516  1.00  0.00    -0.239 NA
HETATM    7  C   UNL     1      42.986 -15.503   4.135  1.00  0.00     0.239 A 
HETATM    8  N   UNL     1      44.277 -18.669   6.182  1.00  0.00    -0.349 N 
HETATM    9  H   UNL     1      44.521 -18.832   7.151  1.00  0.00     0.166 HD
HETATM   10  C   UNL     1      44.345 -19.608   5.169  1.00  0.00     0.045 A 
HETATM   11  C   UNL     1      43.914 -18.985   3.991  1.00  0.00     0.024 A 
HETATM   12  C   UNL     1      44.751 -20.948   5.208  1.00  0.00     0.032 A 
HETATM   13  C   UNL     1      44.714 -21.666   4.008  1.00  0.00     0.026 A 
HETATM   14  C   UNL     1      44.286 -21.065   2.825  1.00  0.00     0.035 A 
HETATM   15 CL   UNL     1      44.259 -21.989   1.370  1.00  0.00    -0.084 Cl
HETATM   16  C   UNL     1      43.880 -19.729   2.796  1.00  0.00     0.040 A 
ENDROOT
BRANCH   1  17
HETATM   17  N   UNL     1      43.011 -13.907   5.858  1.00  0.00    -0.175 NA
HETATM   18  C   UNL     1      41.965 -13.317   5.373  1.00  0.00     0.150 C 
BRANCH  18  19
HETATM   19  C   UNL     1      41.644 -11.912   5.698  1.00  0.00    -0.014 A 
HETATM   20  C   UNL     1      41.998 -11.423   6.958  1.00  0.00     0.049 A 
HETATM   21  C   UNL     1      41.711 -10.102   7.279  1.00  0.00     0.066 A 
HETATM   22  C   UNL     1      41.078  -9.262   6.367  1.00  0.00     0.036 A 
HETATM   23  C   UNL     1      40.725  -9.754   5.109  1.00  0.00     0.004 A 
HETATM   24  C   UNL     1      41.007 -11.081   4.772  1.00  0.00     0.013 A 
BRANCH  21  25
HETATM   25  O   UNL     1      42.074  -9.661   8.518  1.00  0.00    -0.361 OA
HETATM   26  H   UNL     1      41.841 -10.339   9.173  1.00  0.00     0.217 HD
ENDBRANCH  21  25
ENDBRANCH  18  19
ENDBRANCH   1  17
TORSDOF 3
ENDMDL
