MODEL 1
REMARK VINA RESULT:      -8.2      0.000      0.000
REMARK  9 active torsions:
REMARK  status: ('A' for Active; 'I' for Inactive)
REMARK    1  A    between atoms: C_2  and  N_3 
REMARK    2  A    between atoms: C_4  and  S_5 
REMARK    3  A    between atoms: S_5  and  C_6 
REMARK    4  A    between atoms: C_6  and  C_7 
REMARK       I    between atoms: C_7  and  N_8 
REMARK    5  A    between atoms: N_8  and  C_9 
REMARK    6  A    between atoms: C_9  and  C_10 
REMARK    7  A    between atoms: C_10  and  C_11 
REMARK    8  A    between atoms: C_14  and  O_15 
REMARK    9  A    between atoms: C_22  and  C_23 
ROOT
HETATM    1  C   UNL     1      43.216 -13.726   3.914  1.00  0.00     0.185 C 
ENDROOT
BRANCH   1   2
HETATM    2  S   UNL     1      41.909 -14.710   3.125  1.00  0.00    -0.081 SA
BRANCH   2   3
HETATM    3  C   UNL     1      42.829 -16.100   2.662  1.00  0.00     0.192 A 
HETATM    4  N   UNL     1      42.621 -17.368   3.143  1.00  0.00    -0.308 N 
HETATM    5  C   UNL     1      43.591 -18.155   2.543  1.00  0.00     0.164 A 
HETATM    6  N   UNL     1      44.312 -17.374   1.751  1.00  0.00    -0.128 NA
HETATM    7  N   UNL     1      43.829 -16.096   1.819  1.00  0.00    -0.122 NA
BRANCH   4   8
HETATM    8  C   UNL     1      41.667 -17.750   4.163  1.00  0.00     0.128 C 
HETATM    9  C   UNL     1      42.251 -17.705   5.568  1.00  0.00     0.027 C 
ENDBRANCH   4   8
BRANCH   5  10
HETATM   10  C   UNL     1      43.881 -19.579   2.761  1.00  0.00     0.012 A 
HETATM   11  C   UNL     1      44.558 -19.952   3.935  1.00  0.00     0.015 A 
HETATM   12  C   UNL     1      44.881 -21.286   4.192  1.00  0.00     0.001 A 
HETATM   13  C   UNL     1      44.534 -22.273   3.275  1.00  0.00     0.000 A 
HETATM   14  C   UNL     1      43.881 -21.922   2.097  1.00  0.00     0.001 A 
HETATM   15  C   UNL     1      43.568 -20.582   1.836  1.00  0.00     0.015 A 
ENDBRANCH   5  10
ENDBRANCH   2   3
ENDBRANCH   1   2
BRANCH   1  16
HETATM   16  C   UNL     1      43.213 -13.994   5.409  1.00  0.00     0.227 C 
HETATM   17  N   UNL     1      44.460 -13.922   6.005  1.00  0.00    -0.360 N 
HETATM   18  H   UNL     1      45.197 -13.453   5.494  1.00  0.00     0.162 HD
HETATM   19  O   UNL     1      42.188 -14.260   6.032  1.00  0.00    -0.273 OA
BRANCH  17  20
HETATM   20  C   UNL     1      44.606 -14.036   7.447  1.00  0.00     0.127 C 
BRANCH  20  21
HETATM   21  C   UNL     1      45.527 -12.953   8.009  1.00  0.00     0.058 C 
BRANCH  21  22
HETATM   22  C   UNL     1      44.807 -12.042   8.970  1.00  0.00    -0.057 A 
HETATM   23  C   UNL     1      45.362 -11.749  10.220  1.00  0.00     0.010 A 
HETATM   24  C   UNL     1      44.680 -10.923  11.118  1.00  0.00     0.037 A 
HETATM   25  C   UNL     1      43.436 -10.381  10.786  1.00  0.00     0.068 A 
HETATM   26  C   UNL     1      42.878 -10.673   9.541  1.00  0.00     0.037 A 
HETATM   27  C   UNL     1      43.560 -11.499   8.640  1.00  0.00     0.010 A 
BRANCH  25  28
HETATM   28  O   UNL     1      42.877  -9.595  11.755  1.00  0.00    -0.356 OA
HETATM   29  C   UNL     1      43.428  -9.698  13.062  1.00  0.00     0.210 C 
ENDBRANCH  25  28
ENDBRANCH  21  22
ENDBRANCH  20  21
ENDBRANCH  17  20
ENDBRANCH   1  16
TORSDOF 9
ENDMDL
MODEL 2
REMARK VINA RESULT:      -8.1      2.161      2.976
REMARK  9 active torsions:
REMARK  status: ('A' for Active; 'I' for Inactive)
REMARK    1  A    between atoms: C_2  and  N_3 
REMARK    2  A    between atoms: C_4  and  S_5 
REMARK    3  A    between atoms: S_5  and  C_6 
REMARK    4  A    between atoms: C_6  and  C_7 
REMARK       I    between atoms: C_7  and  N_8 
REMARK    5  A    between atoms: N_8  and  C_9 
REMARK    6  A    between atoms: C_9  and  C_10 
REMARK    7  A    between atoms: C_10  and  C_11 
REMARK    8  A    between atoms: C_14  and  O_15 
REMARK    9  A    between atoms: C_22  and  C_23 
ROOT
HETATM    1  C   UNL     1      44.460 -14.376   6.308  1.00  0.00     0.185 C 
ENDROOT
BRANCH   1   2
HETATM    2  S   UNL     1      43.535 -15.686   7.161  1.00  0.00    -0.081 SA
BRANCH   2   3
HETATM    3  C   UNL     1      44.158 -17.070   6.332  1.00  0.00     0.192 A 
HETATM    4  N   UNL     1      43.608 -17.610   5.197  1.00  0.00    -0.308 N 
HETATM    5  C   UNL     1      44.391 -18.714   4.896  1.00  0.00     0.164 A 
HETATM    6  N   UNL     1      45.347 -18.792   5.810  1.00  0.00    -0.128 NA
HETATM    7  N   UNL     1      45.206 -17.761   6.699  1.00  0.00    -0.122 NA
BRANCH   4   8
HETATM    8  C   UNL     1      42.387 -17.179   4.548  1.00  0.00     0.128 C 
HETATM    9  C   UNL     1      41.140 -17.814   5.147  1.00  0.00     0.027 C 
ENDBRANCH   4   8
BRANCH   5  10
HETATM   10  C   UNL     1      44.207 -19.706   3.828  1.00  0.00     0.012 A 
HETATM   11  C   UNL     1      44.678 -21.013   4.041  1.00  0.00     0.015 A 
HETATM   12  C   UNL     1      44.552 -21.998   3.059  1.00  0.00     0.001 A 
HETATM   13  C   UNL     1      43.954 -21.690   1.841  1.00  0.00     0.000 A 
HETATM   14  C   UNL     1      43.499 -20.396   1.603  1.00  0.00     0.001 A 
HETATM   15  C   UNL     1      43.636 -19.408   2.585  1.00  0.00     0.015 A 
ENDBRANCH   5  10
ENDBRANCH   2   3
ENDBRANCH   1   2
BRANCH   1  16
HETATM   16  C   UNL     1      45.142 -13.490   7.336  1.00  0.00     0.227 C 
HETATM   17  N   UNL     1      44.370 -13.209   8.450  1.00  0.00    -0.360 N 
HETATM   18  H   UNL     1      43.567 -13.799   8.624  1.00  0.00     0.162 HD
HETATM   19  O   UNL     1      46.281 -13.054   7.184  1.00  0.00    -0.273 OA
BRANCH  17  20
HETATM   20  C   UNL     1      44.924 -12.474   9.576  1.00  0.00     0.127 C 
BRANCH  20  21
HETATM   21  C   UNL     1      44.517 -11.001   9.544  1.00  0.00     0.058 C 
BRANCH  21  22
HETATM   22  C   UNL     1      43.548 -10.660  10.647  1.00  0.00    -0.057 A 
HETATM   23  C   UNL     1      42.168 -10.758  10.436  1.00  0.00     0.010 A 
HETATM   24  C   UNL     1      41.273 -10.418  11.453  1.00  0.00     0.037 A 
HETATM   25  C   UNL     1      41.737  -9.971  12.693  1.00  0.00     0.068 A 
HETATM   26  C   UNL     1      43.112  -9.870  12.907  1.00  0.00     0.037 A 
HETATM   27  C   UNL     1      44.011 -10.211  11.890  1.00  0.00     0.010 A 
BRANCH  25  28
HETATM   28  O   UNL     1      40.756  -9.670  13.596  1.00  0.00    -0.356 OA
HETATM   29  C   UNL     1      39.896  -8.584  13.271  1.00  0.00     0.210 C 
ENDBRANCH  25  28
ENDBRANCH  21  22
ENDBRANCH  20  21
ENDBRANCH  17  20
ENDBRANCH   1  16
TORSDOF 9
ENDMDL
MODEL 3
REMARK VINA RESULT:      -8.0      4.205      7.841
REMARK  9 active torsions:
REMARK  status: ('A' for Active; 'I' for Inactive)
REMARK    1  A    between atoms: C_2  and  N_3 
REMARK    2  A    between atoms: C_4  and  S_5 
REMARK    3  A    between atoms: S_5  and  C_6 
REMARK    4  A    between atoms: C_6  and  C_7 
REMARK       I    between atoms: C_7  and  N_8 
REMARK    5  A    between atoms: N_8  and  C_9 
REMARK    6  A    between atoms: C_9  and  C_10 
REMARK    7  A    between atoms: C_10  and  C_11 
REMARK    8  A    between atoms: C_14  and  O_15 
REMARK    9  A    between atoms: C_22  and  C_23 
ROOT
HETATM    1  C   UNL     1      40.228 -13.560   0.449  1.00  0.00     0.185 C 
ENDROOT
BRANCH   1   2
HETATM    2  S   UNL     1      40.408 -12.443   1.869  1.00  0.00    -0.081 SA
BRANCH   2   3
HETATM    3  C   UNL     1      41.593 -13.314   2.778  1.00  0.00     0.192 A 
HETATM    4  N   UNL     1      41.330 -14.027   3.921  1.00  0.00    -0.308 N 
HETATM    5  C   UNL     1      42.555 -14.527   4.335  1.00  0.00     0.164 A 
HETATM    6  N   UNL     1      43.470 -14.127   3.464  1.00  0.00    -0.128 NA
HETATM    7  N   UNL     1      42.867 -13.379   2.489  1.00  0.00    -0.122 NA
BRANCH   4   8
HETATM    8  C   UNL     1      40.055 -14.110   4.603  1.00  0.00     0.128 C 
HETATM    9  C   UNL     1      39.920 -13.097   5.732  1.00  0.00     0.027 C 
ENDBRANCH   4   8
BRANCH   5  10
HETATM   10  C   UNL     1      42.870 -15.295   5.547  1.00  0.00     0.012 A 
HETATM   11  C   UNL     1      42.004 -16.337   5.922  1.00  0.00     0.015 A 
HETATM   12  C   UNL     1      42.236 -17.094   7.073  1.00  0.00     0.001 A 
HETATM   13  C   UNL     1      43.340 -16.817   7.874  1.00  0.00     0.000 A 
HETATM   14  C   UNL     1      44.199 -15.776   7.530  1.00  0.00     0.001 A 
HETATM   15  C   UNL     1      43.958 -15.013   6.381  1.00  0.00     0.015 A 
ENDBRANCH   5  10
ENDBRANCH   2   3
ENDBRANCH   1   2
BRANCH   1  16
HETATM   16  C   UNL     1      40.296 -14.999   0.930  1.00  0.00     0.227 C 
HETATM   17  N   UNL     1      41.462 -15.662   0.590  1.00  0.00    -0.360 N 
HETATM   18  H   UNL     1      42.255 -15.099   0.308  1.00  0.00     0.162 HD
HETATM   19  O   UNL     1      39.384 -15.530   1.560  1.00  0.00    -0.273 OA
BRANCH  17  20
HETATM   20  C   UNL     1      41.728 -17.005   1.079  1.00  0.00     0.127 C 
BRANCH  20  21
HETATM   21  C   UNL     1      43.215 -17.348   1.009  1.00  0.00     0.058 C 
BRANCH  21  22
HETATM   22  C   UNL     1      43.616 -18.344   2.067  1.00  0.00    -0.057 A 
HETATM   23  C   UNL     1      43.910 -17.919   3.367  1.00  0.00     0.010 A 
HETATM   24  C   UNL     1      44.304 -18.843   4.339  1.00  0.00     0.037 A 
HETATM   25  C   UNL     1      44.414 -20.201   4.030  1.00  0.00     0.068 A 
HETATM   26  C   UNL     1      44.124 -20.628   2.735  1.00  0.00     0.037 A 
HETATM   27  C   UNL     1      43.728 -19.705   1.760  1.00  0.00     0.010 A 
BRANCH  25  28
HETATM   28  O   UNL     1      44.811 -20.994   5.071  1.00  0.00    -0.356 OA
HETATM   29  C   UNL     1      44.896 -22.390   4.817  1.00  0.00     0.210 C 
ENDBRANCH  25  28
ENDBRANCH  21  22
ENDBRANCH  20  21
ENDBRANCH  17  20
ENDBRANCH   1  16
TORSDOF 9
ENDMDL
MODEL 4
REMARK VINA RESULT:      -7.9      1.400      1.992
REMARK  9 active torsions:
REMARK  status: ('A' for Active; 'I' for Inactive)
REMARK    1  A    between atoms: C_2  and  N_3 
REMARK    2  A    between atoms: C_4  and  S_5 
REMARK    3  A    between atoms: S_5  and  C_6 
REMARK    4  A    between atoms: C_6  and  C_7 
REMARK       I    between atoms: C_7  and  N_8 
REMARK    5  A    between atoms: N_8  and  C_9 
REMARK    6  A    between atoms: C_9  and  C_10 
REMARK    7  A    between atoms: C_10  and  C_11 
REMARK    8  A    between atoms: C_14  and  O_15 
REMARK    9  A    between atoms: C_22  and  C_23 
ROOT
HETATM    1  C   UNL     1      41.849 -13.705   5.388  1.00  0.00     0.185 C 
ENDROOT
BRANCH   1   2
HETATM    2  S   UNL     1      41.735 -14.340   3.690  1.00  0.00    -0.081 SA
BRANCH   2   3
HETATM    3  C   UNL     1      41.997 -16.023   3.989  1.00  0.00     0.192 A 
HETATM    4  N   UNL     1      42.841 -16.822   3.260  1.00  0.00    -0.308 N 
HETATM    5  C   UNL     1      42.720 -18.088   3.810  1.00  0.00     0.164 A 
HETATM    6  N   UNL     1      41.856 -18.012   4.812  1.00  0.00    -0.128 NA
HETATM    7  N   UNL     1      41.414 -16.722   4.928  1.00  0.00    -0.122 NA
BRANCH   4   8
HETATM    8  C   UNL     1      43.588 -16.429   2.082  1.00  0.00     0.128 C 
HETATM    9  C   UNL     1      42.806 -16.628   0.791  1.00  0.00     0.027 C 
ENDBRANCH   4   8
BRANCH   5  10
HETATM   10  C   UNL     1      43.339 -19.345   3.367  1.00  0.00     0.012 A 
HETATM   11  C   UNL     1      44.303 -19.944   4.196  1.00  0.00     0.015 A 
HETATM   12  C   UNL     1      44.943 -21.128   3.824  1.00  0.00     0.001 A 
HETATM   13  C   UNL     1      44.631 -21.734   2.611  1.00  0.00     0.000 A 
HETATM   14  C   UNL     1      43.693 -21.146   1.767  1.00  0.00     0.001 A 
HETATM   15  C   UNL     1      43.060 -19.953   2.138  1.00  0.00     0.015 A 
ENDBRANCH   5  10
ENDBRANCH   2   3
ENDBRANCH   1   2
BRANCH   1  16
HETATM   16  C   UNL     1      43.308 -13.642   5.804  1.00  0.00     0.227 C 
HETATM   17  N   UNL     1      43.513 -13.625   7.172  1.00  0.00    -0.360 N 
HETATM   18  H   UNL     1      42.746 -13.919   7.764  1.00  0.00     0.162 HD
HETATM   19  O   UNL     1      44.228 -13.601   4.989  1.00  0.00    -0.273 OA
BRANCH  17  20
HETATM   20  C   UNL     1      44.855 -13.686   7.728  1.00  0.00     0.127 C 
BRANCH  20  21
HETATM   21  C   UNL     1      45.277 -12.348   8.334  1.00  0.00     0.058 C 
BRANCH  21  22
HETATM   22  C   UNL     1      44.441 -11.983   9.534  1.00  0.00    -0.057 A 
HETATM   23  C   UNL     1      44.673 -12.592  10.772  1.00  0.00     0.010 A 
HETATM   24  C   UNL     1      43.879 -12.268  11.876  1.00  0.00     0.037 A 
HETATM   25  C   UNL     1      42.842 -11.340  11.763  1.00  0.00     0.068 A 
HETATM   26  C   UNL     1      42.606 -10.732  10.530  1.00  0.00     0.037 A 
HETATM   27  C   UNL     1      43.400 -11.053   9.422  1.00  0.00     0.010 A 
BRANCH  25  28
HETATM   28  O   UNL     1      42.144 -11.119  12.918  1.00  0.00    -0.356 OA
HETATM   29  C   UNL     1      40.739 -11.336  12.869  1.00  0.00     0.210 C 
ENDBRANCH  25  28
ENDBRANCH  21  22
ENDBRANCH  20  21
ENDBRANCH  17  20
ENDBRANCH   1  16
TORSDOF 9
ENDMDL
MODEL 5
REMARK VINA RESULT:      -7.9      4.907      8.786
REMARK  9 active torsions:
REMARK  status: ('A' for Active; 'I' for Inactive)
REMARK    1  A    between atoms: C_2  and  N_3 
REMARK    2  A    between atoms: C_4  and  S_5 
REMARK    3  A    between atoms: S_5  and  C_6 
REMARK    4  A    between atoms: C_6  and  C_7 
REMARK       I    between atoms: C_7  and  N_8 
REMARK    5  A    between atoms: N_8  and  C_9 
REMARK    6  A    between atoms: C_9  and  C_10 
REMARK    7  A    between atoms: C_10  and  C_11 
REMARK    8  A    between atoms: C_14  and  O_15 
REMARK    9  A    between atoms: C_22  and  C_23 
ROOT
HETATM    1  C   UNL     1      40.749 -14.984   3.804  1.00  0.00     0.185 C 
ENDROOT
BRANCH   1   2
HETATM    2  S   UNL     1      42.530 -14.707   4.028  1.00  0.00    -0.081 SA
BRANCH   2   3
HETATM    3  C   UNL     1      43.145 -16.126   3.253  1.00  0.00     0.192 A 
HETATM    4  N   UNL     1      43.103 -17.388   3.792  1.00  0.00    -0.308 N 
HETATM    5  C   UNL     1      43.730 -18.206   2.865  1.00  0.00     0.164 A 
HETATM    6  N   UNL     1      44.102 -17.449   1.843  1.00  0.00    -0.128 NA
HETATM    7  N   UNL     1      43.728 -16.155   2.082  1.00  0.00    -0.122 NA
BRANCH   4   8
HETATM    8  C   UNL     1      42.621 -17.740   5.111  1.00  0.00     0.128 C 
HETATM    9  C   UNL     1      43.647 -17.481   6.206  1.00  0.00     0.027 C 
ENDBRANCH   4   8
BRANCH   5  10
HETATM   10  C   UNL     1      44.036 -19.640   2.966  1.00  0.00     0.012 A 
HETATM   11  C   UNL     1      43.683 -20.475   1.892  1.00  0.00     0.015 A 
HETATM   12  C   UNL     1      43.928 -21.850   1.932  1.00  0.00     0.001 A 
HETATM   13  C   UNL     1      44.529 -22.415   3.052  1.00  0.00     0.000 A 
HETATM   14  C   UNL     1      44.869 -21.607   4.134  1.00  0.00     0.001 A 
HETATM   15  C   UNL     1      44.612 -20.231   4.096  1.00  0.00     0.015 A 
ENDBRANCH   5  10
ENDBRANCH   2   3
ENDBRANCH   1   2
BRANCH   1  16
HETATM   16  C   UNL     1      40.328 -14.466   2.439  1.00  0.00     0.227 C 
HETATM   17  N   UNL     1      41.352 -13.902   1.701  1.00  0.00    -0.360 N 
HETATM   18  H   UNL     1      42.302 -14.110   1.982  1.00  0.00     0.162 HD
HETATM   19  O   UNL     1      39.170 -14.537   2.033  1.00  0.00    -0.273 OA
BRANCH  17  20
HETATM   20  C   UNL     1      41.134 -13.470   0.329  1.00  0.00     0.127 C 
BRANCH  20  21
HETATM   21  C   UNL     1      41.526 -14.554  -0.674  1.00  0.00     0.058 C 
BRANCH  21  22
HETATM   22  C   UNL     1      40.464 -14.764  -1.722  1.00  0.00    -0.057 A 
HETATM   23  C   UNL     1      39.260 -14.054  -1.664  1.00  0.00     0.010 A 
HETATM   24  C   UNL     1      38.268 -14.269  -2.625  1.00  0.00     0.037 A 
HETATM   25  C   UNL     1      38.458 -15.195  -3.653  1.00  0.00     0.068 A 
HETATM   26  C   UNL     1      39.656 -15.906  -3.713  1.00  0.00     0.037 A 
HETATM   27  C   UNL     1      40.652 -15.692  -2.753  1.00  0.00     0.010 A 
BRANCH  25  28
HETATM   28  O   UNL     1      37.408 -15.309  -4.522  1.00  0.00    -0.356 OA
HETATM   29  C   UNL     1      36.402 -14.307  -4.447  1.00  0.00     0.210 C 
ENDBRANCH  25  28
ENDBRANCH  21  22
ENDBRANCH  20  21
ENDBRANCH  17  20
ENDBRANCH   1  16
TORSDOF 9
ENDMDL
MODEL 6
REMARK VINA RESULT:      -7.9      3.649      7.760
REMARK  9 active torsions:
REMARK  status: ('A' for Active; 'I' for Inactive)
REMARK    1  A    between atoms: C_2  and  N_3 
REMARK    2  A    between atoms: C_4  and  S_5 
REMARK    3  A    between atoms: S_5  and  C_6 
REMARK    4  A    between atoms: C_6  and  C_7 
REMARK       I    between atoms: C_7  and  N_8 
REMARK    5  A    between atoms: N_8  and  C_9 
REMARK    6  A    between atoms: C_9  and  C_10 
REMARK    7  A    between atoms: C_10  and  C_11 
REMARK    8  A    between atoms: C_14  and  O_15 
REMARK    9  A    between atoms: C_22  and  C_23 
ROOT
HETATM    1  C   UNL     1      40.832 -12.171   3.238  1.00  0.00     0.185 C 
ENDROOT
BRANCH   1   2
HETATM    2  S   UNL     1      41.527 -12.022   4.909  1.00  0.00    -0.081 SA
BRANCH   2   3
HETATM    3  C   UNL     1      41.381 -13.663   5.434  1.00  0.00     0.192 A 
HETATM    4  N   UNL     1      42.440 -14.491   5.707  1.00  0.00    -0.308 N 
HETATM    5  C   UNL     1      41.877 -15.709   6.054  1.00  0.00     0.164 A 
HETATM    6  N   UNL     1      40.560 -15.579   5.991  1.00  0.00    -0.128 NA
HETATM    7  N   UNL     1      40.252 -14.299   5.615  1.00  0.00    -0.122 NA
BRANCH   4   8
HETATM    8  C   UNL     1      43.842 -14.174   5.531  1.00  0.00     0.128 C 
HETATM    9  C   UNL     1      44.566 -13.934   6.849  1.00  0.00     0.027 C 
ENDBRANCH   4   8
BRANCH   5  10
HETATM   10  C   UNL     1      42.553 -16.977   6.364  1.00  0.00     0.012 A 
HETATM   11  C   UNL     1      43.049 -17.169   7.664  1.00  0.00     0.015 A 
HETATM   12  C   UNL     1      43.718 -18.343   8.019  1.00  0.00     0.001 A 
HETATM   13  C   UNL     1      43.904 -19.348   7.074  1.00  0.00     0.000 A 
HETATM   14  C   UNL     1      43.437 -19.168   5.775  1.00  0.00     0.001 A 
HETATM   15  C   UNL     1      42.776 -17.986   5.420  1.00  0.00     0.015 A 
ENDBRANCH   5  10
ENDBRANCH   2   3
ENDBRANCH   1   2
BRANCH   1  16
HETATM   16  C   UNL     1      41.683 -13.129   2.423  1.00  0.00     0.227 C 
HETATM   17  N   UNL     1      40.972 -14.140   1.801  1.00  0.00    -0.360 N 
HETATM   18  H   UNL     1      39.971 -14.018   1.707  1.00  0.00     0.162 HD
HETATM   19  O   UNL     1      42.904 -13.018   2.334  1.00  0.00    -0.273 OA
BRANCH  17  20
HETATM   20  C   UNL     1      41.628 -15.064   0.891  1.00  0.00     0.127 C 
BRANCH  20  21
HETATM   21  C   UNL     1      41.084 -16.485   1.040  1.00  0.00     0.058 C 
BRANCH  21  22
HETATM   22  C   UNL     1      42.160 -17.462   1.439  1.00  0.00    -0.057 A 
HETATM   23  C   UNL     1      41.858 -18.816   1.620  1.00  0.00     0.010 A 
HETATM   24  C   UNL     1      42.853 -19.714   2.014  1.00  0.00     0.037 A 
HETATM   25  C   UNL     1      44.161 -19.278   2.238  1.00  0.00     0.068 A 
HETATM   26  C   UNL     1      44.466 -17.928   2.062  1.00  0.00     0.037 A 
HETATM   27  C   UNL     1      43.471 -17.026   1.666  1.00  0.00     0.010 A 
BRANCH  25  28
HETATM   28  O   UNL     1      45.033 -20.258   2.622  1.00  0.00    -0.356 OA
HETATM   29  C   UNL     1      44.480 -21.540   2.891  1.00  0.00     0.210 C 
ENDBRANCH  25  28
ENDBRANCH  21  22
ENDBRANCH  20  21
ENDBRANCH  17  20
ENDBRANCH   1  16
TORSDOF 9
ENDMDL
MODEL 7
REMARK VINA RESULT:      -7.8      4.054      7.354
REMARK  9 active torsions:
REMARK  status: ('A' for Active; 'I' for Inactive)
REMARK    1  A    between atoms: C_2  and  N_3 
REMARK    2  A    between atoms: C_4  and  S_5 
REMARK    3  A    between atoms: S_5  and  C_6 
REMARK    4  A    between atoms: C_6  and  C_7 
REMARK       I    between atoms: C_7  and  N_8 
REMARK    5  A    between atoms: N_8  and  C_9 
REMARK    6  A    between atoms: C_9  and  C_10 
REMARK    7  A    between atoms: C_10  and  C_11 
REMARK    8  A    between atoms: C_14  and  O_15 
REMARK    9  A    between atoms: C_22  and  C_23 
ROOT
HETATM    1  C   UNL     1      43.975 -14.139   5.206  1.00  0.00     0.185 C 
ENDROOT
BRANCH   1   2
HETATM    2  S   UNL     1      43.182 -15.249   6.406  1.00  0.00    -0.081 SA
BRANCH   2   3
HETATM    3  C   UNL     1      43.949 -16.738   5.977  1.00  0.00     0.192 A 
HETATM    4  N   UNL     1      43.553 -17.551   4.945  1.00  0.00    -0.308 N 
HETATM    5  C   UNL     1      44.409 -18.640   4.981  1.00  0.00     0.164 A 
HETATM    6  N   UNL     1      45.259 -18.453   5.980  1.00  0.00    -0.128 NA
HETATM    7  N   UNL     1      44.977 -17.262   6.594  1.00  0.00    -0.122 NA
BRANCH   4   8
HETATM    8  C   UNL     1      42.396 -17.353   4.096  1.00  0.00     0.128 C 
HETATM    9  C   UNL     1      41.095 -17.787   4.757  1.00  0.00     0.027 C 
ENDBRANCH   4   8
BRANCH   5  10
HETATM   10  C   UNL     1      44.387 -19.853   4.152  1.00  0.00     0.012 A 
HETATM   11  C   UNL     1      44.759 -21.073   4.742  1.00  0.00     0.015 A 
HETATM   12  C   UNL     1      44.778 -22.259   4.004  1.00  0.00     0.001 A 
HETATM   13  C   UNL     1      44.427 -22.244   2.658  1.00  0.00     0.000 A 
HETATM   14  C   UNL     1      44.074 -21.042   2.050  1.00  0.00     0.001 A 
HETATM   15  C   UNL     1      44.066 -19.853   2.789  1.00  0.00     0.015 A 
ENDBRANCH   5  10
ENDBRANCH   2   3
ENDBRANCH   1   2
BRANCH   1  16
HETATM   16  C   UNL     1      42.995 -13.820   4.091  1.00  0.00     0.227 C 
HETATM   17  N   UNL     1      41.664 -13.877   4.467  1.00  0.00    -0.360 N 
HETATM   18  H   UNL     1      41.455 -13.852   5.457  1.00  0.00     0.162 HD
HETATM   19  O   UNL     1      43.357 -13.545   2.950  1.00  0.00    -0.273 OA
BRANCH  17  20
HETATM   20  C   UNL     1      40.611 -13.482   3.545  1.00  0.00     0.127 C 
BRANCH  20  21
HETATM   21  C   UNL     1      39.918 -14.695   2.926  1.00  0.00     0.058 C 
BRANCH  21  22
HETATM   22  C   UNL     1      40.213 -14.823   1.453  1.00  0.00    -0.057 A 
HETATM   23  C   UNL     1      41.128 -15.776   0.993  1.00  0.00     0.010 A 
HETATM   24  C   UNL     1      41.417 -15.875  -0.371  1.00  0.00     0.037 A 
HETATM   25  C   UNL     1      40.803 -15.026  -1.294  1.00  0.00     0.068 A 
HETATM   26  C   UNL     1      39.893 -14.072  -0.839  1.00  0.00     0.037 A 
HETATM   27  C   UNL     1      39.601 -13.971   0.526  1.00  0.00     0.010 A 
BRANCH  25  28
HETATM   28  O   UNL     1      41.178 -15.227  -2.594  1.00  0.00    -0.356 OA
HETATM   29  C   UNL     1      40.867 -14.193  -3.519  1.00  0.00     0.210 C 
ENDBRANCH  25  28
ENDBRANCH  21  22
ENDBRANCH  20  21
ENDBRANCH  17  20
ENDBRANCH   1  16
TORSDOF 9
ENDMDL
MODEL 8
REMARK VINA RESULT:      -7.6      2.100      2.977
REMARK  9 active torsions:
REMARK  status: ('A' for Active; 'I' for Inactive)
REMARK    1  A    between atoms: C_2  and  N_3 
REMARK    2  A    between atoms: C_4  and  S_5 
REMARK    3  A    between atoms: S_5  and  C_6 
REMARK    4  A    between atoms: C_6  and  C_7 
REMARK       I    between atoms: C_7  and  N_8 
REMARK    5  A    between atoms: N_8  and  C_9 
REMARK    6  A    between atoms: C_9  and  C_10 
REMARK    7  A    between atoms: C_10  and  C_11 
REMARK    8  A    between atoms: C_14  and  O_15 
REMARK    9  A    between atoms: C_22  and  C_23 
ROOT
HETATM    1  C   UNL     1      41.738 -12.548   5.572  1.00  0.00     0.185 C 
ENDROOT
BRANCH   1   2
HETATM    2  S   UNL     1      40.688 -14.028   5.470  1.00  0.00    -0.081 SA
BRANCH   2   3
HETATM    3  C   UNL     1      41.691 -15.029   4.479  1.00  0.00     0.192 A 
HETATM    4  N   UNL     1      41.841 -16.384   4.639  1.00  0.00    -0.308 N 
HETATM    5  C   UNL     1      42.750 -16.773   3.668  1.00  0.00     0.164 A 
HETATM    6  N   UNL     1      43.093 -15.693   2.980  1.00  0.00    -0.128 NA
HETATM    7  N   UNL     1      42.425 -14.609   3.481  1.00  0.00    -0.122 NA
BRANCH   4   8
HETATM    8  C   UNL     1      41.263 -17.190   5.694  1.00  0.00     0.128 C 
HETATM    9  C   UNL     1      42.103 -17.195   6.964  1.00  0.00     0.027 C 
ENDBRANCH   4   8
BRANCH   5  10
HETATM   10  C   UNL     1      43.333 -18.101   3.436  1.00  0.00     0.012 A 
HETATM   11  C   UNL     1      42.983 -18.789   2.261  1.00  0.00     0.015 A 
HETATM   12  C   UNL     1      43.488 -20.063   1.990  1.00  0.00     0.001 A 
HETATM   13  C   UNL     1      44.351 -20.674   2.895  1.00  0.00     0.000 A 
HETATM   14  C   UNL     1      44.695 -20.017   4.073  1.00  0.00     0.001 A 
HETATM   15  C   UNL     1      44.179 -18.744   4.347  1.00  0.00     0.015 A 
ENDBRANCH   5  10
ENDBRANCH   2   3
ENDBRANCH   1   2
BRANCH   1  16
HETATM   16  C   UNL     1      41.328 -11.723   6.779  1.00  0.00     0.227 C 
HETATM   17  N   UNL     1      42.358 -11.448   7.660  1.00  0.00    -0.360 N 
HETATM   18  H   UNL     1      43.306 -11.566   7.324  1.00  0.00     0.162 HD
HETATM   19  O   UNL     1      40.173 -11.341   6.958  1.00  0.00    -0.273 OA
BRANCH  17  20
HETATM   20  C   UNL     1      42.151 -10.570   8.800  1.00  0.00     0.127 C 
BRANCH  20  21
HETATM   21  C   UNL     1      43.310 -10.650   9.793  1.00  0.00     0.058 C 
BRANCH  21  22
HETATM   22  C   UNL     1      42.841 -10.519  11.220  1.00  0.00    -0.057 A 
HETATM   23  C   UNL     1      43.635  -9.868  12.171  1.00  0.00     0.010 A 
HETATM   24  C   UNL     1      43.207  -9.770  13.497  1.00  0.00     0.037 A 
HETATM   25  C   UNL     1      41.988 -10.321  13.897  1.00  0.00     0.068 A 
HETATM   26  C   UNL     1      41.195 -10.973  12.953  1.00  0.00     0.037 A 
HETATM   27  C   UNL     1      41.620 -11.072  11.623  1.00  0.00     0.010 A 
BRANCH  25  28
HETATM   28  O   UNL     1      41.692 -10.156  15.222  1.00  0.00    -0.356 OA
HETATM   29  C   UNL     1      42.060  -8.915  15.812  1.00  0.00     0.210 C 
ENDBRANCH  25  28
ENDBRANCH  21  22
ENDBRANCH  20  21
ENDBRANCH  17  20
ENDBRANCH   1  16
TORSDOF 9
ENDMDL
MODEL 9
REMARK VINA RESULT:      -7.6      1.569      2.232
REMARK  9 active torsions:
REMARK  status: ('A' for Active; 'I' for Inactive)
REMARK    1  A    between atoms: C_2  and  N_3 
REMARK    2  A    between atoms: C_4  and  S_5 
REMARK    3  A    between atoms: S_5  and  C_6 
REMARK    4  A    between atoms: C_6  and  C_7 
REMARK       I    between atoms: C_7  and  N_8 
REMARK    5  A    between atoms: N_8  and  C_9 
REMARK    6  A    between atoms: C_9  and  C_10 
REMARK    7  A    between atoms: C_10  and  C_11 
REMARK    8  A    between atoms: C_14  and  O_15 
REMARK    9  A    between atoms: C_22  and  C_23 
ROOT
HETATM    1  C   UNL     1      44.297 -14.566   6.506  1.00  0.00     0.185 C 
ENDROOT
BRANCH   1   2
HETATM    2  S   UNL     1      42.680 -14.887   5.743  1.00  0.00    -0.081 SA
BRANCH   2   3
HETATM    3  C   UNL     1      43.145 -16.050   4.551  1.00  0.00     0.192 A 
HETATM    4  N   UNL     1      43.161 -17.408   4.751  1.00  0.00    -0.308 N 
HETATM    5  C   UNL     1      43.627 -17.951   3.564  1.00  0.00     0.164 A 
HETATM    6  N   UNL     1      43.856 -16.952   2.724  1.00  0.00    -0.128 NA
HETATM    7  N   UNL     1      43.546 -15.768   3.338  1.00  0.00    -0.122 NA
BRANCH   4   8
HETATM    8  C   UNL     1      42.875 -18.093   5.994  1.00  0.00     0.128 C 
HETATM    9  C   UNL     1      44.092 -18.206   6.902  1.00  0.00     0.027 C 
ENDBRANCH   4   8
BRANCH   5  10
HETATM   10  C   UNL     1      43.917 -19.357   3.250  1.00  0.00     0.012 A 
HETATM   11  C   UNL     1      43.414 -19.891   2.051  1.00  0.00     0.015 A 
HETATM   12  C   UNL     1      43.638 -21.225   1.702  1.00  0.00     0.001 A 
HETATM   13  C   UNL     1      44.368 -22.051   2.552  1.00  0.00     0.000 A 
HETATM   14  C   UNL     1      44.858 -21.546   3.753  1.00  0.00     0.001 A 
HETATM   15  C   UNL     1      44.623 -20.211   4.105  1.00  0.00     0.015 A 
ENDBRANCH   5  10
ENDBRANCH   2   3
ENDBRANCH   1   2
BRANCH   1  16
HETATM   16  C   UNL     1      44.224 -13.287   7.320  1.00  0.00     0.227 C 
HETATM   17  N   UNL     1      45.260 -13.122   8.222  1.00  0.00    -0.360 N 
HETATM   18  H   UNL     1      46.090 -13.687   8.089  1.00  0.00     0.162 HD
HETATM   19  O   UNL     1      43.312 -12.472   7.193  1.00  0.00    -0.273 OA
BRANCH  17  20
HETATM   20  C   UNL     1      45.396 -11.894   8.988  1.00  0.00     0.127 C 
BRANCH  20  21
HETATM   21  C   UNL     1      44.897 -12.066  10.423  1.00  0.00     0.058 C 
BRANCH  21  22
HETATM   22  C   UNL     1      43.943 -10.971  10.824  1.00  0.00    -0.057 A 
HETATM   23  C   UNL     1      44.036 -10.374  12.086  1.00  0.00     0.010 A 
HETATM   24  C   UNL     1      43.134  -9.376  12.462  1.00  0.00     0.037 A 
HETATM   25  C   UNL     1      42.125  -8.960  11.591  1.00  0.00     0.068 A 
HETATM   26  C   UNL     1      42.026  -9.553  10.333  1.00  0.00     0.037 A 
HETATM   27  C   UNL     1      42.929 -10.553   9.953  1.00  0.00     0.010 A 
BRANCH  25  28
HETATM   28  O   UNL     1      41.310  -7.979  12.086  1.00  0.00    -0.356 OA
HETATM   29  C   UNL     1      40.244  -8.395  12.930  1.00  0.00     0.210 C 
ENDBRANCH  25  28
ENDBRANCH  21  22
ENDBRANCH  20  21
ENDBRANCH  17  20
ENDBRANCH   1  16
TORSDOF 9
ENDMDL
MODEL 10
REMARK VINA RESULT:      -7.6      4.723      7.852
REMARK  9 active torsions:
REMARK  status: ('A' for Active; 'I' for Inactive)
REMARK    1  A    between atoms: C_2  and  N_3 
REMARK    2  A    between atoms: C_4  and  S_5 
REMARK    3  A    between atoms: S_5  and  C_6 
REMARK    4  A    between atoms: C_6  and  C_7 
REMARK       I    between atoms: C_7  and  N_8 
REMARK    5  A    between atoms: N_8  and  C_9 
REMARK    6  A    between atoms: C_9  and  C_10 
REMARK    7  A    between atoms: C_10  and  C_11 
REMARK    8  A    between atoms: C_14  and  O_15 
REMARK    9  A    between atoms: C_22  and  C_23 
ROOT
HETATM    1  C   UNL     1      40.637 -14.790   4.878  1.00  0.00     0.185 C 
ENDROOT
BRANCH   1   2
HETATM    2  S   UNL     1      42.429 -14.661   5.143  1.00  0.00    -0.081 SA
BRANCH   2   3
HETATM    3  C   UNL     1      42.973 -15.900   4.066  1.00  0.00     0.192 A 
HETATM    4  N   UNL     1      42.915 -17.245   4.333  1.00  0.00    -0.308 N 
HETATM    5  C   UNL     1      43.483 -17.865   3.232  1.00  0.00     0.164 A 
HETATM    6  N   UNL     1      43.839 -16.920   2.374  1.00  0.00    -0.128 NA
HETATM    7  N   UNL     1      43.512 -15.696   2.892  1.00  0.00    -0.122 NA
BRANCH   4   8
HETATM    8  C   UNL     1      42.471 -17.853   5.570  1.00  0.00     0.128 C 
HETATM    9  C   UNL     1      43.538 -17.836   6.655  1.00  0.00     0.027 C 
ENDBRANCH   4   8
BRANCH   5  10
HETATM   10  C   UNL     1      43.750 -19.294   3.020  1.00  0.00     0.012 A 
HETATM   11  C   UNL     1      44.576 -19.964   3.939  1.00  0.00     0.015 A 
HETATM   12  C   UNL     1      44.885 -21.317   3.784  1.00  0.00     0.001 A 
HETATM   13  C   UNL     1      44.372 -22.026   2.702  1.00  0.00     0.000 A 
HETATM   14  C   UNL     1      43.568 -21.376   1.770  1.00  0.00     0.001 A 
HETATM   15  C   UNL     1      43.268 -20.017   1.922  1.00  0.00     0.015 A 
ENDBRANCH   5  10
ENDBRANCH   2   3
ENDBRANCH   1   2
BRANCH   1  16
HETATM   16  C   UNL     1      40.288 -14.228   3.511  1.00  0.00     0.227 C 
HETATM   17  N   UNL     1      40.987 -13.083   3.169  1.00  0.00    -0.360 N 
HETATM   18  H   UNL     1      41.826 -12.872   3.694  1.00  0.00     0.162 HD
HETATM   19  O   UNL     1      39.449 -14.744   2.777  1.00  0.00    -0.273 OA
BRANCH  17  20
HETATM   20  C   UNL     1      40.853 -12.494   1.847  1.00  0.00     0.127 C 
BRANCH  20  21
HETATM   21  C   UNL     1      42.082 -12.766   0.980  1.00  0.00     0.058 C 
BRANCH  21  22
HETATM   22  C   UNL     1      41.710 -13.354  -0.358  1.00  0.00    -0.057 A 
HETATM   23  C   UNL     1      40.825 -14.435  -0.437  1.00  0.00     0.010 A 
HETATM   24  C   UNL     1      40.502 -14.992  -1.676  1.00  0.00     0.037 A 
HETATM   25  C   UNL     1      41.057 -14.485  -2.854  1.00  0.00     0.068 A 
HETATM   26  C   UNL     1      41.941 -13.409  -2.779  1.00  0.00     0.037 A 
HETATM   27  C   UNL     1      42.266 -12.848  -1.539  1.00  0.00     0.010 A 
BRANCH  25  28
HETATM   28  O   UNL     1      40.659 -15.124  -3.995  1.00  0.00    -0.356 OA
HETATM   29  C   UNL     1      39.444 -15.861  -3.928  1.00  0.00     0.210 C 
ENDBRANCH  25  28
ENDBRANCH  21  22
ENDBRANCH  20  21
ENDBRANCH  17  20
ENDBRANCH   1  16
TORSDOF 9
ENDMDL
