MODEL 1
REMARK VINA RESULT:      -8.8      0.000      0.000
REMARK  6 active torsions:
REMARK  status: ('A' for Active; 'I' for Inactive)
REMARK    1  A    between atoms: O_2  and  C_3 
REMARK    2  A    between atoms: C_6  and  C_7 
REMARK    3  A    between atoms: C_7  and  C_8 
REMARK       I    between atoms: C_8  and  N_9 
REMARK    4  A    between atoms: N_9  and  C_10 
REMARK    5  A    between atoms: C_10  and  C_11 
REMARK       I    between atoms: C_11  and  N_12 
REMARK    6  A    between atoms: N_12  and  N_13 
ROOT
HETATM    1  C   UNL     1      44.454 -13.905   7.105  1.00  0.00     0.255 C 
HETATM    2  N   UNL     1      43.481 -14.881   6.998  1.00  0.00    -0.245 N 
HETATM    3  O   UNL     1      45.629 -14.043   6.758  1.00  0.00    -0.270 OA
HETATM    4  H   UNL     1      42.563 -14.713   7.410  1.00  0.00     0.192 HD
ENDROOT
BRANCH   1   5
HETATM    5  C   UNL     1      43.983 -12.605   7.768  1.00  0.00     0.227 C 
BRANCH   5   6
HETATM    6  N   UNL     1      44.255 -12.436   9.193  1.00  0.00    -0.352 N 
HETATM    7  C   UNL     1      45.156 -11.487   9.627  1.00  0.00     0.222 C 
HETATM    8  O   UNL     1      45.928 -10.920   8.859  1.00  0.00    -0.273 OA
HETATM    9  H   UNL     1      43.520 -12.707   9.835  1.00  0.00     0.162 HD
BRANCH   7  10
HETATM   10  C   UNL     1      45.116 -11.200  11.118  1.00  0.00     0.141 C 
BRANCH  10  11
HETATM   11  C   UNL     1      43.784 -10.677  11.608  1.00  0.00    -0.049 A 
HETATM   12  C   UNL     1      43.260  -9.452  11.172  1.00  0.00     0.010 A 
HETATM   13  C   UNL     1      42.044  -8.969  11.668  1.00  0.00     0.037 A 
HETATM   14  C   UNL     1      41.339  -9.692  12.628  1.00  0.00     0.068 A 
HETATM   15  C   UNL     1      41.868 -10.899  13.089  1.00  0.00     0.037 A 
HETATM   16  C   UNL     1      43.078 -11.388  12.589  1.00  0.00     0.010 A 
BRANCH  14  17
HETATM   17  O   UNL     1      40.150  -9.330  13.197  1.00  0.00    -0.356 OA
HETATM   18  C   UNL     1      40.085  -8.031  13.774  1.00  0.00     0.210 C 
ENDBRANCH  14  17
ENDBRANCH  10  11
ENDBRANCH   7  10
ENDBRANCH   5   6
ENDBRANCH   1   5
BRANCH   2  19
HETATM   19  N   UNL     1      43.792 -16.124   6.530  1.00  0.00    -0.166 NA
HETATM   20  C   UNL     1      43.529 -16.356   5.286  1.00  0.00     0.157 A 
HETATM   21  C   UNL     1      42.953 -15.404   4.230  1.00  0.00     0.277 A 
HETATM   22  C   UNL     1      43.741 -17.628   4.605  1.00  0.00     0.028 A 
HETATM   23  O   UNL     1      42.670 -14.240   4.417  1.00  0.00    -0.266 OA
HETATM   24  N   UNL     1      42.864 -16.150   3.073  1.00  0.00    -0.321 N 
HETATM   25  C   UNL     1      43.323 -17.448   3.285  1.00  0.00     0.048 A 
HETATM   26  H   UNL     1      42.514 -15.780   2.202  1.00  0.00     0.169 HD
HETATM   27  C   UNL     1      43.388 -18.474   2.369  1.00  0.00     0.032 A 
HETATM   28  C   UNL     1      43.888 -19.705   2.817  1.00  0.00     0.021 A 
HETATM   29  C   UNL     1      44.304 -19.874   4.155  1.00  0.00     0.012 A 
HETATM   30 BR   UNL     1      44.967 -21.556   4.710  1.00  0.00    -0.051 Br
HETATM   31  C   UNL     1      44.234 -18.827   5.074  1.00  0.00     0.035 A 
ENDBRANCH   2  19
TORSDOF 6
ENDMDL
MODEL 2
REMARK VINA RESULT:      -8.8      1.739      2.535
REMARK  6 active torsions:
REMARK  status: ('A' for Active; 'I' for Inactive)
REMARK    1  A    between atoms: O_2  and  C_3 
REMARK    2  A    between atoms: C_6  and  C_7 
REMARK    3  A    between atoms: C_7  and  C_8 
REMARK       I    between atoms: C_8  and  N_9 
REMARK    4  A    between atoms: N_9  and  C_10 
REMARK    5  A    between atoms: C_10  and  C_11 
REMARK       I    between atoms: C_11  and  N_12 
REMARK    6  A    between atoms: N_12  and  N_13 
ROOT
HETATM    1  C   UNL     1      43.795 -13.922   6.099  1.00  0.00     0.255 C 
HETATM    2  N   UNL     1      43.367 -15.147   6.573  1.00  0.00    -0.245 N 
HETATM    3  O   UNL     1      44.312 -13.736   4.996  1.00  0.00    -0.270 OA
HETATM    4  H   UNL     1      43.051 -15.221   7.541  1.00  0.00     0.192 HD
ENDROOT
BRANCH   1   5
HETATM    5  C   UNL     1      43.642 -12.763   7.093  1.00  0.00     0.227 C 
BRANCH   5   6
HETATM    6  N   UNL     1      44.097 -12.984   8.463  1.00  0.00    -0.352 N 
HETATM    7  C   UNL     1      45.274 -12.420   8.909  1.00  0.00     0.222 C 
HETATM    8  O   UNL     1      46.092 -11.922   8.142  1.00  0.00    -0.273 OA
HETATM    9  H   UNL     1      43.387 -13.186   9.156  1.00  0.00     0.162 HD
BRANCH   7  10
HETATM   10  C   UNL     1      45.473 -12.462  10.414  1.00  0.00     0.141 C 
BRANCH  10  11
HETATM   11  C   UNL     1      44.448 -11.669  11.194  1.00  0.00    -0.049 A 
HETATM   12  C   UNL     1      44.350 -10.275  11.088  1.00  0.00     0.010 A 
HETATM   13  C   UNL     1      43.419  -9.556  11.848  1.00  0.00     0.037 A 
HETATM   14  C   UNL     1      42.584 -10.219  12.745  1.00  0.00     0.068 A 
HETATM   15  C   UNL     1      42.695 -11.604  12.877  1.00  0.00     0.037 A 
HETATM   16  C   UNL     1      43.618 -12.324  12.114  1.00  0.00     0.010 A 
BRANCH  14  17
HETATM   17  O   UNL     1      41.642  -9.637  13.549  1.00  0.00    -0.356 OA
HETATM   18  C   UNL     1      41.894  -9.658  14.949  1.00  0.00     0.210 C 
ENDBRANCH  14  17
ENDBRANCH  10  11
ENDBRANCH   7  10
ENDBRANCH   5   6
ENDBRANCH   1   5
BRANCH   2  19
HETATM   19  N   UNL     1      43.549 -16.280   5.835  1.00  0.00    -0.166 NA
HETATM   20  C   UNL     1      43.673 -17.385   6.495  1.00  0.00     0.157 A 
HETATM   21  C   UNL     1      43.593 -17.616   8.009  1.00  0.00     0.277 A 
HETATM   22  C   UNL     1      43.919 -18.695   5.902  1.00  0.00     0.028 A 
HETATM   23  O   UNL     1      43.373 -16.759   8.838  1.00  0.00    -0.266 OA
HETATM   24  N   UNL     1      43.799 -18.970   8.185  1.00  0.00    -0.321 N 
HETATM   25  C   UNL     1      43.988 -19.603   6.959  1.00  0.00     0.048 A 
HETATM   26  H   UNL     1      43.801 -19.415   9.090  1.00  0.00     0.169 HD
HETATM   27  C   UNL     1      44.218 -20.943   6.735  1.00  0.00     0.032 A 
HETATM   28  C   UNL     1      44.383 -21.353   5.406  1.00  0.00     0.021 A 
HETATM   29  C   UNL     1      44.313 -20.423   4.346  1.00  0.00     0.012 A 
HETATM   30 BR   UNL     1      44.546 -21.028   2.569  1.00  0.00    -0.051 Br
HETATM   31  C   UNL     1      44.079 -19.069   4.585  1.00  0.00     0.035 A 
ENDBRANCH   2  19
TORSDOF 6
ENDMDL
MODEL 3
REMARK VINA RESULT:      -8.7      5.824      9.289
REMARK  6 active torsions:
REMARK  status: ('A' for Active; 'I' for Inactive)
REMARK    1  A    between atoms: O_2  and  C_3 
REMARK    2  A    between atoms: C_6  and  C_7 
REMARK    3  A    between atoms: C_7  and  C_8 
REMARK       I    between atoms: C_8  and  N_9 
REMARK    4  A    between atoms: N_9  and  C_10 
REMARK    5  A    between atoms: C_10  and  C_11 
REMARK       I    between atoms: C_11  and  N_12 
REMARK    6  A    between atoms: N_12  and  N_13 
ROOT
HETATM    1  C   UNL     1      43.007 -13.611   3.897  1.00  0.00     0.255 C 
HETATM    2  N   UNL     1      41.840 -13.368   3.199  1.00  0.00    -0.245 N 
HETATM    3  O   UNL     1      44.141 -13.544   3.418  1.00  0.00    -0.270 OA
HETATM    4  H   UNL     1      40.944 -13.553   3.650  1.00  0.00     0.192 HD
ENDROOT
BRANCH   1   5
HETATM    5  C   UNL     1      42.800 -14.051   5.353  1.00  0.00     0.227 C 
BRANCH   5   6
HETATM    6  N   UNL     1      43.554 -15.210   5.822  1.00  0.00    -0.352 N 
HETATM    7  C   UNL     1      42.899 -16.315   6.323  1.00  0.00     0.222 C 
HETATM    8  O   UNL     1      41.707 -16.291   6.616  1.00  0.00    -0.273 OA
HETATM    9  H   UNL     1      44.469 -15.357   5.415  1.00  0.00     0.162 HD
BRANCH   7  10
HETATM   10  C   UNL     1      43.763 -17.554   6.481  1.00  0.00     0.141 C 
BRANCH  10  11
HETATM   11  C   UNL     1      43.805 -18.435   5.252  1.00  0.00    -0.049 A 
HETATM   12  C   UNL     1      44.628 -19.567   5.177  1.00  0.00     0.010 A 
HETATM   13  C   UNL     1      44.681 -20.346   4.015  1.00  0.00     0.037 A 
HETATM   14  C   UNL     1      43.927 -19.993   2.898  1.00  0.00     0.068 A 
HETATM   15  C   UNL     1      43.128 -18.850   2.954  1.00  0.00     0.037 A 
HETATM   16  C   UNL     1      43.067 -18.075   4.116  1.00  0.00     0.010 A 
BRANCH  14  17
HETATM   17  O   UNL     1      43.895 -20.660   1.704  1.00  0.00    -0.356 OA
HETATM   18  C   UNL     1      44.294 -22.025   1.723  1.00  0.00     0.210 C 
ENDBRANCH  14  17
ENDBRANCH  10  11
ENDBRANCH   7  10
ENDBRANCH   5   6
ENDBRANCH   1   5
BRANCH   2  19
HETATM   19  N   UNL     1      41.876 -13.080   1.866  1.00  0.00    -0.166 NA
HETATM   20  C   UNL     1      41.511 -14.024   1.061  1.00  0.00     0.157 A 
HETATM   21  C   UNL     1      40.987 -15.426   1.396  1.00  0.00     0.277 A 
HETATM   22  C   UNL     1      41.518 -13.937  -0.395  1.00  0.00     0.028 A 
HETATM   23  O   UNL     1      40.816 -15.861   2.515  1.00  0.00    -0.266 OA
HETATM   24  N   UNL     1      40.751 -16.030   0.178  1.00  0.00    -0.321 N 
HETATM   25  C   UNL     1      41.058 -15.165  -0.870  1.00  0.00     0.048 A 
HETATM   26  H   UNL     1      40.398 -16.972   0.087  1.00  0.00     0.169 HD
HETATM   27  C   UNL     1      40.949 -15.414  -2.221  1.00  0.00     0.032 A 
HETATM   28  C   UNL     1      41.322 -14.385  -3.095  1.00  0.00     0.021 A 
HETATM   29  C   UNL     1      41.789 -13.148  -2.601  1.00  0.00     0.012 A 
HETATM   30 BR   UNL     1      42.284 -11.793  -3.825  1.00  0.00    -0.051 Br
HETATM   31  C   UNL     1      41.895 -12.907  -1.232  1.00  0.00     0.035 A 
ENDBRANCH   2  19
TORSDOF 6
ENDMDL
MODEL 4
REMARK VINA RESULT:      -8.3      6.541      9.902
REMARK  6 active torsions:
REMARK  status: ('A' for Active; 'I' for Inactive)
REMARK    1  A    between atoms: O_2  and  C_3 
REMARK    2  A    between atoms: C_6  and  C_7 
REMARK    3  A    between atoms: C_7  and  C_8 
REMARK       I    between atoms: C_8  and  N_9 
REMARK    4  A    between atoms: N_9  and  C_10 
REMARK    5  A    between atoms: C_10  and  C_11 
REMARK       I    between atoms: C_11  and  N_12 
REMARK    6  A    between atoms: N_12  and  N_13 
ROOT
HETATM    1  C   UNL     1      39.847 -14.117   3.979  1.00  0.00     0.255 C 
HETATM    2  N   UNL     1      39.525 -15.006   2.972  1.00  0.00    -0.245 N 
HETATM    3  O   UNL     1      39.804 -12.890   3.875  1.00  0.00    -0.270 OA
HETATM    4  H   UNL     1      39.694 -16.002   3.116  1.00  0.00     0.192 HD
ENDROOT
BRANCH   1   5
HETATM    5  C   UNL     1      40.346 -14.772   5.274  1.00  0.00     0.227 C 
BRANCH   5   6
HETATM    6  N   UNL     1      41.739 -15.208   5.317  1.00  0.00    -0.352 N 
HETATM    7  C   UNL     1      42.060 -16.543   5.191  1.00  0.00     0.222 C 
HETATM    8  O   UNL     1      41.214 -17.429   5.275  1.00  0.00    -0.273 OA
HETATM    9  H   UNL     1      42.439 -14.532   5.035  1.00  0.00     0.162 HD
BRANCH   7  10
HETATM   10  C   UNL     1      43.531 -16.826   4.940  1.00  0.00     0.141 C 
BRANCH  10  11
HETATM   11  C   UNL     1      43.817 -18.244   4.498  1.00  0.00    -0.049 A 
HETATM   12  C   UNL     1      44.360 -19.199   5.368  1.00  0.00     0.010 A 
HETATM   13  C   UNL     1      44.654 -20.495   4.927  1.00  0.00     0.037 A 
HETATM   14  C   UNL     1      44.429 -20.853   3.600  1.00  0.00     0.068 A 
HETATM   15  C   UNL     1      43.914 -19.900   2.720  1.00  0.00     0.037 A 
HETATM   16  C   UNL     1      43.613 -18.607   3.159  1.00  0.00     0.010 A 
BRANCH  14  17
HETATM   17  O   UNL     1      44.678 -22.076   3.042  1.00  0.00    -0.356 OA
HETATM   18  C   UNL     1      44.525 -22.180   1.631  1.00  0.00     0.210 C 
ENDBRANCH  14  17
ENDBRANCH  10  11
ENDBRANCH   7  10
ENDBRANCH   5   6
ENDBRANCH   1   5
BRANCH   2  19
HETATM   19  N   UNL     1      39.176 -14.555   1.733  1.00  0.00    -0.166 NA
HETATM   20  C   UNL     1      40.016 -14.784   0.777  1.00  0.00     0.157 A 
HETATM   21  C   UNL     1      41.347 -15.545   0.827  1.00  0.00     0.277 A 
HETATM   22  C   UNL     1      39.856 -14.348  -0.606  1.00  0.00     0.028 A 
HETATM   23  O   UNL     1      41.810 -16.082   1.810  1.00  0.00    -0.266 OA
HETATM   24  N   UNL     1      41.847 -15.493  -0.458  1.00  0.00    -0.321 N 
HETATM   25  C   UNL     1      40.981 -14.797  -1.298  1.00  0.00     0.048 A 
HETATM   26  H   UNL     1      42.724 -15.915  -0.727  1.00  0.00     0.169 HD
HETATM   27  C   UNL     1      41.142 -14.542  -2.642  1.00  0.00     0.032 A 
HETATM   28  C   UNL     1      40.132 -13.813  -3.283  1.00  0.00     0.021 A 
HETATM   29  C   UNL     1      39.000 -13.362  -2.570  1.00  0.00     0.012 A 
HETATM   30 BR   UNL     1      37.666 -12.379  -3.482  1.00  0.00    -0.051 Br
HETATM   31  C   UNL     1      38.847 -13.627  -1.209  1.00  0.00     0.035 A 
ENDBRANCH   2  19
TORSDOF 6
ENDMDL
MODEL 5
REMARK VINA RESULT:      -8.2      3.893     10.440
REMARK  6 active torsions:
REMARK  status: ('A' for Active; 'I' for Inactive)
REMARK    1  A    between atoms: O_2  and  C_3 
REMARK    2  A    between atoms: C_6  and  C_7 
REMARK    3  A    between atoms: C_7  and  C_8 
REMARK       I    between atoms: C_8  and  N_9 
REMARK    4  A    between atoms: N_9  and  C_10 
REMARK    5  A    between atoms: C_10  and  C_11 
REMARK       I    between atoms: C_11  and  N_12 
REMARK    6  A    between atoms: N_12  and  N_13 
ROOT
HETATM    1  C   UNL     1      41.589 -11.798   6.664  1.00  0.00     0.255 C 
HETATM    2  N   UNL     1      42.442 -11.475   7.702  1.00  0.00    -0.245 N 
HETATM    3  O   UNL     1      40.421 -11.417   6.569  1.00  0.00    -0.270 OA
HETATM    4  H   UNL     1      43.357 -11.925   7.751  1.00  0.00     0.192 HD
ENDROOT
BRANCH   1   5
HETATM    5  C   UNL     1      42.185 -12.753   5.622  1.00  0.00     0.227 C 
BRANCH   5   6
HETATM    6  N   UNL     1      42.121 -14.185   5.903  1.00  0.00    -0.352 N 
HETATM    7  C   UNL     1      43.252 -14.875   6.285  1.00  0.00     0.222 C 
HETATM    8  O   UNL     1      44.377 -14.396   6.179  1.00  0.00    -0.273 OA
HETATM    9  H   UNL     1      41.227 -14.553   6.206  1.00  0.00     0.162 HD
BRANCH   7  10
HETATM   10  C   UNL     1      42.996 -16.264   6.843  1.00  0.00     0.141 C 
BRANCH  10  11
HETATM   11  C   UNL     1      43.415 -17.386   5.919  1.00  0.00    -0.049 A 
HETATM   12  C   UNL     1      44.561 -18.156   6.156  1.00  0.00     0.010 A 
HETATM   13  C   UNL     1      44.952 -19.163   5.267  1.00  0.00     0.037 A 
HETATM   14  C   UNL     1      44.213 -19.404   4.110  1.00  0.00     0.068 A 
HETATM   15  C   UNL     1      43.086 -18.623   3.852  1.00  0.00     0.037 A 
HETATM   16  C   UNL     1      42.689 -17.622   4.743  1.00  0.00     0.010 A 
BRANCH  14  17
HETATM   17  O   UNL     1      44.489 -20.349   3.160  1.00  0.00    -0.356 OA
HETATM   18  C   UNL     1      43.635 -20.382   2.023  1.00  0.00     0.210 C 
ENDBRANCH  14  17
ENDBRANCH  10  11
ENDBRANCH   7  10
ENDBRANCH   5   6
ENDBRANCH   1   5
BRANCH   2  19
HETATM   19  N   UNL     1      42.003 -10.726   8.754  1.00  0.00    -0.166 NA
HETATM   20  C   UNL     1      42.790 -10.649   9.777  1.00  0.00     0.157 A 
HETATM   21  C   UNL     1      44.191 -11.247   9.961  1.00  0.00     0.277 A 
HETATM   22  C   UNL     1      42.493  -9.940  11.016  1.00  0.00     0.028 A 
HETATM   23  O   UNL     1      44.793 -11.889   9.127  1.00  0.00    -0.266 OA
HETATM   24  N   UNL     1      44.585 -10.875  11.230  1.00  0.00    -0.321 N 
HETATM   25  C   UNL     1      43.599 -10.111  11.849  1.00  0.00     0.048 A 
HETATM   26  H   UNL     1      45.476 -11.131  11.629  1.00  0.00     0.169 HD
HETATM   27  C   UNL     1      43.634  -9.563  13.113  1.00  0.00     0.032 A 
HETATM   28  C   UNL     1      42.514  -8.829  13.526  1.00  0.00     0.021 A 
HETATM   29  C   UNL     1      41.400  -8.666  12.674  1.00  0.00     0.012 A 
HETATM   30 BR   UNL     1      39.911  -7.670  13.281  1.00  0.00    -0.051 Br
HETATM   31  C   UNL     1      41.376  -9.225  11.396  1.00  0.00     0.035 A 
ENDBRANCH   2  19
TORSDOF 6
ENDMDL
MODEL 6
REMARK VINA RESULT:      -8.2      5.998      9.840
REMARK  6 active torsions:
REMARK  status: ('A' for Active; 'I' for Inactive)
REMARK    1  A    between atoms: O_2  and  C_3 
REMARK    2  A    between atoms: C_6  and  C_7 
REMARK    3  A    between atoms: C_7  and  C_8 
REMARK       I    between atoms: C_8  and  N_9 
REMARK    4  A    between atoms: N_9  and  C_10 
REMARK    5  A    between atoms: C_10  and  C_11 
REMARK       I    between atoms: C_11  and  N_12 
REMARK    6  A    between atoms: N_12  and  N_13 
ROOT
HETATM    1  C   UNL     1      40.865 -14.463   2.924  1.00  0.00     0.255 C 
HETATM    2  N   UNL     1      42.191 -14.851   2.954  1.00  0.00    -0.245 N 
HETATM    3  O   UNL     1      39.912 -15.230   2.778  1.00  0.00    -0.270 OA
HETATM    4  H   UNL     1      42.918 -14.134   2.970  1.00  0.00     0.192 HD
ENDROOT
BRANCH   1   5
HETATM    5  C   UNL     1      40.641 -12.949   3.022  1.00  0.00     0.227 C 
BRANCH   5   6
HETATM    6  N   UNL     1      40.448 -12.212   1.776  1.00  0.00    -0.352 N 
HETATM    7  C   UNL     1      41.499 -12.023   0.904  1.00  0.00     0.222 C 
HETATM    8  O   UNL     1      42.663 -12.243   1.226  1.00  0.00    -0.273 OA
HETATM    9  H   UNL     1      39.513 -12.210   1.385  1.00  0.00     0.162 HD
BRANCH   7  10
HETATM   10  C   UNL     1      41.105 -11.527  -0.476  1.00  0.00     0.141 C 
BRANCH  10  11
HETATM   11  C   UNL     1      40.761 -12.630  -1.452  1.00  0.00    -0.049 A 
HETATM   12  C   UNL     1      39.488 -13.214  -1.496  1.00  0.00     0.010 A 
HETATM   13  C   UNL     1      39.202 -14.260  -2.380  1.00  0.00     0.037 A 
HETATM   14  C   UNL     1      40.194 -14.757  -3.223  1.00  0.00     0.068 A 
HETATM   15  C   UNL     1      41.473 -14.200  -3.166  1.00  0.00     0.037 A 
HETATM   16  C   UNL     1      41.758 -13.150  -2.290  1.00  0.00     0.010 A 
BRANCH  14  17
HETATM   17  O   UNL     1      40.050 -15.776  -4.124  1.00  0.00    -0.356 OA
HETATM   18  C   UNL     1      38.719 -16.137  -4.475  1.00  0.00     0.210 C 
ENDBRANCH  14  17
ENDBRANCH  10  11
ENDBRANCH   7  10
ENDBRANCH   5   6
ENDBRANCH   1   5
BRANCH   2  19
HETATM   19  N   UNL     1      42.538 -16.156   2.763  1.00  0.00    -0.166 NA
HETATM   20  C   UNL     1      43.124 -16.749   3.751  1.00  0.00     0.157 A 
HETATM   21  C   UNL     1      43.446 -16.202   5.148  1.00  0.00     0.277 A 
HETATM   22  C   UNL     1      43.614 -18.122   3.737  1.00  0.00     0.028 A 
HETATM   23  O   UNL     1      43.166 -15.092   5.547  1.00  0.00    -0.266 OA
HETATM   24  N   UNL     1      44.077 -17.235   5.810  1.00  0.00    -0.321 N 
HETATM   25  C   UNL     1      44.177 -18.358   4.992  1.00  0.00     0.048 A 
HETATM   26  H   UNL     1      44.408 -17.161   6.761  1.00  0.00     0.169 HD
HETATM   27  C   UNL     1      44.742 -19.575   5.305  1.00  0.00     0.032 A 
HETATM   28  C   UNL     1      44.729 -20.563   4.312  1.00  0.00     0.021 A 
HETATM   29  C   UNL     1      44.159 -20.311   3.046  1.00  0.00     0.012 A 
HETATM   30 BR   UNL     1      44.171 -21.678   1.739  1.00  0.00    -0.051 Br
HETATM   31  C   UNL     1      43.590 -19.075   2.740  1.00  0.00     0.035 A 
ENDBRANCH   2  19
TORSDOF 6
ENDMDL
MODEL 7
REMARK VINA RESULT:      -8.1      2.719      3.436
REMARK  6 active torsions:
REMARK  status: ('A' for Active; 'I' for Inactive)
REMARK    1  A    between atoms: O_2  and  C_3 
REMARK    2  A    between atoms: C_6  and  C_7 
REMARK    3  A    between atoms: C_7  and  C_8 
REMARK       I    between atoms: C_8  and  N_9 
REMARK    4  A    between atoms: N_9  and  C_10 
REMARK    5  A    between atoms: C_10  and  C_11 
REMARK       I    between atoms: C_11  and  N_12 
REMARK    6  A    between atoms: N_12  and  N_13 
ROOT
HETATM    1  C   UNL     1      40.675 -14.310   5.659  1.00  0.00     0.255 C 
HETATM    2  N   UNL     1      40.309 -15.582   5.263  1.00  0.00    -0.245 N 
HETATM    3  O   UNL     1      41.831 -13.951   5.892  1.00  0.00    -0.270 OA
HETATM    4  H   UNL     1      39.318 -15.816   5.199  1.00  0.00     0.192 HD
ENDROOT
BRANCH   1   5
HETATM    5  C   UNL     1      39.501 -13.343   5.865  1.00  0.00     0.227 C 
BRANCH   5   6
HETATM    6  N   UNL     1      39.524 -12.496   7.053  1.00  0.00    -0.352 N 
HETATM    7  C   UNL     1      39.890 -11.169   6.960  1.00  0.00     0.222 C 
HETATM    8  O   UNL     1      40.428 -10.708   5.958  1.00  0.00    -0.273 OA
HETATM    9  H   UNL     1      38.908 -12.756   7.814  1.00  0.00     0.162 HD
BRANCH   7  10
HETATM   10  C   UNL     1      39.575 -10.331   8.187  1.00  0.00     0.141 C 
BRANCH  10  11
HETATM   11  C   UNL     1      40.547 -10.523   9.330  1.00  0.00    -0.049 A 
HETATM   12  C   UNL     1      41.935 -10.465   9.143  1.00  0.00     0.010 A 
HETATM   13  C   UNL     1      42.817 -10.685  10.207  1.00  0.00     0.037 A 
HETATM   14  C   UNL     1      42.327 -10.989  11.475  1.00  0.00     0.068 A 
HETATM   15  C   UNL     1      40.947 -11.077  11.663  1.00  0.00     0.037 A 
HETATM   16  C   UNL     1      40.063 -10.850  10.604  1.00  0.00     0.010 A 
BRANCH  14  17
HETATM   17  O   UNL     1      43.077 -11.232  12.592  1.00  0.00    -0.356 OA
HETATM   18  C   UNL     1      42.666 -10.587  13.792  1.00  0.00     0.210 C 
ENDBRANCH  14  17
ENDBRANCH  10  11
ENDBRANCH   7  10
ENDBRANCH   5   6
ENDBRANCH   1   5
BRANCH   2  19
HETATM   19  N   UNL     1      41.243 -16.571   5.153  1.00  0.00    -0.166 NA
HETATM   20  C   UNL     1      41.538 -16.956   3.955  1.00  0.00     0.157 A 
HETATM   21  C   UNL     1      41.019 -16.418   2.616  1.00  0.00     0.277 A 
HETATM   22  C   UNL     1      42.473 -18.025   3.622  1.00  0.00     0.028 A 
HETATM   23  O   UNL     1      40.237 -15.501   2.485  1.00  0.00    -0.266 OA
HETATM   24  N   UNL     1      41.644 -17.178   1.648  1.00  0.00    -0.321 N 
HETATM   25  C   UNL     1      42.494 -18.116   2.229  1.00  0.00     0.048 A 
HETATM   26  H   UNL     1      41.491 -17.047   0.659  1.00  0.00     0.169 HD
HETATM   27  C   UNL     1      43.283 -19.044   1.585  1.00  0.00     0.032 A 
HETATM   28  C   UNL     1      44.059 -19.892   2.386  1.00  0.00     0.021 A 
HETATM   29  C   UNL     1      44.026 -19.792   3.794  1.00  0.00     0.012 A 
HETATM   30 BR   UNL     1      45.091 -20.964   4.829  1.00  0.00    -0.051 Br
HETATM   31  C   UNL     1      43.224 -18.848   4.435  1.00  0.00     0.035 A 
ENDBRANCH   2  19
TORSDOF 6
ENDMDL
MODEL 8
REMARK VINA RESULT:      -8.0      7.004     10.723
REMARK  6 active torsions:
REMARK  status: ('A' for Active; 'I' for Inactive)
REMARK    1  A    between atoms: O_2  and  C_3 
REMARK    2  A    between atoms: C_6  and  C_7 
REMARK    3  A    between atoms: C_7  and  C_8 
REMARK       I    between atoms: C_8  and  N_9 
REMARK    4  A    between atoms: N_9  and  C_10 
REMARK    5  A    between atoms: C_10  and  C_11 
REMARK       I    between atoms: C_11  and  N_12 
REMARK    6  A    between atoms: N_12  and  N_13 
ROOT
HETATM    1  C   UNL     1      42.561 -14.125   2.219  1.00  0.00     0.255 C 
HETATM    2  N   UNL     1      42.026 -15.392   2.364  1.00  0.00    -0.245 N 
HETATM    3  O   UNL     1      43.451 -13.653   2.928  1.00  0.00    -0.270 OA
HETATM    4  H   UNL     1      41.218 -15.657   1.801  1.00  0.00     0.192 HD
ENDROOT
BRANCH   1   5
HETATM    5  C   UNL     1      41.909 -13.280   1.117  1.00  0.00     0.227 C 
BRANCH   5   6
HETATM    6  N   UNL     1      41.532 -13.958  -0.120  1.00  0.00    -0.352 N 
HETATM    7  C   UNL     1      41.816 -13.390  -1.344  1.00  0.00     0.222 C 
HETATM    8  O   UNL     1      42.168 -12.219  -1.456  1.00  0.00    -0.273 OA
HETATM    9  H   UNL     1      41.450 -14.967  -0.084  1.00  0.00     0.162 HD
BRANCH   7  10
HETATM   10  C   UNL     1      41.660 -14.322  -2.534  1.00  0.00     0.141 C 
BRANCH  10  11
HETATM   11  C   UNL     1      40.243 -14.426  -3.052  1.00  0.00    -0.049 A 
HETATM   12  C   UNL     1      39.336 -13.362  -2.958  1.00  0.00     0.010 A 
HETATM   13  C   UNL     1      38.018 -13.493  -3.408  1.00  0.00     0.037 A 
HETATM   14  C   UNL     1      37.575 -14.702  -3.942  1.00  0.00     0.068 A 
HETATM   15  C   UNL     1      38.464 -15.776  -4.014  1.00  0.00     0.037 A 
HETATM   16  C   UNL     1      39.783 -15.644  -3.572  1.00  0.00     0.010 A 
BRANCH  14  17
HETATM   17  O   UNL     1      36.317 -14.964  -4.409  1.00  0.00    -0.356 OA
HETATM   18  C   UNL     1      35.663 -13.913  -5.112  1.00  0.00     0.210 C 
ENDBRANCH  14  17
ENDBRANCH  10  11
ENDBRANCH   7  10
ENDBRANCH   5   6
ENDBRANCH   1   5
BRANCH   2  19
HETATM   19  N   UNL     1      42.436 -16.206   3.379  1.00  0.00    -0.166 NA
HETATM   20  C   UNL     1      43.034 -17.300   3.036  1.00  0.00     0.157 A 
HETATM   21  C   UNL     1      43.401 -17.797   1.632  1.00  0.00     0.277 A 
HETATM   22  C   UNL     1      43.508 -18.324   3.960  1.00  0.00     0.028 A 
HETATM   23  O   UNL     1      43.189 -17.198   0.599  1.00  0.00    -0.266 OA
HETATM   24  N   UNL     1      44.018 -19.016   1.824  1.00  0.00    -0.321 N 
HETATM   25  C   UNL     1      44.085 -19.328   3.180  1.00  0.00     0.048 A 
HETATM   26  H   UNL     1      44.370 -19.583   1.067  1.00  0.00     0.169 HD
HETATM   27  C   UNL     1      44.629 -20.455   3.755  1.00  0.00     0.032 A 
HETATM   28  C   UNL     1      44.578 -20.553   5.152  1.00  0.00     0.021 A 
HETATM   29  C   UNL     1      43.989 -19.531   5.928  1.00  0.00     0.012 A 
HETATM   30 BR   UNL     1      43.941 -19.714   7.810  1.00  0.00    -0.051 Br
HETATM   31  C   UNL     1      43.441 -18.394   5.335  1.00  0.00     0.035 A 
ENDBRANCH   2  19
TORSDOF 6
ENDMDL
MODEL 9
REMARK VINA RESULT:      -7.9      6.216      9.235
REMARK  6 active torsions:
REMARK  status: ('A' for Active; 'I' for Inactive)
REMARK    1  A    between atoms: O_2  and  C_3 
REMARK    2  A    between atoms: C_6  and  C_7 
REMARK    3  A    between atoms: C_7  and  C_8 
REMARK       I    between atoms: C_8  and  N_9 
REMARK    4  A    between atoms: N_9  and  C_10 
REMARK    5  A    between atoms: C_10  and  C_11 
REMARK       I    between atoms: C_11  and  N_12 
REMARK    6  A    between atoms: N_12  and  N_13 
ROOT
HETATM    1  C   UNL     1      41.575 -15.366   3.517  1.00  0.00     0.255 C 
HETATM    2  N   UNL     1      40.881 -14.474   2.723  1.00  0.00    -0.245 N 
HETATM    3  O   UNL     1      42.026 -16.447   3.133  1.00  0.00    -0.270 OA
HETATM    4  H   UNL     1      40.452 -13.654   3.154  1.00  0.00     0.192 HD
ENDROOT
BRANCH   1   5
HETATM    5  C   UNL     1      41.703 -14.946   4.988  1.00  0.00     0.227 C 
BRANCH   5   6
HETATM    6  N   UNL     1      42.830 -15.478   5.747  1.00  0.00    -0.352 N 
HETATM    7  C   UNL     1      42.656 -16.542   6.607  1.00  0.00     0.222 C 
HETATM    8  O   UNL     1      41.543 -16.928   6.951  1.00  0.00    -0.273 OA
HETATM    9  H   UNL     1      43.753 -15.348   5.350  1.00  0.00     0.162 HD
BRANCH   7  10
HETATM   10  C   UNL     1      43.941 -17.193   7.089  1.00  0.00     0.141 C 
BRANCH  10  11
HETATM   11  C   UNL     1      44.185 -18.571   6.515  1.00  0.00    -0.049 A 
HETATM   12  C   UNL     1      44.778 -18.759   5.259  1.00  0.00     0.010 A 
HETATM   13  C   UNL     1      44.959 -20.042   4.731  1.00  0.00     0.037 A 
HETATM   14  C   UNL     1      44.529 -21.162   5.441  1.00  0.00     0.068 A 
HETATM   15  C   UNL     1      43.912 -20.981   6.680  1.00  0.00     0.037 A 
HETATM   16  C   UNL     1      43.738 -19.701   7.213  1.00  0.00     0.010 A 
BRANCH  14  17
HETATM   17  O   UNL     1      44.639 -22.463   5.036  1.00  0.00    -0.356 OA
HETATM   18  C   UNL     1      44.656 -22.698   3.633  1.00  0.00     0.210 C 
ENDBRANCH  14  17
ENDBRANCH  10  11
ENDBRANCH   7  10
ENDBRANCH   5   6
ENDBRANCH   1   5
BRANCH   2  19
HETATM   19  N   UNL     1      40.597 -14.776   1.423  1.00  0.00    -0.166 NA
HETATM   20  C   UNL     1      41.120 -14.008   0.524  1.00  0.00     0.157 A 
HETATM   21  C   UNL     1      42.069 -12.817   0.709  1.00  0.00     0.277 A 
HETATM   22  C   UNL     1      40.907 -14.129  -0.914  1.00  0.00     0.028 A 
HETATM   23  O   UNL     1      42.498 -12.422   1.772  1.00  0.00    -0.266 OA
HETATM   24  N   UNL     1      42.319 -12.346  -0.563  1.00  0.00    -0.321 N 
HETATM   25  C   UNL     1      41.645 -13.109  -1.514  1.00  0.00     0.048 A 
HETATM   26  H   UNL     1      42.919 -11.556  -0.753  1.00  0.00     0.169 HD
HETATM   27  C   UNL     1      41.653 -12.942  -2.882  1.00  0.00     0.032 A 
HETATM   28  C   UNL     1      40.889 -13.837  -3.642  1.00  0.00     0.021 A 
HETATM   29  C   UNL     1      40.145 -14.863  -3.022  1.00  0.00     0.012 A 
HETATM   30 BR   UNL     1      39.126 -16.043  -4.094  1.00  0.00    -0.051 Br
HETATM   31  C   UNL     1      40.144 -15.023  -1.636  1.00  0.00     0.035 A 
ENDBRANCH   2  19
TORSDOF 6
ENDMDL
MODEL 10
REMARK VINA RESULT:      -7.8      3.842     10.680
REMARK  6 active torsions:
REMARK  status: ('A' for Active; 'I' for Inactive)
REMARK    1  A    between atoms: O_2  and  C_3 
REMARK    2  A    between atoms: C_6  and  C_7 
REMARK    3  A    between atoms: C_7  and  C_8 
REMARK       I    between atoms: C_8  and  N_9 
REMARK    4  A    between atoms: N_9  and  C_10 
REMARK    5  A    between atoms: C_10  and  C_11 
REMARK       I    between atoms: C_11  and  N_12 
REMARK    6  A    between atoms: N_12  and  N_13 
ROOT
HETATM    1  C   UNL     1      41.592 -12.351   6.386  1.00  0.00     0.255 C 
HETATM    2  N   UNL     1      42.495 -11.681   7.189  1.00  0.00    -0.245 N 
HETATM    3  O   UNL     1      40.368 -12.307   6.516  1.00  0.00    -0.270 OA
HETATM    4  H   UNL     1      43.493 -11.863   7.074  1.00  0.00     0.192 HD
ENDROOT
BRANCH   1   5
HETATM    5  C   UNL     1      42.232 -13.244   5.314  1.00  0.00     0.227 C 
BRANCH   5   6
HETATM    6  N   UNL     1      41.487 -14.425   4.887  1.00  0.00    -0.352 N 
HETATM    7  C   UNL     1      41.721 -14.991   3.652  1.00  0.00     0.222 C 
HETATM    8  O   UNL     1      42.365 -14.415   2.780  1.00  0.00    -0.273 OA
HETATM    9  H   UNL     1      41.132 -15.032   5.617  1.00  0.00     0.162 HD
BRANCH   7  10
HETATM   10  C   UNL     1      41.122 -16.374   3.457  1.00  0.00     0.141 C 
BRANCH  10  11
HETATM   11  C   UNL     1      42.147 -17.484   3.389  1.00  0.00    -0.049 A 
HETATM   12  C   UNL     1      42.469 -18.126   2.186  1.00  0.00     0.010 A 
HETATM   13  C   UNL     1      43.392 -19.177   2.152  1.00  0.00     0.037 A 
HETATM   14  C   UNL     1      43.994 -19.621   3.328  1.00  0.00     0.068 A 
HETATM   15  C   UNL     1      43.657 -19.006   4.534  1.00  0.00     0.037 A 
HETATM   16  C   UNL     1      42.742 -17.950   4.570  1.00  0.00     0.010 A 
BRANCH  14  17
HETATM   17  O   UNL     1      44.902 -20.639   3.433  1.00  0.00    -0.356 OA
HETATM   18  C   UNL     1      45.015 -21.266   4.705  1.00  0.00     0.210 C 
ENDBRANCH  14  17
ENDBRANCH  10  11
ENDBRANCH   7  10
ENDBRANCH   5   6
ENDBRANCH   1   5
BRANCH   2  19
HETATM   19  N   UNL     1      42.065 -10.942   8.252  1.00  0.00    -0.166 NA
HETATM   20  C   UNL     1      42.852 -10.889   9.276  1.00  0.00     0.157 A 
HETATM   21  C   UNL     1      44.246 -11.506   9.451  1.00  0.00     0.277 A 
HETATM   22  C   UNL     1      42.562 -10.195  10.525  1.00  0.00     0.028 A 
HETATM   23  O   UNL     1      44.841 -12.143   8.608  1.00  0.00    -0.266 OA
HETATM   24  N   UNL     1      44.644 -11.157  10.725  1.00  0.00    -0.321 N 
HETATM   25  C   UNL     1      43.666 -10.391  11.356  1.00  0.00     0.048 A 
HETATM   26  H   UNL     1      45.532 -11.429  11.121  1.00  0.00     0.169 HD
HETATM   27  C   UNL     1      43.707  -9.861  12.627  1.00  0.00     0.032 A 
HETATM   28  C   UNL     1      42.595  -9.121  13.050  1.00  0.00     0.021 A 
HETATM   29  C   UNL     1      41.484  -8.933  12.201  1.00  0.00     0.012 A 
HETATM   30 BR   UNL     1      40.006  -7.928  12.822  1.00  0.00    -0.051 Br
HETATM   31  C   UNL     1      41.454  -9.473  10.915  1.00  0.00     0.035 A 
ENDBRANCH   2  19
TORSDOF 6
ENDMDL
