MODEL 1
REMARK VINA RESULT:      -7.3      0.000      0.000
REMARK  5 active torsions:
REMARK  status: ('A' for Active; 'I' for Inactive)
REMARK    1  A    between atoms: C_2  and  N_3 
REMARK    2  A    between atoms: N_3  and  C_6 
REMARK    3  A    between atoms: C_6  and  C_7 
REMARK    4  A    between atoms: C_8  and  N_9 
REMARK       I    between atoms: N_9  and  C_10 
REMARK    5  A    between atoms: C_10  and  C_11 
ROOT
HETATM    1  N   UNL     1      43.867 -18.289   2.930  1.00  0.00    -0.326 N 
HETATM    2  C   UNL     1      42.767 -17.558   3.367  1.00  0.00     0.231 C 
HETATM    3  O   UNL     1      41.824 -18.015   4.007  1.00  0.00    -0.272 OA
HETATM    4  H   UNL     1      44.550 -17.751   2.421  1.00  0.00     0.169 HD
ENDROOT
BRANCH   1   5
HETATM    5  C   UNL     1      44.072 -19.688   3.014  1.00  0.00     0.042 A 
HETATM    6  C   UNL     1      44.600 -20.242   4.205  1.00  0.00    -0.006 A 
HETATM    7  C   UNL     1      44.829 -21.632   4.277  1.00  0.00     0.011 A 
HETATM    8  C   UNL     1      44.543 -22.462   3.196  1.00  0.00     0.001 A 
HETATM    9  C   UNL     1      44.014 -21.918   2.034  1.00  0.00     0.002 A 
HETATM   10  C   UNL     1      43.780 -20.543   1.945  1.00  0.00     0.030 A 
BRANCH   6  11
HETATM   11  C   UNL     1      44.844 -19.432   5.449  1.00  0.00     0.273 C 
BRANCH  11  12
HETATM   12  N   UNL     1      43.629 -19.402   6.320  1.00  0.00    -0.072 N 
HETATM   13  H   UNL     1      43.666 -20.220   6.945  1.00  0.00     0.277 HD
HETATM   14  H   UNL     1      42.794 -19.553   5.735  1.00  0.00     0.277 HD
BRANCH  12  15
HETATM   15  C   UNL     1      43.466 -18.156   7.119  1.00  0.00     0.228 C 
HETATM   16  C   UNL     1      44.506 -17.146   6.678  1.00  0.00     0.034 C 
ENDBRANCH  12  15
ENDBRANCH  11  12
ENDBRANCH   6  11
ENDBRANCH   1   5
BRANCH   2  17
HETATM   17  C   UNL     1      42.868 -16.043   3.150  1.00  0.00     0.122 C 
HETATM   18  C   UNL     1      41.851 -15.218   3.909  1.00  0.00    -0.028 A 
HETATM   19  C   UNL     1      40.758 -14.794   3.143  1.00  0.00     0.007 A 
HETATM   20  C   UNL     1      41.909 -14.924   5.267  1.00  0.00     0.009 A 
HETATM   21  C   UNL     1      39.720 -14.072   3.706  1.00  0.00     0.019 A 
HETATM   22  S   UNL     1      40.866 -15.356   1.470  1.00  0.00    -0.128 SA
HETATM   23  C   UNL     1      39.780 -13.769   5.067  1.00  0.00     0.001 A 
HETATM   24  C   UNL     1      40.866 -14.195   5.843  1.00  0.00     0.001 A 
HETATM   25  C   UNL     1      42.646 -15.735   1.661  1.00  0.00     0.098 C 
ENDBRANCH   2  17
TORSDOF 5
ENDMDL
MODEL 2
REMARK VINA RESULT:      -7.1      1.510      2.311
REMARK  5 active torsions:
REMARK  status: ('A' for Active; 'I' for Inactive)
REMARK    1  A    between atoms: C_2  and  N_3 
REMARK    2  A    between atoms: N_3  and  C_6 
REMARK    3  A    between atoms: C_6  and  C_7 
REMARK    4  A    between atoms: C_8  and  N_9 
REMARK       I    between atoms: N_9  and  C_10 
REMARK    5  A    between atoms: C_10  and  C_11 
ROOT
HETATM    1  N   UNL     1      42.784 -17.531   3.465  1.00  0.00    -0.326 N 
HETATM    2  C   UNL     1      41.699 -17.224   4.280  1.00  0.00     0.231 C 
HETATM    3  O   UNL     1      41.118 -18.019   5.013  1.00  0.00    -0.272 OA
HETATM    4  H   UNL     1      43.139 -16.753   2.933  1.00  0.00     0.169 HD
ENDROOT
BRANCH   1   5
HETATM    5  C   UNL     1      43.353 -18.804   3.216  1.00  0.00     0.042 A 
HETATM    6  C   UNL     1      44.298 -19.333   4.128  1.00  0.00    -0.006 A 
HETATM    7  C   UNL     1      44.884 -20.588   3.864  1.00  0.00     0.011 A 
HETATM    8  C   UNL     1      44.545 -21.311   2.723  1.00  0.00     0.001 A 
HETATM    9  C   UNL     1      43.609 -20.796   1.838  1.00  0.00     0.002 A 
HETATM   10  C   UNL     1      43.018 -19.555   2.083  1.00  0.00     0.030 A 
BRANCH   6  11
HETATM   11  C   UNL     1      44.646 -18.663   5.430  1.00  0.00     0.273 C 
BRANCH  11  12
HETATM   12  N   UNL     1      43.751 -19.130   6.532  1.00  0.00    -0.072 N 
HETATM   13  H   UNL     1      43.868 -20.149   6.627  1.00  0.00     0.277 HD
HETATM   14  H   UNL     1      42.769 -19.002   6.243  1.00  0.00     0.277 HD
BRANCH  12  15
HETATM   15  C   UNL     1      43.980 -18.464   7.844  1.00  0.00     0.228 C 
HETATM   16  C   UNL     1      43.124 -17.216   7.922  1.00  0.00     0.034 C 
ENDBRANCH  12  15
ENDBRANCH  11  12
ENDBRANCH   6  11
ENDBRANCH   1   5
BRANCH   2  17
HETATM   17  C   UNL     1      41.348 -15.733   4.356  1.00  0.00     0.122 C 
HETATM   18  C   UNL     1      40.963 -15.099   3.036  1.00  0.00    -0.028 A 
HETATM   19  C   UNL     1      41.983 -14.359   2.427  1.00  0.00     0.007 A 
HETATM   20  C   UNL     1      39.736 -15.251   2.400  1.00  0.00     0.009 A 
HETATM   21  C   UNL     1      41.801 -13.758   1.193  1.00  0.00     0.019 A 
HETATM   22  S   UNL     1      43.472 -14.376   3.381  1.00  0.00    -0.128 SA
HETATM   23  C   UNL     1      40.567 -13.904   0.557  1.00  0.00     0.001 A 
HETATM   24  C   UNL     1      39.542 -14.648   1.156  1.00  0.00     0.001 A 
HETATM   25  C   UNL     1      42.572 -14.955   4.865  1.00  0.00     0.098 C 
ENDBRANCH   2  17
TORSDOF 5
ENDMDL
MODEL 3
REMARK VINA RESULT:      -6.9      2.337      6.366
REMARK  5 active torsions:
REMARK  status: ('A' for Active; 'I' for Inactive)
REMARK    1  A    between atoms: C_2  and  N_3 
REMARK    2  A    between atoms: N_3  and  C_6 
REMARK    3  A    between atoms: C_6  and  C_7 
REMARK    4  A    between atoms: C_8  and  N_9 
REMARK       I    between atoms: N_9  and  C_10 
REMARK    5  A    between atoms: C_10  and  C_11 
ROOT
HETATM    1  N   UNL     1      42.870 -16.774   3.590  1.00  0.00    -0.326 N 
HETATM    2  C   UNL     1      42.948 -17.865   4.449  1.00  0.00     0.231 C 
HETATM    3  O   UNL     1      41.989 -18.419   4.978  1.00  0.00    -0.272 OA
HETATM    4  H   UNL     1      43.760 -16.450   3.244  1.00  0.00     0.169 HD
ENDROOT
BRANCH   1   5
HETATM    5  C   UNL     1      41.725 -16.014   3.250  1.00  0.00     0.042 A 
HETATM    6  C   UNL     1      41.458 -14.810   3.947  1.00  0.00    -0.006 A 
HETATM    7  C   UNL     1      40.303 -14.068   3.626  1.00  0.00     0.011 A 
HETATM    8  C   UNL     1      39.425 -14.503   2.637  1.00  0.00     0.001 A 
HETATM    9  C   UNL     1      39.694 -15.676   1.947  1.00  0.00     0.002 A 
HETATM   10  C   UNL     1      40.834 -16.424   2.251  1.00  0.00     0.030 A 
BRANCH   6  11
HETATM   11  C   UNL     1      42.405 -14.221   4.958  1.00  0.00     0.273 C 
BRANCH  11  12
HETATM   12  N   UNL     1      42.172 -14.801   6.315  1.00  0.00    -0.072 N 
HETATM   13  H   UNL     1      41.476 -15.555   6.224  1.00  0.00     0.277 HD
HETATM   14  H   UNL     1      41.718 -14.092   6.910  1.00  0.00     0.277 HD
BRANCH  12  15
HETATM   15  C   UNL     1      43.396 -15.315   6.991  1.00  0.00     0.228 C 
HETATM   16  C   UNL     1      44.591 -14.502   6.537  1.00  0.00     0.034 C 
ENDBRANCH  12  15
ENDBRANCH  11  12
ENDBRANCH   6  11
ENDBRANCH   1   5
BRANCH   2  17
HETATM   17  C   UNL     1      44.345 -18.486   4.582  1.00  0.00     0.122 C 
HETATM   18  C   UNL     1      44.471 -19.897   4.049  1.00  0.00    -0.028 A 
HETATM   19  C   UNL     1      44.434 -20.895   5.031  1.00  0.00     0.007 A 
HETATM   20  C   UNL     1      44.557 -20.243   2.705  1.00  0.00     0.009 A 
HETATM   21  C   UNL     1      44.490 -22.238   4.697  1.00  0.00     0.019 A 
HETATM   22  S   UNL     1      44.239 -20.220   6.653  1.00  0.00    -0.128 SA
HETATM   23  C   UNL     1      44.584 -22.586   3.349  1.00  0.00     0.001 A 
HETATM   24  C   UNL     1      44.615 -21.594   2.359  1.00  0.00     0.001 A 
HETATM   25  C   UNL     1      44.723 -18.554   6.070  1.00  0.00     0.098 C 
ENDBRANCH   2  17
TORSDOF 5
ENDMDL
MODEL 4
REMARK VINA RESULT:      -6.8      2.317      3.580
REMARK  5 active torsions:
REMARK  status: ('A' for Active; 'I' for Inactive)
REMARK    1  A    between atoms: C_2  and  N_3 
REMARK    2  A    between atoms: N_3  and  C_6 
REMARK    3  A    between atoms: C_6  and  C_7 
REMARK    4  A    between atoms: C_8  and  N_9 
REMARK       I    between atoms: N_9  and  C_10 
REMARK    5  A    between atoms: C_10  and  C_11 
ROOT
HETATM    1  N   UNL     1      42.140 -18.325   2.098  1.00  0.00    -0.326 N 
HETATM    2  C   UNL     1      42.383 -17.253   1.245  1.00  0.00     0.231 C 
HETATM    3  O   UNL     1      43.393 -17.108   0.563  1.00  0.00    -0.272 OA
HETATM    4  H   UNL     1      41.254 -18.284   2.578  1.00  0.00     0.169 HD
ENDROOT
BRANCH   1   5
HETATM    5  C   UNL     1      43.022 -19.375   2.450  1.00  0.00     0.042 A 
HETATM    6  C   UNL     1      43.856 -19.231   3.586  1.00  0.00    -0.006 A 
HETATM    7  C   UNL     1      44.753 -20.266   3.919  1.00  0.00     0.011 A 
HETATM    8  C   UNL     1      44.830 -21.423   3.149  1.00  0.00     0.001 A 
HETATM    9  C   UNL     1      44.004 -21.567   2.044  1.00  0.00     0.002 A 
HETATM   10  C   UNL     1      43.108 -20.552   1.699  1.00  0.00     0.030 A 
BRANCH   6  11
HETATM   11  C   UNL     1      43.766 -18.059   4.526  1.00  0.00     0.273 C 
BRANCH  11  12
HETATM   12  N   UNL     1      42.958 -18.398   5.735  1.00  0.00    -0.072 N 
HETATM   13  H   UNL     1      42.466 -19.284   5.551  1.00  0.00     0.277 HD
HETATM   14  H   UNL     1      42.209 -17.697   5.846  1.00  0.00     0.277 HD
BRANCH  12  15
HETATM   15  C   UNL     1      43.740 -18.501   6.998  1.00  0.00     0.228 C 
HETATM   16  C   UNL     1      45.127 -17.937   6.769  1.00  0.00     0.034 C 
ENDBRANCH  12  15
ENDBRANCH  11  12
ENDBRANCH   6  11
ENDBRANCH   1   5
BRANCH   2  17
HETATM   17  C   UNL     1      41.199 -16.296   1.054  1.00  0.00     0.122 C 
HETATM   18  C   UNL     1      41.275 -15.423  -0.180  1.00  0.00    -0.028 A 
HETATM   19  C   UNL     1      41.706 -14.112   0.061  1.00  0.00     0.007 A 
HETATM   20  C   UNL     1      41.013 -15.844  -1.479  1.00  0.00     0.009 A 
HETATM   21  C   UNL     1      41.873 -13.206  -0.973  1.00  0.00     0.019 A 
HETATM   22  S   UNL     1      42.057 -13.836   1.772  1.00  0.00    -0.128 SA
HETATM   23  C   UNL     1      41.602 -13.625  -2.276  1.00  0.00     0.001 A 
HETATM   24  C   UNL     1      41.177 -14.936  -2.527  1.00  0.00     0.001 A 
HETATM   25  C   UNL     1      41.131 -15.338   2.255  1.00  0.00     0.098 C 
ENDBRANCH   2  17
TORSDOF 5
ENDMDL
MODEL 5
REMARK VINA RESULT:      -6.7      3.311      7.515
REMARK  5 active torsions:
REMARK  status: ('A' for Active; 'I' for Inactive)
REMARK    1  A    between atoms: C_2  and  N_3 
REMARK    2  A    between atoms: N_3  and  C_6 
REMARK    3  A    between atoms: C_6  and  C_7 
REMARK    4  A    between atoms: C_8  and  N_9 
REMARK       I    between atoms: N_9  and  C_10 
REMARK    5  A    between atoms: C_10  and  C_11 
ROOT
HETATM    1  N   UNL     1      41.374 -14.959   1.614  1.00  0.00    -0.326 N 
HETATM    2  C   UNL     1      41.758 -16.211   2.082  1.00  0.00     0.231 C 
HETATM    3  O   UNL     1      41.108 -17.244   1.953  1.00  0.00    -0.272 OA
HETATM    4  H   UNL     1      42.034 -14.221   1.805  1.00  0.00     0.169 HD
ENDROOT
BRANCH   1   5
HETATM    5  C   UNL     1      40.141 -14.591   1.023  1.00  0.00     0.042 A 
HETATM    6  C   UNL     1      40.127 -14.097  -0.304  1.00  0.00    -0.006 A 
HETATM    7  C   UNL     1      38.901 -13.706  -0.883  1.00  0.00     0.011 A 
HETATM    8  C   UNL     1      37.711 -13.800  -0.168  1.00  0.00     0.001 A 
HETATM    9  C   UNL     1      37.725 -14.296   1.128  1.00  0.00     0.002 A 
HETATM   10  C   UNL     1      38.929 -14.689   1.716  1.00  0.00     0.030 A 
BRANCH   6  11
HETATM   11  C   UNL     1      41.352 -14.056  -1.177  1.00  0.00     0.273 C 
BRANCH  11  12
HETATM   12  N   UNL     1      41.513 -15.330  -1.941  1.00  0.00    -0.072 N 
HETATM   13  H   UNL     1      40.999 -16.069  -1.439  1.00  0.00     0.277 HD
HETATM   14  H   UNL     1      42.501 -15.622  -1.902  1.00  0.00     0.277 HD
BRANCH  12  15
HETATM   15  C   UNL     1      41.062 -15.267  -3.359  1.00  0.00     0.228 C 
HETATM   16  C   UNL     1      39.842 -16.149  -3.530  1.00  0.00     0.034 C 
ENDBRANCH  12  15
ENDBRANCH  11  12
ENDBRANCH   6  11
ENDBRANCH   1   5
BRANCH   2  17
HETATM   17  C   UNL     1      43.182 -16.282   2.647  1.00  0.00     0.122 C 
HETATM   18  C   UNL     1      43.662 -17.673   3.001  1.00  0.00    -0.028 A 
HETATM   19  C   UNL     1      43.595 -17.983   4.365  1.00  0.00     0.007 A 
HETATM   20  C   UNL     1      44.086 -18.632   2.087  1.00  0.00     0.009 A 
HETATM   21  C   UNL     1      43.953 -19.233   4.839  1.00  0.00     0.019 A 
HETATM   22  S   UNL     1      42.949 -16.640   5.316  1.00  0.00    -0.128 SA
HETATM   23  C   UNL     1      44.387 -20.194   3.925  1.00  0.00     0.001 A 
HETATM   24  C   UNL     1      44.450 -19.896   2.557  1.00  0.00     0.001 A 
HETATM   25  C   UNL     1      43.246 -15.463   3.947  1.00  0.00     0.098 C 
ENDBRANCH   2  17
TORSDOF 5
ENDMDL
MODEL 6
REMARK VINA RESULT:      -6.7      1.694      3.180
REMARK  5 active torsions:
REMARK  status: ('A' for Active; 'I' for Inactive)
REMARK    1  A    between atoms: C_2  and  N_3 
REMARK    2  A    between atoms: N_3  and  C_6 
REMARK    3  A    between atoms: C_6  and  C_7 
REMARK    4  A    between atoms: C_8  and  N_9 
REMARK       I    between atoms: N_9  and  C_10 
REMARK    5  A    between atoms: C_10  and  C_11 
ROOT
HETATM    1  N   UNL     1      43.720 -17.545   4.444  1.00  0.00    -0.326 N 
HETATM    2  C   UNL     1      42.518 -17.022   4.908  1.00  0.00     0.231 C 
HETATM    3  O   UNL     1      41.449 -17.624   4.936  1.00  0.00    -0.272 OA
HETATM    4  H   UNL     1      44.501 -16.910   4.499  1.00  0.00     0.169 HD
ENDROOT
BRANCH   1   5
HETATM    5  C   UNL     1      43.939 -18.792   3.809  1.00  0.00     0.042 A 
HETATM    6  C   UNL     1      43.623 -18.938   2.437  1.00  0.00    -0.006 A 
HETATM    7  C   UNL     1      43.817 -20.188   1.813  1.00  0.00     0.011 A 
HETATM    8  C   UNL     1      44.313 -21.275   2.527  1.00  0.00     0.001 A 
HETATM    9  C   UNL     1      44.634 -21.126   3.869  1.00  0.00     0.002 A 
HETATM   10  C   UNL     1      44.450 -19.895   4.503  1.00  0.00     0.030 A 
BRANCH   6  11
HETATM   11  C   UNL     1      43.176 -17.791   1.572  1.00  0.00     0.273 C 
BRANCH  11  12
HETATM   12  N   UNL     1      41.693 -17.614   1.634  1.00  0.00    -0.072 N 
HETATM   13  H   UNL     1      41.366 -17.991   2.535  1.00  0.00     0.277 HD
HETATM   14  H   UNL     1      41.254 -18.215   0.921  1.00  0.00     0.277 HD
BRANCH  12  15
HETATM   15  C   UNL     1      41.225 -16.210   1.467  1.00  0.00     0.228 C 
HETATM   16  C   UNL     1      39.860 -16.064   2.107  1.00  0.00     0.034 C 
ENDBRANCH  12  15
ENDBRANCH  11  12
ENDBRANCH   6  11
ENDBRANCH   1   5
BRANCH   2  17
HETATM   17  C   UNL     1      42.626 -15.645   5.576  1.00  0.00     0.122 C 
HETATM   18  C   UNL     1      41.536 -14.664   5.200  1.00  0.00    -0.028 A 
HETATM   19  C   UNL     1      41.913 -13.719   4.237  1.00  0.00     0.007 A 
HETATM   20  C   UNL     1      40.234 -14.685   5.686  1.00  0.00     0.009 A 
HETATM   21  C   UNL     1      41.013 -12.784   3.754  1.00  0.00     0.019 A 
HETATM   22  S   UNL     1      43.586 -13.941   3.711  1.00  0.00    -0.128 SA
HETATM   23  C   UNL     1      39.707 -12.799   4.247  1.00  0.00     0.001 A 
HETATM   24  C   UNL     1      39.320 -13.745   5.205  1.00  0.00     0.001 A 
HETATM   25  C   UNL     1      43.954 -14.991   5.164  1.00  0.00     0.098 C 
ENDBRANCH   2  17
TORSDOF 5
ENDMDL
MODEL 7
REMARK VINA RESULT:      -6.7      3.822      7.335
REMARK  5 active torsions:
REMARK  status: ('A' for Active; 'I' for Inactive)
REMARK    1  A    between atoms: C_2  and  N_3 
REMARK    2  A    between atoms: N_3  and  C_6 
REMARK    3  A    between atoms: C_6  and  C_7 
REMARK    4  A    between atoms: C_8  and  N_9 
REMARK       I    between atoms: N_9  and  C_10 
REMARK    5  A    between atoms: C_10  and  C_11 
ROOT
HETATM    1  N   UNL     1      41.793 -15.242  -0.517  1.00  0.00    -0.326 N 
HETATM    2  C   UNL     1      41.830 -16.159   0.528  1.00  0.00     0.231 C 
HETATM    3  O   UNL     1      41.057 -17.102   0.669  1.00  0.00    -0.272 OA
HETATM    4  H   UNL     1      42.508 -14.533  -0.477  1.00  0.00     0.169 HD
ENDROOT
BRANCH   1   5
HETATM    5  C   UNL     1      40.818 -15.124  -1.537  1.00  0.00     0.042 A 
HETATM    6  C   UNL     1      39.731 -14.234  -1.360  1.00  0.00    -0.006 A 
HETATM    7  C   UNL     1      38.746 -14.137  -2.365  1.00  0.00     0.011 A 
HETATM    8  C   UNL     1      38.829 -14.904  -3.524  1.00  0.00     0.001 A 
HETATM    9  C   UNL     1      39.901 -15.767  -3.701  1.00  0.00     0.002 A 
HETATM   10  C   UNL     1      40.886 -15.874  -2.717  1.00  0.00     0.030 A 
BRANCH   6  11
HETATM   11  C   UNL     1      39.618 -13.300  -0.185  1.00  0.00     0.273 C 
BRANCH  11  12
HETATM   12  N   UNL     1      38.917 -13.957   0.959  1.00  0.00    -0.072 N 
HETATM   13  H   UNL     1      39.232 -13.504   1.829  1.00  0.00     0.277 HD
HETATM   14  H   UNL     1      39.241 -14.933   1.037  1.00  0.00     0.277 HD
BRANCH  12  15
HETATM   15  C   UNL     1      37.430 -13.926   0.879  1.00  0.00     0.228 C 
HETATM   16  C   UNL     1      36.980 -12.513   0.567  1.00  0.00     0.034 C 
ENDBRANCH  12  15
ENDBRANCH  11  12
ENDBRANCH   6  11
ENDBRANCH   1   5
BRANCH   2  17
HETATM   17  C   UNL     1      43.046 -16.035   1.455  1.00  0.00     0.122 C 
HETATM   18  C   UNL     1      43.391 -17.289   2.230  1.00  0.00    -0.028 A 
HETATM   19  C   UNL     1      42.952 -17.290   3.559  1.00  0.00     0.007 A 
HETATM   20  C   UNL     1      44.033 -18.405   1.705  1.00  0.00     0.009 A 
HETATM   21  C   UNL     1      43.149 -18.385   4.383  1.00  0.00     0.019 A 
HETATM   22  S   UNL     1      42.093 -15.801   3.973  1.00  0.00    -0.128 SA
HETATM   23  C   UNL     1      43.800 -19.503   3.860  1.00  0.00     0.001 A 
HETATM   24  C   UNL     1      44.236 -19.514   2.529  1.00  0.00     0.001 A 
HETATM   25  C   UNL     1      42.768 -14.945   2.503  1.00  0.00     0.098 C 
ENDBRANCH   2  17
TORSDOF 5
ENDMDL
MODEL 8
REMARK VINA RESULT:      -6.5      1.851      4.376
REMARK  5 active torsions:
REMARK  status: ('A' for Active; 'I' for Inactive)
REMARK    1  A    between atoms: C_2  and  N_3 
REMARK    2  A    between atoms: N_3  and  C_6 
REMARK    3  A    between atoms: C_6  and  C_7 
REMARK    4  A    between atoms: C_8  and  N_9 
REMARK       I    between atoms: N_9  and  C_10 
REMARK    5  A    between atoms: C_10  and  C_11 
ROOT
HETATM    1  N   UNL     1      41.720 -16.661   4.945  1.00  0.00    -0.326 N 
HETATM    2  C   UNL     1      41.309 -15.333   4.904  1.00  0.00     0.231 C 
HETATM    3  O   UNL     1      41.781 -14.426   5.584  1.00  0.00    -0.272 OA
HETATM    4  H   UNL     1      41.224 -17.271   4.314  1.00  0.00     0.169 HD
ENDROOT
BRANCH   1   5
HETATM    5  C   UNL     1      42.646 -17.259   5.834  1.00  0.00     0.042 A 
HETATM    6  C   UNL     1      43.724 -18.013   5.310  1.00  0.00    -0.006 A 
HETATM    7  C   UNL     1      44.631 -18.630   6.197  1.00  0.00     0.011 A 
HETATM    8  C   UNL     1      44.480 -18.507   7.575  1.00  0.00     0.001 A 
HETATM    9  C   UNL     1      43.430 -17.757   8.086  1.00  0.00     0.002 A 
HETATM   10  C   UNL     1      42.523 -17.138   7.223  1.00  0.00     0.030 A 
BRANCH   6  11
HETATM   11  C   UNL     1      44.015 -18.113   3.837  1.00  0.00     0.273 C 
BRANCH  11  12
HETATM   12  N   UNL     1      43.496 -19.395   3.271  1.00  0.00    -0.072 N 
HETATM   13  H   UNL     1      42.882 -19.167   2.476  1.00  0.00     0.277 HD
HETATM   14  H   UNL     1      42.876 -19.841   3.964  1.00  0.00     0.277 HD
BRANCH  12  15
HETATM   15  C   UNL     1      44.548 -20.359   2.844  1.00  0.00     0.228 C 
HETATM   16  C   UNL     1      43.928 -21.393   1.926  1.00  0.00     0.034 C 
ENDBRANCH  12  15
ENDBRANCH  11  12
ENDBRANCH   6  11
ENDBRANCH   1   5
BRANCH   2  17
HETATM   17  C   UNL     1      40.304 -15.000   3.794  1.00  0.00     0.122 C 
HETATM   18  C   UNL     1      40.660 -15.540   2.425  1.00  0.00    -0.028 A 
HETATM   19  C   UNL     1      41.232 -14.600   1.560  1.00  0.00     0.007 A 
HETATM   20  C   UNL     1      40.513 -16.863   2.022  1.00  0.00     0.009 A 
HETATM   21  C   UNL     1      41.656 -14.953   0.290  1.00  0.00     0.019 A 
HETATM   22  S   UNL     1      41.393 -13.013   2.321  1.00  0.00    -0.128 SA
HETATM   23  C   UNL     1      41.501 -16.278  -0.120  1.00  0.00     0.001 A 
HETATM   24  C   UNL     1      40.936 -17.227   0.742  1.00  0.00     0.001 A 
HETATM   25  C   UNL     1      40.214 -13.473   3.642  1.00  0.00     0.098 C 
ENDBRANCH   2  17
TORSDOF 5
ENDMDL
MODEL 9
REMARK VINA RESULT:      -6.4      2.539      4.791
REMARK  5 active torsions:
REMARK  status: ('A' for Active; 'I' for Inactive)
REMARK    1  A    between atoms: C_2  and  N_3 
REMARK    2  A    between atoms: N_3  and  C_6 
REMARK    3  A    between atoms: C_6  and  C_7 
REMARK    4  A    between atoms: C_8  and  N_9 
REMARK       I    between atoms: N_9  and  C_10 
REMARK    5  A    between atoms: C_10  and  C_11 
ROOT
HETATM    1  N   UNL     1      41.006 -16.572   3.567  1.00  0.00    -0.326 N 
HETATM    2  C   UNL     1      41.097 -15.190   3.441  1.00  0.00     0.231 C 
HETATM    3  O   UNL     1      42.080 -14.581   3.028  1.00  0.00    -0.272 OA
HETATM    4  H   UNL     1      40.121 -16.902   3.920  1.00  0.00     0.169 HD
ENDROOT
BRANCH   1   5
HETATM    5  C   UNL     1      42.028 -17.533   3.374  1.00  0.00     0.042 A 
HETATM    6  C   UNL     1      42.242 -18.070   2.082  1.00  0.00    -0.006 A 
HETATM    7  C   UNL     1      43.242 -19.048   1.897  1.00  0.00     0.011 A 
HETATM    8  C   UNL     1      44.018 -19.488   2.965  1.00  0.00     0.001 A 
HETATM    9  C   UNL     1      43.815 -18.952   4.228  1.00  0.00     0.002 A 
HETATM   10  C   UNL     1      42.829 -17.982   4.430  1.00  0.00     0.030 A 
BRANCH   6  11
HETATM   11  C   UNL     1      41.515 -17.579   0.859  1.00  0.00     0.273 C 
BRANCH  11  12
HETATM   12  N   UNL     1      42.182 -16.372   0.283  1.00  0.00    -0.072 N 
HETATM   13  H   UNL     1      43.017 -16.686  -0.232  1.00  0.00     0.277 HD
HETATM   14  H   UNL     1      42.549 -15.793   1.053  1.00  0.00     0.277 HD
BRANCH  12  15
HETATM   15  C   UNL     1      41.317 -15.544  -0.602  1.00  0.00     0.228 C 
HETATM   16  C   UNL     1      41.627 -14.080  -0.368  1.00  0.00     0.034 C 
ENDBRANCH  12  15
ENDBRANCH  11  12
ENDBRANCH   6  11
ENDBRANCH   1   5
BRANCH   2  17
HETATM   17  C   UNL     1      39.790 -14.429   3.694  1.00  0.00     0.122 C 
HETATM   18  C   UNL     1      39.123 -13.872   2.455  1.00  0.00    -0.028 A 
HETATM   19  C   UNL     1      39.342 -12.506   2.240  1.00  0.00     0.007 A 
HETATM   20  C   UNL     1      38.393 -14.615   1.534  1.00  0.00     0.009 A 
HETATM   21  C   UNL     1      38.839 -11.861   1.123  1.00  0.00     0.019 A 
HETATM   22  S   UNL     1      40.364 -11.795   3.496  1.00  0.00    -0.128 SA
HETATM   23  C   UNL     1      38.099 -12.603   0.202  1.00  0.00     0.001 A 
HETATM   24  C   UNL     1      37.880 -13.972   0.405  1.00  0.00     0.001 A 
HETATM   25  C   UNL     1      40.080 -13.224   4.603  1.00  0.00     0.098 C 
ENDBRANCH   2  17
TORSDOF 5
ENDMDL
MODEL 10
REMARK VINA RESULT:      -6.4      1.777      3.482
REMARK  5 active torsions:
REMARK  status: ('A' for Active; 'I' for Inactive)
REMARK    1  A    between atoms: C_2  and  N_3 
REMARK    2  A    between atoms: N_3  and  C_6 
REMARK    3  A    between atoms: C_6  and  C_7 
REMARK    4  A    between atoms: C_8  and  N_9 
REMARK       I    between atoms: N_9  and  C_10 
REMARK    5  A    between atoms: C_10  and  C_11 
ROOT
HETATM    1  N   UNL     1      43.124 -17.204   5.200  1.00  0.00    -0.326 N 
HETATM    2  C   UNL     1      41.879 -16.760   4.766  1.00  0.00     0.231 C 
HETATM    3  O   UNL     1      40.972 -17.483   4.365  1.00  0.00    -0.272 OA
HETATM    4  H   UNL     1      43.748 -16.470   5.499  1.00  0.00     0.169 HD
ENDROOT
BRANCH   1   5
HETATM    5  C   UNL     1      43.643 -18.520   5.157  1.00  0.00     0.042 A 
HETATM    6  C   UNL     1      44.119 -19.040   3.929  1.00  0.00    -0.006 A 
HETATM    7  C   UNL     1      44.610 -20.361   3.882  1.00  0.00     0.011 A 
HETATM    8  C   UNL     1      44.632 -21.157   5.023  1.00  0.00     0.001 A 
HETATM    9  C   UNL     1      44.176 -20.642   6.228  1.00  0.00     0.002 A 
HETATM   10  C   UNL     1      43.687 -19.335   6.294  1.00  0.00     0.030 A 
BRANCH   6  11
HETATM   11  C   UNL     1      44.221 -18.215   2.674  1.00  0.00     0.273 C 
BRANCH  11  12
HETATM   12  N   UNL     1      42.967 -18.306   1.866  1.00  0.00    -0.072 N 
HETATM   13  H   UNL     1      42.196 -18.553   2.503  1.00  0.00     0.277 HD
HETATM   14  H   UNL     1      43.042 -19.104   1.218  1.00  0.00     0.277 HD
BRANCH  12  15
HETATM   15  C   UNL     1      42.625 -17.071   1.106  1.00  0.00     0.228 C 
HETATM   16  C   UNL     1      41.133 -17.047   0.847  1.00  0.00     0.034 C 
ENDBRANCH  12  15
ENDBRANCH  11  12
ENDBRANCH   6  11
ENDBRANCH   1   5
BRANCH   2  17
HETATM   17  C   UNL     1      41.614 -15.265   4.979  1.00  0.00     0.122 C 
HETATM   18  C   UNL     1      41.090 -14.527   3.765  1.00  0.00    -0.028 A 
HETATM   19  C   UNL     1      42.057 -13.790   3.071  1.00  0.00     0.007 A 
HETATM   20  C   UNL     1      39.784 -14.587   3.292  1.00  0.00     0.009 A 
HETATM   21  C   UNL     1      41.744 -13.101   1.912  1.00  0.00     0.019 A 
HETATM   22  S   UNL     1      43.656 -13.931   3.813  1.00  0.00    -0.128 SA
HETATM   23  C   UNL     1      40.432 -13.153   1.440  1.00  0.00     0.001 A 
HETATM   24  C   UNL     1      39.459 -13.894   2.124  1.00  0.00     0.001 A 
HETATM   25  C   UNL     1      42.931 -14.573   5.366  1.00  0.00     0.098 C 
ENDBRANCH   2  17
TORSDOF 5
ENDMDL
