MODEL 1
REMARK VINA RESULT:      -7.3      0.000      0.000
REMARK  14 active torsions:
REMARK  status: ('A' for Active; 'I' for Inactive)
REMARK    1  A    between atoms: C_2  and  N_3 
REMARK    2  A    between atoms: N_3  and  C_5 
REMARK    3  A    between atoms: N_3  and  C_37 
REMARK    4  A    between atoms: C_5  and  C_6 
REMARK    5  A    between atoms: C_6  and  N_7 
REMARK    6  A    between atoms: C_10  and  O_11 
REMARK    7  A    between atoms: C_12  and  C_13 
REMARK    8  A    between atoms: C_13  and  C_14 
REMARK    9  A    between atoms: C_18  and  O_19 
REMARK   10  A    between atoms: O_19  and  C_20 
REMARK   11  A    between atoms: C_26  and  C_27 
REMARK   12  A    between atoms: C_29  and  O_30 
REMARK   13  A    between atoms: O_30  and  C_31 
REMARK   14  A    between atoms: C_33  and  O_34 
ROOT
HETATM    1  N   UNL     1      39.585 -13.297   1.833  1.00  0.00    -0.332 N 
HETATM    2  C   UNL     1      39.726 -12.407   2.874  1.00  0.00     0.278 C 
HETATM    3  O   UNL     1      38.866 -11.698   3.365  1.00  0.00    -0.265 OA
HETATM    4  C   UNL     1      41.107 -12.521   3.377  1.00  0.00     0.146 C 
HETATM    5  C   UNL     1      41.682 -13.530   2.710  1.00  0.00     0.059 C 
HETATM    6  C   UNL     1      40.818 -14.037   1.593  1.00  0.00     0.161 C 
ENDROOT
BRANCH   5   7
HETATM    7  C   UNL     1      42.966 -14.214   2.979  1.00  0.00     0.193 C 
HETATM    8  O   UNL     1      43.987 -13.552   3.143  1.00  0.00    -0.287 OA
BRANCH   7   9
HETATM    9  C   UNL     1      43.053 -15.694   2.957  1.00  0.00     0.015 A 
HETATM   10  C   UNL     1      42.659 -16.471   4.052  1.00  0.00     0.025 A 
HETATM   11  C   UNL     1      42.784 -17.868   4.018  1.00  0.00    -0.028 A 
HETATM   12  C   UNL     1      42.425 -18.679   5.234  1.00  0.00     0.051 C 
HETATM   13  C   UNL     1      43.276 -18.493   2.858  1.00  0.00     0.075 A 
HETATM   14  C   UNL     1      43.590 -17.719   1.738  1.00  0.00     0.038 A 
HETATM   15  C   UNL     1      43.481 -16.323   1.787  1.00  0.00     0.018 A 
BRANCH  13  16
HETATM   16  O   UNL     1      43.394 -19.853   2.937  1.00  0.00    -0.346 OA
BRANCH  16  17
HETATM   17  C   UNL     1      44.685 -20.466   2.855  1.00  0.00     0.121 C 
HETATM   18  C   UNL     1      45.226 -20.787   4.248  1.00  0.00     0.040 C 
HETATM   19  C   UNL     1      44.491 -21.763   2.072  1.00  0.00     0.040 C 
ENDBRANCH  16  17
ENDBRANCH  13  16
ENDBRANCH   7   9
ENDBRANCH   5   7
BRANCH   4  20
HETATM   20  O   UNL     1      41.582 -11.787   4.420  1.00  0.00    -0.355 OA
HETATM   21  H   UNL     1      41.527 -12.351   5.217  1.00  0.00     0.218 HD
ENDBRANCH   4  20
BRANCH   6  22
HETATM   22  C   UNL     1      41.313 -13.748   0.183  1.00  0.00    -0.028 A 
HETATM   23  C   UNL     1      41.072 -14.677  -0.850  1.00  0.00     0.049 A 
HETATM   24  C   UNL     1      41.466 -14.401  -2.161  1.00  0.00     0.102 A 
HETATM   25  C   UNL     1      42.107 -13.188  -2.434  1.00  0.00     0.099 A 
HETATM   26  C   UNL     1      42.375 -12.267  -1.433  1.00  0.00     0.040 A 
HETATM   27  C   UNL     1      41.982 -12.546  -0.127  1.00  0.00     0.012 A 
BRANCH  24  28
HETATM   28  O   UNL     1      41.271 -15.203  -3.253  1.00  0.00    -0.349 OA
BRANCH  28  29
HETATM   29  C   UNL     1      40.281 -16.225  -3.143  1.00  0.00     0.171 C 
HETATM   30  C   UNL     1      39.192 -15.926  -4.159  1.00  0.00     0.034 C 
ENDBRANCH  28  29
ENDBRANCH  24  28
BRANCH  25  31
HETATM   31  O   UNL     1      42.494 -12.882  -3.709  1.00  0.00    -0.358 OA
HETATM   32  H   UNL     1      41.860 -13.343  -4.291  1.00  0.00     0.218 HD
ENDBRANCH  25  31
ENDBRANCH   6  22
BRANCH   1  33
HETATM   33  C   UNL     1      38.295 -13.736   1.329  1.00  0.00     0.155 C 
BRANCH  33  34
HETATM   34  C   UNL     1      37.602 -12.690   0.437  1.00  0.00     0.254 C 
BRANCH  34  35
HETATM   35  N   UNL     1      38.397 -12.331  -0.815  1.00  0.00    -0.070 N 
HETATM   36  H   UNL     1      39.354 -12.661  -0.623  1.00  0.00     0.279 HD
BRANCH  35  37
HETATM   37  C   UNL     1      38.536 -10.837  -1.073  1.00  0.00     0.230 C 
HETATM   38  C   UNL     1      39.114 -10.105   0.123  1.00  0.00     0.034 C 
ENDBRANCH  35  37
BRANCH  35  39
HETATM   39  C   UNL     1      37.962 -13.052  -2.079  1.00  0.00     0.230 C 
HETATM   40  C   UNL     1      38.515 -12.384  -3.323  1.00  0.00     0.034 C 
ENDBRANCH  35  39
ENDBRANCH  34  35
ENDBRANCH  33  34
ENDBRANCH   1  33
TORSDOF 14
ENDMDL
MODEL 2
REMARK VINA RESULT:      -7.2      0.799      1.966
REMARK  14 active torsions:
REMARK  status: ('A' for Active; 'I' for Inactive)
REMARK    1  A    between atoms: C_2  and  N_3 
REMARK    2  A    between atoms: N_3  and  C_5 
REMARK    3  A    between atoms: N_3  and  C_37 
REMARK    4  A    between atoms: C_5  and  C_6 
REMARK    5  A    between atoms: C_6  and  N_7 
REMARK    6  A    between atoms: C_10  and  O_11 
REMARK    7  A    between atoms: C_12  and  C_13 
REMARK    8  A    between atoms: C_13  and  C_14 
REMARK    9  A    between atoms: C_18  and  O_19 
REMARK   10  A    between atoms: O_19  and  C_20 
REMARK   11  A    between atoms: C_26  and  C_27 
REMARK   12  A    between atoms: C_29  and  O_30 
REMARK   13  A    between atoms: O_30  and  C_31 
REMARK   14  A    between atoms: C_33  and  O_34 
ROOT
HETATM    1  N   UNL     1      39.646 -13.344   2.078  1.00  0.00    -0.332 N 
HETATM    2  C   UNL     1      39.946 -12.284   2.903  1.00  0.00     0.278 C 
HETATM    3  O   UNL     1      39.182 -11.438   3.331  1.00  0.00    -0.265 OA
HETATM    4  C   UNL     1      41.370 -12.392   3.273  1.00  0.00     0.146 C 
HETATM    5  C   UNL     1      41.817 -13.546   2.761  1.00  0.00     0.059 C 
HETATM    6  C   UNL     1      40.808 -14.198   1.861  1.00  0.00     0.161 C 
ENDROOT
BRANCH   5   7
HETATM    7  C   UNL     1      43.091 -14.252   3.024  1.00  0.00     0.193 C 
HETATM    8  O   UNL     1      44.122 -13.607   3.193  1.00  0.00    -0.287 OA
BRANCH   7   9
HETATM    9  C   UNL     1      43.156 -15.733   2.991  1.00  0.00     0.015 A 
HETATM   10  C   UNL     1      42.704 -16.514   4.061  1.00  0.00     0.025 A 
HETATM   11  C   UNL     1      42.808 -17.912   4.018  1.00  0.00    -0.028 A 
HETATM   12  C   UNL     1      42.386 -18.729   5.210  1.00  0.00     0.051 C 
HETATM   13  C   UNL     1      43.338 -18.534   2.874  1.00  0.00     0.075 A 
HETATM   14  C   UNL     1      43.712 -17.754   1.776  1.00  0.00     0.038 A 
HETATM   15  C   UNL     1      43.623 -16.358   1.834  1.00  0.00     0.018 A 
BRANCH  13  16
HETATM   16  O   UNL     1      43.432 -19.897   2.944  1.00  0.00    -0.346 OA
BRANCH  16  17
HETATM   17  C   UNL     1      44.716 -20.529   2.910  1.00  0.00     0.121 C 
HETATM   18  C   UNL     1      45.192 -20.873   4.322  1.00  0.00     0.040 C 
HETATM   19  C   UNL     1      44.535 -21.815   2.106  1.00  0.00     0.040 C 
ENDBRANCH  16  17
ENDBRANCH  13  16
ENDBRANCH   7   9
ENDBRANCH   5   7
BRANCH   4  20
HETATM   20  O   UNL     1      41.994 -11.507   4.095  1.00  0.00    -0.355 OA
HETATM   21  H   UNL     1      41.446 -10.696   4.114  1.00  0.00     0.218 HD
ENDBRANCH   4  20
BRANCH   6  22
HETATM   22  C   UNL     1      41.150 -14.216   0.379  1.00  0.00    -0.028 A 
HETATM   23  C   UNL     1      41.777 -13.099  -0.211  1.00  0.00     0.049 A 
HETATM   24  C   UNL     1      42.153 -13.122  -1.556  1.00  0.00     0.102 A 
HETATM   25  C   UNL     1      41.895 -14.270  -2.311  1.00  0.00     0.099 A 
HETATM   26  C   UNL     1      41.260 -15.373  -1.763  1.00  0.00     0.040 A 
HETATM   27  C   UNL     1      40.885 -15.347  -0.422  1.00  0.00     0.012 A 
BRANCH  24  28
HETATM   28  O   UNL     1      42.787 -12.119  -2.238  1.00  0.00    -0.349 OA
BRANCH  28  29
HETATM   29  C   UNL     1      42.447 -10.777  -1.889  1.00  0.00     0.171 C 
HETATM   30  C   UNL     1      43.666 -10.145  -1.238  1.00  0.00     0.034 C 
ENDBRANCH  28  29
ENDBRANCH  24  28
BRANCH  25  31
HETATM   31  O   UNL     1      42.261 -14.329  -3.628  1.00  0.00    -0.358 OA
HETATM   32  H   UNL     1      41.463 -14.079  -4.131  1.00  0.00     0.218 HD
ENDBRANCH  25  31
ENDBRANCH   6  22
BRANCH   1  33
HETATM   33  C   UNL     1      38.289 -13.783   1.807  1.00  0.00     0.155 C 
BRANCH  33  34
HETATM   34  C   UNL     1      37.526 -12.849   0.850  1.00  0.00     0.254 C 
BRANCH  34  35
HETATM   35  N   UNL     1      38.310 -12.492  -0.410  1.00  0.00    -0.070 N 
HETATM   36  H   UNL     1      39.297 -12.655  -0.162  1.00  0.00     0.279 HD
BRANCH  35  37
HETATM   37  C   UNL     1      38.237 -11.025  -0.811  1.00  0.00     0.230 C 
HETATM   38  C   UNL     1      39.199 -10.169  -0.008  1.00  0.00     0.034 C 
ENDBRANCH  35  37
BRANCH  35  39
HETATM   39  C   UNL     1      38.038 -13.386  -1.609  1.00  0.00     0.230 C 
HETATM   40  C   UNL     1      38.595 -12.790  -2.887  1.00  0.00     0.034 C 
ENDBRANCH  35  39
ENDBRANCH  34  35
ENDBRANCH  33  34
ENDBRANCH   1  33
TORSDOF 14
ENDMDL
MODEL 3
REMARK VINA RESULT:      -7.1      2.309      3.427
REMARK  14 active torsions:
REMARK  status: ('A' for Active; 'I' for Inactive)
REMARK    1  A    between atoms: C_2  and  N_3 
REMARK    2  A    between atoms: N_3  and  C_5 
REMARK    3  A    between atoms: N_3  and  C_37 
REMARK    4  A    between atoms: C_5  and  C_6 
REMARK    5  A    between atoms: C_6  and  N_7 
REMARK    6  A    between atoms: C_10  and  O_11 
REMARK    7  A    between atoms: C_12  and  C_13 
REMARK    8  A    between atoms: C_13  and  C_14 
REMARK    9  A    between atoms: C_18  and  O_19 
REMARK   10  A    between atoms: O_19  and  C_20 
REMARK   11  A    between atoms: C_26  and  C_27 
REMARK   12  A    between atoms: C_29  and  O_30 
REMARK   13  A    between atoms: O_30  and  C_31 
REMARK   14  A    between atoms: C_33  and  O_34 
ROOT
HETATM    1  N   UNL     1      40.296 -12.324  -0.492  1.00  0.00    -0.332 N 
HETATM    2  C   UNL     1      41.503 -12.191   0.155  1.00  0.00     0.278 C 
HETATM    3  O   UNL     1      42.233 -11.216   0.169  1.00  0.00    -0.265 OA
HETATM    4  C   UNL     1      41.736 -13.425   0.929  1.00  0.00     0.146 C 
HETATM    5  C   UNL     1      40.631 -14.173   0.808  1.00  0.00     0.059 C 
HETATM    6  C   UNL     1      39.668 -13.606  -0.194  1.00  0.00     0.161 C 
ENDROOT
BRANCH   5   7
HETATM    7  C   UNL     1      40.240 -15.386   1.559  1.00  0.00     0.193 C 
HETATM    8  O   UNL     1      39.083 -15.513   1.951  1.00  0.00    -0.287 OA
BRANCH   7   9
HETATM    9  C   UNL     1      41.250 -16.407   1.927  1.00  0.00     0.015 A 
HETATM   10  C   UNL     1      41.429 -16.822   3.251  1.00  0.00     0.025 A 
HETATM   11  C   UNL     1      42.416 -17.764   3.577  1.00  0.00    -0.028 A 
HETATM   12  C   UNL     1      42.642 -18.140   5.017  1.00  0.00     0.051 C 
HETATM   13  C   UNL     1      43.206 -18.323   2.557  1.00  0.00     0.075 A 
HETATM   14  C   UNL     1      42.967 -17.967   1.227  1.00  0.00     0.038 A 
HETATM   15  C   UNL     1      41.994 -17.011   0.911  1.00  0.00     0.018 A 
BRANCH  13  16
HETATM   16  O   UNL     1      44.163 -19.203   2.980  1.00  0.00    -0.346 OA
BRANCH  16  17
HETATM   17  C   UNL     1      43.860 -20.599   3.075  1.00  0.00     0.121 C 
HETATM   18  C   UNL     1      44.109 -21.304   1.742  1.00  0.00     0.040 C 
HETATM   19  C   UNL     1      44.801 -21.167   4.136  1.00  0.00     0.040 C 
ENDBRANCH  16  17
ENDBRANCH  13  16
ENDBRANCH   7   9
ENDBRANCH   5   7
BRANCH   4  20
HETATM   20  O   UNL     1      42.838 -13.621   1.701  1.00  0.00    -0.355 OA
HETATM   21  H   UNL     1      43.549 -13.058   1.335  1.00  0.00     0.218 HD
ENDBRANCH   4  20
BRANCH   6  22
HETATM   22  C   UNL     1      39.502 -14.399  -1.482  1.00  0.00    -0.028 A 
HETATM   23  C   UNL     1      38.261 -14.396  -2.153  1.00  0.00     0.049 A 
HETATM   24  C   UNL     1      38.108 -15.069  -3.367  1.00  0.00     0.102 A 
HETATM   25  C   UNL     1      39.205 -15.748  -3.907  1.00  0.00     0.099 A 
HETATM   26  C   UNL     1      40.429 -15.785  -3.258  1.00  0.00     0.040 A 
HETATM   27  C   UNL     1      40.578 -15.115  -2.046  1.00  0.00     0.012 A 
BRANCH  24  28
HETATM   28  O   UNL     1      36.971 -15.123  -4.127  1.00  0.00    -0.349 OA
BRANCH  28  29
HETATM   29  C   UNL     1      36.446 -13.885  -4.606  1.00  0.00     0.171 C 
HETATM   30  C   UNL     1      34.981 -14.102  -4.942  1.00  0.00     0.034 C 
ENDBRANCH  28  29
ENDBRANCH  24  28
BRANCH  25  31
HETATM   31  O   UNL     1      39.091 -16.407  -5.101  1.00  0.00    -0.358 OA
HETATM   32  H   UNL     1      38.135 -16.570  -5.217  1.00  0.00     0.218 HD
ENDBRANCH  25  31
ENDBRANCH   6  22
BRANCH   1  33
HETATM   33  C   UNL     1      39.560 -11.201  -1.046  1.00  0.00     0.155 C 
BRANCH  33  34
HETATM   34  C   UNL     1      39.999 -10.830  -2.475  1.00  0.00     0.254 C 
BRANCH  34  35
HETATM   35  N   UNL     1      41.275  -9.994  -2.524  1.00  0.00    -0.070 N 
HETATM   36  H   UNL     1      41.629  -9.995  -1.557  1.00  0.00     0.279 HD
BRANCH  35  37
HETATM   37  C   UNL     1      41.061  -8.527  -2.868  1.00  0.00     0.230 C 
HETATM   38  C   UNL     1      41.193  -8.267  -4.357  1.00  0.00     0.034 C 
ENDBRANCH  35  37
BRANCH  35  39
HETATM   39  C   UNL     1      42.393 -10.582  -3.368  1.00  0.00     0.230 C 
HETATM   40  C   UNL     1      42.227 -12.078  -3.553  1.00  0.00     0.034 C 
ENDBRANCH  35  39
ENDBRANCH  34  35
ENDBRANCH  33  34
ENDBRANCH   1  33
TORSDOF 14
ENDMDL
MODEL 4
REMARK VINA RESULT:      -7.0      2.305      5.069
REMARK  14 active torsions:
REMARK  status: ('A' for Active; 'I' for Inactive)
REMARK    1  A    between atoms: C_2  and  N_3 
REMARK    2  A    between atoms: N_3  and  C_5 
REMARK    3  A    between atoms: N_3  and  C_37 
REMARK    4  A    between atoms: C_5  and  C_6 
REMARK    5  A    between atoms: C_6  and  N_7 
REMARK    6  A    between atoms: C_10  and  O_11 
REMARK    7  A    between atoms: C_12  and  C_13 
REMARK    8  A    between atoms: C_13  and  C_14 
REMARK    9  A    between atoms: C_18  and  O_19 
REMARK   10  A    between atoms: O_19  and  C_20 
REMARK   11  A    between atoms: C_26  and  C_27 
REMARK   12  A    between atoms: C_29  and  O_30 
REMARK   13  A    between atoms: O_30  and  C_31 
REMARK   14  A    between atoms: C_33  and  O_34 
ROOT
HETATM    1  N   UNL     1      40.812 -12.117   1.074  1.00  0.00    -0.332 N 
HETATM    2  C   UNL     1      39.582 -12.406   0.529  1.00  0.00     0.278 C 
HETATM    3  O   UNL     1      38.698 -11.620   0.235  1.00  0.00    -0.265 OA
HETATM    4  C   UNL     1      39.538 -13.856   0.263  1.00  0.00     0.146 C 
HETATM    5  C   UNL     1      40.754 -14.339   0.544  1.00  0.00     0.059 C 
HETATM    6  C   UNL     1      41.637 -13.314   1.193  1.00  0.00     0.161 C 
ENDROOT
BRANCH   5   7
HETATM    7  C   UNL     1      41.323 -15.671   0.239  1.00  0.00     0.193 C 
HETATM    8  O   UNL     1      41.298 -16.095  -0.913  1.00  0.00    -0.287 OA
BRANCH   7   9
HETATM    9  C   UNL     1      41.836 -16.541   1.324  1.00  0.00     0.015 A 
HETATM   10  C   UNL     1      41.138 -16.710   2.525  1.00  0.00     0.025 A 
HETATM   11  C   UNL     1      41.662 -17.512   3.549  1.00  0.00    -0.028 A 
HETATM   12  C   UNL     1      40.932 -17.619   4.861  1.00  0.00     0.051 C 
HETATM   13  C   UNL     1      42.883 -18.181   3.351  1.00  0.00     0.075 A 
HETATM   14  C   UNL     1      43.534 -18.076   2.119  1.00  0.00     0.038 A 
HETATM   15  C   UNL     1      43.015 -17.257   1.109  1.00  0.00     0.018 A 
BRANCH  13  16
HETATM   16  O   UNL     1      43.327 -18.908   4.421  1.00  0.00    -0.346 OA
BRANCH  16  17
HETATM   17  C   UNL     1      44.725 -18.956   4.723  1.00  0.00     0.121 C 
HETATM   18  C   UNL     1      45.003 -18.378   6.111  1.00  0.00     0.040 C 
HETATM   19  C   UNL     1      45.116 -20.432   4.697  1.00  0.00     0.040 C 
ENDBRANCH  16  17
ENDBRANCH  13  16
ENDBRANCH   7   9
ENDBRANCH   5   7
BRANCH   4  20
HETATM   20  O   UNL     1      38.463 -14.478  -0.292  1.00  0.00    -0.355 OA
HETATM   21  H   UNL     1      38.612 -15.441  -0.206  1.00  0.00     0.218 HD
ENDBRANCH   4  20
BRANCH   6  22
HETATM   22  C   UNL     1      41.970 -13.552   2.659  1.00  0.00    -0.028 A 
HETATM   23  C   UNL     1      40.940 -13.554   3.622  1.00  0.00     0.049 A 
HETATM   24  C   UNL     1      41.219 -13.831   4.962  1.00  0.00     0.102 A 
HETATM   25  C   UNL     1      42.538 -14.103   5.336  1.00  0.00     0.099 A 
HETATM   26  C   UNL     1      43.573 -14.086   4.414  1.00  0.00     0.040 A 
HETATM   27  C   UNL     1      43.292 -13.809   3.079  1.00  0.00     0.012 A 
BRANCH  24  28
HETATM   28  O   UNL     1      40.311 -13.887   5.985  1.00  0.00    -0.349 OA
BRANCH  28  29
HETATM   29  C   UNL     1      39.404 -12.792   6.112  1.00  0.00     0.171 C 
HETATM   30  C   UNL     1      40.145 -11.653   6.791  1.00  0.00     0.034 C 
ENDBRANCH  28  29
ENDBRANCH  24  28
BRANCH  25  31
HETATM   31  O   UNL     1      42.843 -14.390   6.638  1.00  0.00    -0.358 OA
HETATM   32  H   UNL     1      42.239 -13.840   7.173  1.00  0.00     0.218 HD
ENDBRANCH  25  31
ENDBRANCH   6  22
BRANCH   1  33
HETATM   33  C   UNL     1      41.364 -10.775   1.130  1.00  0.00     0.155 C 
BRANCH  33  34
HETATM   34  C   UNL     1      41.571 -10.143  -0.259  1.00  0.00     0.254 C 
BRANCH  34  35
HETATM   35  N   UNL     1      42.727 -10.758  -1.043  1.00  0.00    -0.070 N 
HETATM   36  H   UNL     1      43.078 -11.519  -0.444  1.00  0.00     0.279 HD
BRANCH  35  37
HETATM   37  C   UNL     1      43.919  -9.832  -1.249  1.00  0.00     0.230 C 
HETATM   38  C   UNL     1      43.554  -8.378  -1.022  1.00  0.00     0.034 C 
ENDBRANCH  35  37
BRANCH  35  39
HETATM   39  C   UNL     1      42.333 -11.418  -2.353  1.00  0.00     0.230 C 
HETATM   40  C   UNL     1      42.695 -12.891  -2.368  1.00  0.00     0.034 C 
ENDBRANCH  35  39
ENDBRANCH  34  35
ENDBRANCH  33  34
ENDBRANCH   1  33
TORSDOF 14
ENDMDL
MODEL 5
REMARK VINA RESULT:      -6.9      2.291      7.061
REMARK  14 active torsions:
REMARK  status: ('A' for Active; 'I' for Inactive)
REMARK    1  A    between atoms: C_2  and  N_3 
REMARK    2  A    between atoms: N_3  and  C_5 
REMARK    3  A    between atoms: N_3  and  C_37 
REMARK    4  A    between atoms: C_5  and  C_6 
REMARK    5  A    between atoms: C_6  and  N_7 
REMARK    6  A    between atoms: C_10  and  O_11 
REMARK    7  A    between atoms: C_12  and  C_13 
REMARK    8  A    between atoms: C_13  and  C_14 
REMARK    9  A    between atoms: C_18  and  O_19 
REMARK   10  A    between atoms: O_19  and  C_20 
REMARK   11  A    between atoms: C_26  and  C_27 
REMARK   12  A    between atoms: C_29  and  O_30 
REMARK   13  A    between atoms: O_30  and  C_31 
REMARK   14  A    between atoms: C_33  and  O_34 
ROOT
HETATM    1  N   UNL     1      40.321 -12.828   4.605  1.00  0.00    -0.332 N 
HETATM    2  C   UNL     1      39.188 -12.089   4.857  1.00  0.00     0.278 C 
HETATM    3  O   UNL     1      38.627 -11.932   5.926  1.00  0.00    -0.265 OA
HETATM    4  C   UNL     1      38.802 -11.418   3.601  1.00  0.00     0.146 C 
HETATM    5  C   UNL     1      39.762 -11.686   2.707  1.00  0.00     0.059 C 
HETATM    6  C   UNL     1      40.749 -12.696   3.217  1.00  0.00     0.161 C 
ENDROOT
BRANCH   5   7
HETATM    7  C   UNL     1      39.993 -11.081   1.376  1.00  0.00     0.193 C 
HETATM    8  O   UNL     1      40.320  -9.901   1.292  1.00  0.00    -0.287 OA
BRANCH   7   9
HETATM    9  C   UNL     1      39.741 -11.857   0.138  1.00  0.00     0.015 A 
HETATM   10  C   UNL     1      40.772 -12.186  -0.748  1.00  0.00     0.025 A 
HETATM   11  C   UNL     1      40.501 -12.892  -1.929  1.00  0.00    -0.028 A 
HETATM   12  C   UNL     1      41.613 -13.169  -2.905  1.00  0.00     0.051 C 
HETATM   13  C   UNL     1      39.185 -13.304  -2.205  1.00  0.00     0.075 A 
HETATM   14  C   UNL     1      38.173 -13.045  -1.277  1.00  0.00     0.038 A 
HETATM   15  C   UNL     1      38.448 -12.323  -0.109  1.00  0.00     0.018 A 
BRANCH  13  16
HETATM   16  O   UNL     1      39.017 -13.953  -3.398  1.00  0.00    -0.346 OA
BRANCH  16  17
HETATM   17  C   UNL     1      38.143 -15.083  -3.481  1.00  0.00     0.121 C 
HETATM   18  C   UNL     1      36.848 -14.717  -4.207  1.00  0.00     0.040 C 
HETATM   19  C   UNL     1      38.894 -16.144  -4.282  1.00  0.00     0.040 C 
ENDBRANCH  16  17
ENDBRANCH  13  16
ENDBRANCH   7   9
ENDBRANCH   5   7
BRANCH   4  20
HETATM   20  O   UNL     1      37.726 -10.592   3.499  1.00  0.00    -0.355 OA
HETATM   21  H   UNL     1      37.521 -10.275   4.402  1.00  0.00     0.218 HD
ENDBRANCH   4  20
BRANCH   6  22
HETATM   22  C   UNL     1      40.714 -14.061   2.546  1.00  0.00    -0.028 A 
HETATM   23  C   UNL     1      41.905 -14.630   2.049  1.00  0.00     0.049 A 
HETATM   24  C   UNL     1      41.902 -15.907   1.485  1.00  0.00     0.102 A 
HETATM   25  C   UNL     1      40.697 -16.613   1.416  1.00  0.00     0.099 A 
HETATM   26  C   UNL     1      39.508 -16.069   1.876  1.00  0.00     0.040 A 
HETATM   27  C   UNL     1      39.514 -14.794   2.438  1.00  0.00     0.012 A 
BRANCH  24  28
HETATM   28  O   UNL     1      42.988 -16.578   0.991  1.00  0.00    -0.349 OA
BRANCH  28  29
HETATM   29  C   UNL     1      43.987 -16.980   1.928  1.00  0.00     0.171 C 
HETATM   30  C   UNL     1      43.982 -18.498   1.988  1.00  0.00     0.034 C 
ENDBRANCH  28  29
ENDBRANCH  24  28
BRANCH  25  31
HETATM   31  O   UNL     1      40.662 -17.871   0.879  1.00  0.00    -0.358 OA
HETATM   32  H   UNL     1      40.939 -18.468   1.600  1.00  0.00     0.218 HD
ENDBRANCH  25  31
ENDBRANCH   6  22
BRANCH   1  33
HETATM   33  C   UNL     1      41.197 -13.326   5.651  1.00  0.00     0.155 C 
BRANCH  33  34
HETATM   34  C   UNL     1      40.822 -14.736   6.141  1.00  0.00     0.254 C 
BRANCH  34  35
HETATM   35  N   UNL     1      42.028 -15.593   6.517  1.00  0.00    -0.070 N 
HETATM   36  H   UNL     1      42.166 -15.426   7.524  1.00  0.00     0.279 HD
BRANCH  35  37
HETATM   37  C   UNL     1      43.336 -15.171   5.861  1.00  0.00     0.230 C 
HETATM   38  C   UNL     1      44.403 -14.834   6.886  1.00  0.00     0.034 C 
ENDBRANCH  35  37
BRANCH  35  39
HETATM   39  C   UNL     1      41.819 -17.091   6.375  1.00  0.00     0.230 C 
HETATM   40  C   UNL     1      41.678 -17.500   4.922  1.00  0.00     0.034 C 
ENDBRANCH  35  39
ENDBRANCH  34  35
ENDBRANCH  33  34
ENDBRANCH   1  33
TORSDOF 14
ENDMDL
MODEL 6
REMARK VINA RESULT:      -6.8      4.210      8.151
REMARK  14 active torsions:
REMARK  status: ('A' for Active; 'I' for Inactive)
REMARK    1  A    between atoms: C_2  and  N_3 
REMARK    2  A    between atoms: N_3  and  C_5 
REMARK    3  A    between atoms: N_3  and  C_37 
REMARK    4  A    between atoms: C_5  and  C_6 
REMARK    5  A    between atoms: C_6  and  N_7 
REMARK    6  A    between atoms: C_10  and  O_11 
REMARK    7  A    between atoms: C_12  and  C_13 
REMARK    8  A    between atoms: C_13  and  C_14 
REMARK    9  A    between atoms: C_18  and  O_19 
REMARK   10  A    between atoms: O_19  and  C_20 
REMARK   11  A    between atoms: C_26  and  C_27 
REMARK   12  A    between atoms: C_29  and  O_30 
REMARK   13  A    between atoms: O_30  and  C_31 
REMARK   14  A    between atoms: C_33  and  O_34 
ROOT
HETATM    1  N   UNL     1      41.543 -14.058   2.826  1.00  0.00    -0.332 N 
HETATM    2  C   UNL     1      41.920 -12.782   2.475  1.00  0.00     0.278 C 
HETATM    3  O   UNL     1      42.504 -12.433   1.465  1.00  0.00    -0.265 OA
HETATM    4  C   UNL     1      41.407 -11.863   3.508  1.00  0.00     0.146 C 
HETATM    5  C   UNL     1      40.664 -12.597   4.346  1.00  0.00     0.059 C 
HETATM    6  C   UNL     1      40.775 -14.068   4.066  1.00  0.00     0.161 C 
ENDROOT
BRANCH   5   7
HETATM    7  C   UNL     1      39.740 -12.148   5.411  1.00  0.00     0.193 C 
HETATM    8  O   UNL     1      38.528 -12.171   5.216  1.00  0.00    -0.287 OA
BRANCH   7   9
HETATM    9  C   UNL     1      40.263 -11.579   6.677  1.00  0.00     0.015 A 
HETATM   10  C   UNL     1      39.410 -11.152   7.700  1.00  0.00     0.025 A 
HETATM   11  C   UNL     1      39.930 -10.587   8.874  1.00  0.00    -0.028 A 
HETATM   12  C   UNL     1      38.993 -10.065   9.930  1.00  0.00     0.051 C 
HETATM   13  C   UNL     1      41.323 -10.482   9.036  1.00  0.00     0.075 A 
HETATM   14  C   UNL     1      42.172 -10.986   8.046  1.00  0.00     0.038 A 
HETATM   15  C   UNL     1      41.645 -11.531   6.869  1.00  0.00     0.018 A 
BRANCH  13  16
HETATM   16  O   UNL     1      41.729  -9.884  10.197  1.00  0.00    -0.346 OA
BRANCH  16  17
HETATM   17  C   UNL     1      42.558 -10.599  11.119  1.00  0.00     0.121 C 
HETATM   18  C   UNL     1      43.513  -9.650  11.843  1.00  0.00     0.040 C 
HETATM   19  C   UNL     1      41.612 -11.241  12.131  1.00  0.00     0.040 C 
ENDBRANCH  16  17
ENDBRANCH  13  16
ENDBRANCH   7   9
ENDBRANCH   5   7
BRANCH   4  20
HETATM   20  O   UNL     1      41.590 -10.516   3.463  1.00  0.00    -0.355 OA
HETATM   21  H   UNL     1      42.543 -10.351   3.616  1.00  0.00     0.218 HD
ENDBRANCH   4  20
BRANCH   6  22
HETATM   22  C   UNL     1      41.514 -14.892   5.110  1.00  0.00    -0.028 A 
HETATM   23  C   UNL     1      42.859 -14.597   5.415  1.00  0.00     0.049 A 
HETATM   24  C   UNL     1      43.533 -15.303   6.413  1.00  0.00     0.102 A 
HETATM   25  C   UNL     1      42.854 -16.312   7.104  1.00  0.00     0.099 A 
HETATM   26  C   UNL     1      41.540 -16.638   6.809  1.00  0.00     0.040 A 
HETATM   27  C   UNL     1      40.870 -15.932   5.813  1.00  0.00     0.012 A 
BRANCH  24  28
HETATM   28  O   UNL     1      44.824 -15.100   6.820  1.00  0.00    -0.349 OA
BRANCH  28  29
HETATM   29  C   UNL     1      45.298 -13.754   6.837  1.00  0.00     0.171 C 
HETATM   30  C   UNL     1      44.964 -13.162   8.196  1.00  0.00     0.034 C 
ENDBRANCH  28  29
ENDBRANCH  24  28
BRANCH  25  31
HETATM   31  O   UNL     1      43.483 -17.015   8.096  1.00  0.00    -0.358 OA
HETATM   32  H   UNL     1      44.346 -17.275   7.722  1.00  0.00     0.218 HD
ENDBRANCH  25  31
ENDBRANCH   6  22
BRANCH   1  33
HETATM   33  C   UNL     1      41.542 -15.173   1.895  1.00  0.00     0.155 C 
BRANCH  33  34
HETATM   34  C   UNL     1      40.131 -15.574   1.426  1.00  0.00     0.254 C 
BRANCH  34  35
HETATM   35  N   UNL     1      39.690 -14.867   0.147  1.00  0.00    -0.070 N 
HETATM   36  H   UNL     1      39.093 -15.552  -0.340  1.00  0.00     0.279 HD
BRANCH  35  37
HETATM   37  C   UNL     1      40.816 -14.557  -0.830  1.00  0.00     0.230 C 
HETATM   38  C   UNL     1      40.874 -15.559  -1.967  1.00  0.00     0.034 C 
ENDBRANCH  35  37
BRANCH  35  39
HETATM   39  C   UNL     1      38.817 -13.642   0.360  1.00  0.00     0.230 C 
HETATM   40  C   UNL     1      37.404 -14.025   0.754  1.00  0.00     0.034 C 
ENDBRANCH  35  39
ENDBRANCH  34  35
ENDBRANCH  33  34
ENDBRANCH   1  33
TORSDOF 14
ENDMDL
MODEL 7
REMARK VINA RESULT:      -6.8      4.815      8.734
REMARK  14 active torsions:
REMARK  status: ('A' for Active; 'I' for Inactive)
REMARK    1  A    between atoms: C_2  and  N_3 
REMARK    2  A    between atoms: N_3  and  C_5 
REMARK    3  A    between atoms: N_3  and  C_37 
REMARK    4  A    between atoms: C_5  and  C_6 
REMARK    5  A    between atoms: C_6  and  N_7 
REMARK    6  A    between atoms: C_10  and  O_11 
REMARK    7  A    between atoms: C_12  and  C_13 
REMARK    8  A    between atoms: C_13  and  C_14 
REMARK    9  A    between atoms: C_18  and  O_19 
REMARK   10  A    between atoms: O_19  and  C_20 
REMARK   11  A    between atoms: C_26  and  C_27 
REMARK   12  A    between atoms: C_29  and  O_30 
REMARK   13  A    between atoms: O_30  and  C_31 
REMARK   14  A    between atoms: C_33  and  O_34 
ROOT
HETATM    1  N   UNL     1      42.990 -16.969   5.489  1.00  0.00    -0.332 N 
HETATM    2  C   UNL     1      43.038 -17.223   6.841  1.00  0.00     0.278 C 
HETATM    3  O   UNL     1      42.789 -18.273   7.407  1.00  0.00    -0.265 OA
HETATM    4  C   UNL     1      43.543 -16.009   7.508  1.00  0.00     0.146 C 
HETATM    5  C   UNL     1      43.878 -15.146   6.541  1.00  0.00     0.059 C 
HETATM    6  C   UNL     1      43.452 -15.620   5.182  1.00  0.00     0.161 C 
ENDROOT
BRANCH   5   7
HETATM    7  C   UNL     1      44.643 -13.883   6.642  1.00  0.00     0.193 C 
HETATM    8  O   UNL     1      45.633 -13.712   5.936  1.00  0.00    -0.287 OA
BRANCH   7   9
HETATM    9  C   UNL     1      44.285 -12.860   7.654  1.00  0.00     0.015 A 
HETATM   10  C   UNL     1      45.144 -12.536   8.710  1.00  0.00     0.025 A 
HETATM   11  C   UNL     1      44.766 -11.589   9.673  1.00  0.00    -0.028 A 
HETATM   12  C   UNL     1      45.673 -11.311  10.842  1.00  0.00     0.051 C 
HETATM   13  C   UNL     1      43.527 -10.935   9.555  1.00  0.00     0.075 A 
HETATM   14  C   UNL     1      42.709 -11.202   8.453  1.00  0.00     0.038 A 
HETATM   15  C   UNL     1      43.085 -12.163   7.506  1.00  0.00     0.018 A 
BRANCH  13  16
HETATM   16  O   UNL     1      43.235 -10.058  10.562  1.00  0.00    -0.346 OA
BRANCH  16  17
HETATM   17  C   UNL     1      42.248 -10.396  11.542  1.00  0.00     0.121 C 
HETATM   18  C   UNL     1      42.836 -10.338  12.952  1.00  0.00     0.040 C 
HETATM   19  C   UNL     1      41.141  -9.352  11.408  1.00  0.00     0.040 C 
ENDBRANCH  16  17
ENDBRANCH  13  16
ENDBRANCH   7   9
ENDBRANCH   5   7
BRANCH   4  20
HETATM   20  O   UNL     1      43.728 -15.922   8.853  1.00  0.00    -0.355 OA
HETATM   21  H   UNL     1      43.286 -15.102   9.151  1.00  0.00     0.218 HD
ENDBRANCH   4  20
BRANCH   6  22
HETATM   22  C   UNL     1      42.324 -14.837   4.526  1.00  0.00    -0.028 A 
HETATM   23  C   UNL     1      41.241 -14.381   5.305  1.00  0.00     0.049 A 
HETATM   24  C   UNL     1      40.228 -13.610   4.732  1.00  0.00     0.102 A 
HETATM   25  C   UNL     1      40.302 -13.299   3.370  1.00  0.00     0.099 A 
HETATM   26  C   UNL     1      41.344 -13.754   2.577  1.00  0.00     0.040 A 
HETATM   27  C   UNL     1      42.352 -14.524   3.151  1.00  0.00     0.012 A 
BRANCH  24  28
HETATM   28  O   UNL     1      39.140 -13.088   5.379  1.00  0.00    -0.349 OA
BRANCH  28  29
HETATM   29  C   UNL     1      39.377 -12.428   6.622  1.00  0.00     0.171 C 
HETATM   30  C   UNL     1      39.687 -10.971   6.322  1.00  0.00     0.034 C 
ENDBRANCH  28  29
ENDBRANCH  24  28
BRANCH  25  31
HETATM   31  O   UNL     1      39.331 -12.536   2.781  1.00  0.00    -0.358 OA
HETATM   32  H   UNL     1      38.536 -13.102   2.754  1.00  0.00     0.218 HD
ENDBRANCH  25  31
ENDBRANCH   6  22
BRANCH   1  33
HETATM   33  C   UNL     1      42.898 -18.013   4.484  1.00  0.00     0.155 C 
BRANCH  33  34
HETATM   34  C   UNL     1      44.241 -18.712   4.206  1.00  0.00     0.254 C 
BRANCH  34  35
HETATM   35  N   UNL     1      44.299 -19.407   2.848  1.00  0.00    -0.070 N 
HETATM   36  H   UNL     1      45.194 -19.107   2.436  1.00  0.00     0.279 HD
BRANCH  35  37
HETATM   37  C   UNL     1      43.235 -18.955   1.857  1.00  0.00     0.230 C 
HETATM   38  C   UNL     1      43.697 -17.772   1.028  1.00  0.00     0.034 C 
ENDBRANCH  35  37
BRANCH  35  39
HETATM   39  C   UNL     1      44.364 -20.923   2.907  1.00  0.00     0.230 C 
HETATM   40  C   UNL     1      43.713 -21.557   1.693  1.00  0.00     0.034 C 
ENDBRANCH  35  39
ENDBRANCH  34  35
ENDBRANCH  33  34
ENDBRANCH   1  33
TORSDOF 14
ENDMDL
MODEL 8
REMARK VINA RESULT:      -6.7      2.999      7.744
REMARK  14 active torsions:
REMARK  status: ('A' for Active; 'I' for Inactive)
REMARK    1  A    between atoms: C_2  and  N_3 
REMARK    2  A    between atoms: N_3  and  C_5 
REMARK    3  A    between atoms: N_3  and  C_37 
REMARK    4  A    between atoms: C_5  and  C_6 
REMARK    5  A    between atoms: C_6  and  N_7 
REMARK    6  A    between atoms: C_10  and  O_11 
REMARK    7  A    between atoms: C_12  and  C_13 
REMARK    8  A    between atoms: C_13  and  C_14 
REMARK    9  A    between atoms: C_18  and  O_19 
REMARK   10  A    between atoms: O_19  and  C_20 
REMARK   11  A    between atoms: C_26  and  C_27 
REMARK   12  A    between atoms: C_29  and  O_30 
REMARK   13  A    between atoms: O_30  and  C_31 
REMARK   14  A    between atoms: C_33  and  O_34 
ROOT
HETATM    1  N   UNL     1      41.900 -17.004   3.185  1.00  0.00    -0.332 N 
HETATM    2  C   UNL     1      41.693 -17.230   4.527  1.00  0.00     0.278 C 
HETATM    3  O   UNL     1      41.589 -18.305   5.091  1.00  0.00    -0.265 OA
HETATM    4  C   UNL     1      41.710 -15.923   5.210  1.00  0.00     0.146 C 
HETATM    5  C   UNL     1      42.035 -15.008   4.287  1.00  0.00     0.059 C 
HETATM    6  C   UNL     1      42.069 -15.584   2.902  1.00  0.00     0.161 C 
ENDROOT
BRANCH   5   7
HETATM    7  C   UNL     1      42.415 -13.589   4.474  1.00  0.00     0.193 C 
HETATM    8  O   UNL     1      43.598 -13.264   4.422  1.00  0.00    -0.287 OA
BRANCH   7   9
HETATM    9  C   UNL     1      41.394 -12.571   4.818  1.00  0.00     0.015 A 
HETATM   10  C   UNL     1      41.035 -12.308   6.144  1.00  0.00     0.025 A 
HETATM   11  C   UNL     1      40.040 -11.364   6.441  1.00  0.00    -0.028 A 
HETATM   12  C   UNL     1      39.616 -11.150   7.869  1.00  0.00     0.051 C 
HETATM   13  C   UNL     1      39.427 -10.650   5.396  1.00  0.00     0.075 A 
HETATM   14  C   UNL     1      39.848 -10.858   4.079  1.00  0.00     0.038 A 
HETATM   15  C   UNL     1      40.827 -11.816   3.790  1.00  0.00     0.018 A 
BRANCH  13  16
HETATM   16  O   UNL     1      38.446  -9.780   5.784  1.00  0.00    -0.346 OA
BRANCH  16  17
HETATM   17  C   UNL     1      38.508  -8.406   5.387  1.00  0.00     0.121 C 
HETATM   18  C   UNL     1      37.117  -7.873   5.046  1.00  0.00     0.040 C 
HETATM   19  C   UNL     1      39.067  -7.643   6.586  1.00  0.00     0.040 C 
ENDBRANCH  16  17
ENDBRANCH  13  16
ENDBRANCH   7   9
ENDBRANCH   5   7
BRANCH   4  20
HETATM   20  O   UNL     1      41.549 -15.783   6.553  1.00  0.00    -0.355 OA
HETATM   21  H   UNL     1      42.234 -16.333   6.983  1.00  0.00     0.218 HD
ENDBRANCH   4  20
BRANCH   6  22
HETATM   22  C   UNL     1      40.966 -15.123   1.960  1.00  0.00    -0.028 A 
HETATM   23  C   UNL     1      41.292 -14.676   0.663  1.00  0.00     0.049 A 
HETATM   24  C   UNL     1      40.288 -14.306  -0.235  1.00  0.00     0.102 A 
HETATM   25  C   UNL     1      38.953 -14.382   0.174  1.00  0.00     0.099 A 
HETATM   26  C   UNL     1      38.606 -14.795   1.451  1.00  0.00     0.040 A 
HETATM   27  C   UNL     1      39.609 -15.163   2.344  1.00  0.00     0.012 A 
BRANCH  24  28
HETATM   28  O   UNL     1      40.468 -13.881  -1.524  1.00  0.00    -0.349 OA
BRANCH  28  29
HETATM   29  C   UNL     1      41.373 -14.630  -2.336  1.00  0.00     0.171 C 
HETATM   30  C   UNL     1      40.597 -15.781  -2.953  1.00  0.00     0.034 C 
ENDBRANCH  28  29
ENDBRANCH  24  28
BRANCH  25  31
HETATM   31  O   UNL     1      37.946 -14.038  -0.685  1.00  0.00    -0.358 OA
HETATM   32  H   UNL     1      37.135 -14.426  -0.303  1.00  0.00     0.218 HD
ENDBRANCH  25  31
ENDBRANCH   6  22
BRANCH   1  33
HETATM   33  C   UNL     1      42.308 -18.043   2.256  1.00  0.00     0.155 C 
BRANCH  33  34
HETATM   34  C   UNL     1      43.784 -18.452   2.409  1.00  0.00     0.254 C 
BRANCH  34  35
HETATM   35  N   UNL     1      43.991 -19.670   3.305  1.00  0.00    -0.070 N 
HETATM   36  H   UNL     1      43.041 -19.970   3.566  1.00  0.00     0.279 HD
BRANCH  35  37
HETATM   37  C   UNL     1      44.692 -19.376   4.625  1.00  0.00     0.230 C 
HETATM   38  C   UNL     1      44.376 -20.418   5.680  1.00  0.00     0.034 C 
ENDBRANCH  35  37
BRANCH  35  39
HETATM   39  C   UNL     1      44.625 -20.869   2.621  1.00  0.00     0.230 C 
HETATM   40  C   UNL     1      43.628 -21.604   1.747  1.00  0.00     0.034 C 
ENDBRANCH  35  39
ENDBRANCH  34  35
ENDBRANCH  33  34
ENDBRANCH   1  33
TORSDOF 14
ENDMDL
MODEL 9
REMARK VINA RESULT:      -6.7      2.829      4.720
REMARK  14 active torsions:
REMARK  status: ('A' for Active; 'I' for Inactive)
REMARK    1  A    between atoms: C_2  and  N_3 
REMARK    2  A    between atoms: N_3  and  C_5 
REMARK    3  A    between atoms: N_3  and  C_37 
REMARK    4  A    between atoms: C_5  and  C_6 
REMARK    5  A    between atoms: C_6  and  N_7 
REMARK    6  A    between atoms: C_10  and  O_11 
REMARK    7  A    between atoms: C_12  and  C_13 
REMARK    8  A    between atoms: C_13  and  C_14 
REMARK    9  A    between atoms: C_18  and  O_19 
REMARK   10  A    between atoms: O_19  and  C_20 
REMARK   11  A    between atoms: C_26  and  C_27 
REMARK   12  A    between atoms: C_29  and  O_30 
REMARK   13  A    between atoms: O_30  and  C_31 
REMARK   14  A    between atoms: C_33  and  O_34 
ROOT
HETATM    1  N   UNL     1      42.237 -13.199   5.985  1.00  0.00    -0.332 N 
HETATM    2  C   UNL     1      43.397 -13.551   6.636  1.00  0.00     0.278 C 
HETATM    3  O   UNL     1      44.121 -12.833   7.303  1.00  0.00    -0.265 OA
HETATM    4  C   UNL     1      43.581 -15.005   6.470  1.00  0.00     0.146 C 
HETATM    5  C   UNL     1      42.491 -15.465   5.843  1.00  0.00     0.059 C 
HETATM    6  C   UNL     1      41.595 -14.356   5.373  1.00  0.00     0.161 C 
ENDROOT
BRANCH   5   7
HETATM    7  C   UNL     1      42.053 -16.864   5.637  1.00  0.00     0.193 C 
HETATM    8  O   UNL     1      41.070 -17.289   6.237  1.00  0.00    -0.287 OA
BRANCH   7   9
HETATM    9  C   UNL     1      42.845 -17.786   4.789  1.00  0.00     0.015 A 
HETATM   10  C   UNL     1      43.056 -17.537   3.429  1.00  0.00     0.025 A 
HETATM   11  C   UNL     1      43.781 -18.443   2.640  1.00  0.00    -0.028 A 
HETATM   12  C   UNL     1      43.932 -18.194   1.164  1.00  0.00     0.051 C 
HETATM   13  C   UNL     1      44.330 -19.594   3.234  1.00  0.00     0.075 A 
HETATM   14  C   UNL     1      44.186 -19.797   4.609  1.00  0.00     0.038 A 
HETATM   15  C   UNL     1      43.445 -18.897   5.385  1.00  0.00     0.018 A 
BRANCH  13  16
HETATM   16  O   UNL     1      44.986 -20.433   2.375  1.00  0.00    -0.346 OA
BRANCH  16  17
HETATM   17  C   UNL     1      44.530 -21.779   2.200  1.00  0.00     0.121 C 
HETATM   18  C   UNL     1      44.579 -22.548   3.520  1.00  0.00     0.040 C 
HETATM   19  C   UNL     1      43.083 -21.678   1.723  1.00  0.00     0.040 C 
ENDBRANCH  16  17
ENDBRANCH  13  16
ENDBRANCH   7   9
ENDBRANCH   5   7
BRANCH   4  20
HETATM   20  O   UNL     1      44.629 -15.688   7.004  1.00  0.00    -0.355 OA
HETATM   21  H   UNL     1      45.441 -15.347   6.578  1.00  0.00     0.218 HD
ENDBRANCH   4  20
BRANCH   6  22
HETATM   22  C   UNL     1      41.520 -14.153   3.867  1.00  0.00    -0.028 A 
HETATM   23  C   UNL     1      40.408 -14.637   3.147  1.00  0.00     0.049 A 
HETATM   24  C   UNL     1      40.293 -14.408   1.775  1.00  0.00     0.102 A 
HETATM   25  C   UNL     1      41.302 -13.691   1.122  1.00  0.00     0.099 A 
HETATM   26  C   UNL     1      42.416 -13.223   1.801  1.00  0.00     0.040 A 
HETATM   27  C   UNL     1      42.528 -13.455   3.169  1.00  0.00     0.012 A 
BRANCH  24  28
HETATM   28  O   UNL     1      39.258 -14.801   0.970  1.00  0.00    -0.349 OA
BRANCH  28  29
HETATM   29  C   UNL     1      37.983 -14.207   1.211  1.00  0.00     0.171 C 
HETATM   30  C   UNL     1      37.660 -13.308   0.029  1.00  0.00     0.034 C 
ENDBRANCH  28  29
ENDBRANCH  24  28
BRANCH  25  31
HETATM   31  O   UNL     1      41.214 -13.439  -0.219  1.00  0.00    -0.358 OA
HETATM   32  H   UNL     1      40.268 -13.538  -0.441  1.00  0.00     0.218 HD
ENDBRANCH  25  31
ENDBRANCH   6  22
BRANCH   1  33
HETATM   33  C   UNL     1      41.537 -11.949   6.224  1.00  0.00     0.155 C 
BRANCH  33  34
HETATM   34  C   UNL     1      40.013 -12.121   6.364  1.00  0.00     0.254 C 
BRANCH  34  35
HETATM   35  N   UNL     1      39.207 -11.080   5.593  1.00  0.00    -0.070 N 
HETATM   36  H   UNL     1      38.341 -10.960   6.137  1.00  0.00     0.279 HD
BRANCH  35  37
HETATM   37  C   UNL     1      38.750 -11.526   4.211  1.00  0.00     0.230 C 
HETATM   38  C   UNL     1      39.651 -10.991   3.114  1.00  0.00     0.034 C 
ENDBRANCH  35  37
BRANCH  35  39
HETATM   39  C   UNL     1      39.841  -9.701   5.525  1.00  0.00     0.230 C 
HETATM   40  C   UNL     1      39.212  -8.747   6.521  1.00  0.00     0.034 C 
ENDBRANCH  35  39
ENDBRANCH  34  35
ENDBRANCH  33  34
ENDBRANCH   1  33
TORSDOF 14
ENDMDL
MODEL 10
REMARK VINA RESULT:      -6.6      3.807      7.215
REMARK  14 active torsions:
REMARK  status: ('A' for Active; 'I' for Inactive)
REMARK    1  A    between atoms: C_2  and  N_3 
REMARK    2  A    between atoms: N_3  and  C_5 
REMARK    3  A    between atoms: N_3  and  C_37 
REMARK    4  A    between atoms: C_5  and  C_6 
REMARK    5  A    between atoms: C_6  and  N_7 
REMARK    6  A    between atoms: C_10  and  O_11 
REMARK    7  A    between atoms: C_12  and  C_13 
REMARK    8  A    between atoms: C_13  and  C_14 
REMARK    9  A    between atoms: C_18  and  O_19 
REMARK   10  A    between atoms: O_19  and  C_20 
REMARK   11  A    between atoms: C_26  and  C_27 
REMARK   12  A    between atoms: C_29  and  O_30 
REMARK   13  A    between atoms: O_30  and  C_31 
REMARK   14  A    between atoms: C_33  and  O_34 
ROOT
HETATM    1  N   UNL     1      41.515 -16.528   3.342  1.00  0.00    -0.332 N 
HETATM    2  C   UNL     1      41.100 -16.839   4.617  1.00  0.00     0.278 C 
HETATM    3  O   UNL     1      41.075 -17.938   5.141  1.00  0.00    -0.265 OA
HETATM    4  C   UNL     1      40.768 -15.575   5.301  1.00  0.00     0.146 C 
HETATM    5  C   UNL     1      41.101 -14.583   4.466  1.00  0.00     0.059 C 
HETATM    6  C   UNL     1      41.492 -15.089   3.108  1.00  0.00     0.161 C 
ENDROOT
BRANCH   5   7
HETATM    7  C   UNL     1      41.195 -13.130   4.734  1.00  0.00     0.193 C 
HETATM    8  O   UNL     1      40.695 -12.332   3.946  1.00  0.00    -0.287 OA
BRANCH   7   9
HETATM    9  C   UNL     1      41.969 -12.623   5.892  1.00  0.00     0.015 A 
HETATM   10  C   UNL     1      43.199 -13.182   6.257  1.00  0.00     0.025 A 
HETATM   11  C   UNL     1      43.895 -12.707   7.378  1.00  0.00    -0.028 A 
HETATM   12  C   UNL     1      45.178 -13.372   7.798  1.00  0.00     0.051 C 
HETATM   13  C   UNL     1      43.367 -11.634   8.119  1.00  0.00     0.075 A 
HETATM   14  C   UNL     1      42.181 -11.025   7.702  1.00  0.00     0.038 A 
HETATM   15  C   UNL     1      41.482 -11.519   6.593  1.00  0.00     0.018 A 
BRANCH  13  16
HETATM   16  O   UNL     1      44.101 -11.268   9.214  1.00  0.00    -0.346 OA
BRANCH  16  17
HETATM   17  C   UNL     1      43.548 -11.410  10.527  1.00  0.00     0.121 C 
HETATM   18  C   UNL     1      44.273 -12.505  11.308  1.00  0.00     0.040 C 
HETATM   19  C   UNL     1      43.753 -10.066  11.222  1.00  0.00     0.040 C 
ENDBRANCH  16  17
ENDBRANCH  13  16
ENDBRANCH   7   9
ENDBRANCH   5   7
BRANCH   4  20
HETATM   20  O   UNL     1      40.335 -15.519   6.589  1.00  0.00    -0.355 OA
HETATM   21  H   UNL     1      39.396 -15.244   6.564  1.00  0.00     0.218 HD
ENDBRANCH   4  20
BRANCH   6  22
HETATM   22  C   UNL     1      40.525 -14.777   1.976  1.00  0.00    -0.028 A 
HETATM   23  C   UNL     1      41.012 -14.600   0.664  1.00  0.00     0.049 A 
HETATM   24  C   UNL     1      40.133 -14.372  -0.397  1.00  0.00     0.102 A 
HETATM   25  C   UNL     1      38.760 -14.319  -0.138  1.00  0.00     0.099 A 
HETATM   26  C   UNL     1      38.256 -14.467   1.145  1.00  0.00     0.040 A 
HETATM   27  C   UNL     1      39.135 -14.693   2.201  1.00  0.00     0.012 A 
BRANCH  24  28
HETATM   28  O   UNL     1      40.474 -14.209  -1.712  1.00  0.00    -0.349 OA
BRANCH  28  29
HETATM   29  C   UNL     1      40.985 -15.351  -2.400  1.00  0.00     0.171 C 
HETATM   30  C   UNL     1      39.969 -15.747  -3.458  1.00  0.00     0.034 C 
ENDBRANCH  28  29
ENDBRANCH  24  28
BRANCH  25  31
HETATM   31  O   UNL     1      37.872 -14.110  -1.157  1.00  0.00    -0.358 OA
HETATM   32  H   UNL     1      37.911 -13.152  -1.343  1.00  0.00     0.218 HD
ENDBRANCH  25  31
ENDBRANCH   6  22
BRANCH   1  33
HETATM   33  C   UNL     1      42.260 -17.447   2.499  1.00  0.00     0.155 C 
BRANCH  33  34
HETATM   34  C   UNL     1      43.722 -17.632   2.943  1.00  0.00     0.254 C 
BRANCH  34  35
HETATM   35  N   UNL     1      44.174 -19.089   2.968  1.00  0.00    -0.070 N 
HETATM   36  H   UNL     1      45.125 -19.077   2.572  1.00  0.00     0.279 HD
BRANCH  35  37
HETATM   37  C   UNL     1      43.378 -20.017   2.060  1.00  0.00     0.230 C 
HETATM   38  C   UNL     1      43.994 -21.401   1.981  1.00  0.00     0.034 C 
ENDBRANCH  35  37
BRANCH  35  39
HETATM   39  C   UNL     1      44.316 -19.693   4.354  1.00  0.00     0.230 C 
HETATM   40  C   UNL     1      44.652 -18.639   5.391  1.00  0.00     0.034 C 
ENDBRANCH  35  39
ENDBRANCH  34  35
ENDBRANCH  33  34
ENDBRANCH   1  33
TORSDOF 14
ENDMDL
