MODEL 1
REMARK VINA RESULT:     -10.1      0.000      0.000
REMARK  6 active torsions:
REMARK  status: ('A' for Active; 'I' for Inactive)
REMARK    1  A    between atoms: C_4  and  C_5 
REMARK    2  A    between atoms: N_6  and  C_7 
REMARK    3  A    between atoms: C_14  and  S_15 
REMARK    4  A    between atoms: S_15  and  C_16 
REMARK    5  A    between atoms: C_16  and  C_17 
REMARK       I    between atoms: C_17  and  N_18 
REMARK    6  A    between atoms: N_18  and  C_19 
ROOT
HETATM    1  C   UNL     1      41.314 -11.646   5.534  1.00  0.00     0.169 A 
HETATM    2  N   UNL     1      41.801 -12.839   4.990  1.00  0.00    -0.271 N 
HETATM    3  C   UNL     1      41.809 -12.600   3.622  1.00  0.00     0.197 A 
HETATM    4  N   UNL     1      41.413 -11.377   3.369  1.00  0.00    -0.122 NA
HETATM    5  N   UNL     1      41.124 -10.775   4.557  1.00  0.00    -0.128 NA
ENDROOT
BRANCH   3   6
HETATM    6  S   UNL     1      42.477 -13.651   2.409  1.00  0.00    -0.080 SA
BRANCH   6   7
HETATM    7  C   UNL     1      41.053 -14.733   2.062  1.00  0.00     0.185 C 
BRANCH   7   8
HETATM    8  C   UNL     1      41.298 -16.220   2.297  1.00  0.00     0.231 C 
HETATM    9  N   UNL     1      42.616 -16.571   2.526  1.00  0.00    -0.326 N 
HETATM   10  H   UNL     1      43.284 -15.812   2.469  1.00  0.00     0.169 HD
HETATM   11  O   UNL     1      40.336 -16.986   2.364  1.00  0.00    -0.272 OA
BRANCH   9  12
HETATM   12  C   UNL     1      43.146 -17.857   2.753  1.00  0.00     0.037 A 
HETATM   13  C   UNL     1      43.593 -18.300   4.004  1.00  0.00     0.061 A 
HETATM   14  C   UNL     1      44.073 -19.588   4.078  1.00  0.00     0.065 A 
HETATM   15  C   UNL     1      44.125 -20.432   2.972  1.00  0.00     0.063 A 
HETATM   16  N   UNL     1      44.567 -20.289   5.174  1.00  0.00    -0.306 N 
HETATM   17  N   UNL     1      44.650 -21.650   3.386  1.00  0.00    -0.307 N 
HETATM   18  C   UNL     1      43.697 -20.034   1.732  1.00  0.00     0.034 A 
HETATM   19  C   UNL     1      44.930 -21.578   4.760  1.00  0.00     0.325 A 
HETATM   20  H   UNL     1      44.811 -22.471   2.827  1.00  0.00     0.170 HD
HETATM   21  O   UNL     1      45.396 -22.465   5.452  1.00  0.00    -0.247 OA
HETATM   22  C   UNL     1      43.201 -18.727   1.631  1.00  0.00     0.032 A 
HETATM   23  H   UNL     1      44.653 -19.953   6.119  1.00  0.00     0.170 HD
ENDBRANCH   9  12
ENDBRANCH   7   8
ENDBRANCH   6   7
ENDBRANCH   3   6
BRANCH   2  24
HETATM   24  C   UNL     1      42.234 -14.002   5.690  1.00  0.00     0.043 A 
HETATM   25  C   UNL     1      43.523 -14.065   6.237  1.00  0.00     0.032 A 
HETATM   26  C   UNL     1      43.942 -15.215   6.915  1.00  0.00     0.026 A 
HETATM   27  C   UNL     1      43.077 -16.299   7.048  1.00  0.00     0.034 A 
HETATM   28 CL   UNL     1      43.598 -17.710   7.880  1.00  0.00    -0.084 Cl
HETATM   29  C   UNL     1      41.796 -16.246   6.506  1.00  0.00     0.026 A 
HETATM   30  C   UNL     1      41.372 -15.100   5.826  1.00  0.00     0.032 A 
ENDBRANCH   2  24
BRANCH   1  31
HETATM   31  C   UNL     1      40.973 -11.371   6.932  1.00  0.00     0.012 A 
HETATM   32  C   UNL     1      41.938 -10.796   7.772  1.00  0.00     0.015 A 
HETATM   33  C   UNL     1      41.639 -10.503   9.104  1.00  0.00     0.001 A 
HETATM   34  C   UNL     1      40.368 -10.771   9.607  1.00  0.00     0.000 A 
HETATM   35  C   UNL     1      39.393 -11.322   8.779  1.00  0.00     0.001 A 
HETATM   36  C   UNL     1      39.690 -11.613   7.444  1.00  0.00     0.015 A 
ENDBRANCH   1  31
TORSDOF 6
ENDMDL
MODEL 2
REMARK VINA RESULT:      -9.6      3.766      8.572
REMARK  6 active torsions:
REMARK  status: ('A' for Active; 'I' for Inactive)
REMARK    1  A    between atoms: C_4  and  C_5 
REMARK    2  A    between atoms: N_6  and  C_7 
REMARK    3  A    between atoms: C_14  and  S_15 
REMARK    4  A    between atoms: S_15  and  C_16 
REMARK    5  A    between atoms: C_16  and  C_17 
REMARK       I    between atoms: C_17  and  N_18 
REMARK    6  A    between atoms: N_18  and  C_19 
ROOT
HETATM    1  C   UNL     1      44.386 -18.801   5.171  1.00  0.00     0.169 A 
HETATM    2  N   UNL     1      43.731 -17.640   4.752  1.00  0.00    -0.271 N 
HETATM    3  C   UNL     1      43.841 -16.785   5.840  1.00  0.00     0.197 A 
HETATM    4  N   UNL     1      44.530 -17.352   6.799  1.00  0.00    -0.122 NA
HETATM    5  N   UNL     1      44.887 -18.598   6.378  1.00  0.00    -0.128 NA
ENDROOT
BRANCH   3   6
HETATM    6  S   UNL     1      43.369 -15.112   5.873  1.00  0.00    -0.080 SA
BRANCH   6   7
HETATM    7  C   UNL     1      41.561 -15.261   6.025  1.00  0.00     0.185 C 
BRANCH   7   8
HETATM    8  C   UNL     1      40.756 -14.374   5.080  1.00  0.00     0.231 C 
HETATM    9  N   UNL     1      40.792 -14.747   3.749  1.00  0.00    -0.326 N 
HETATM   10  H   UNL     1      41.382 -15.542   3.536  1.00  0.00     0.169 HD
HETATM   11  O   UNL     1      40.067 -13.467   5.546  1.00  0.00    -0.272 OA
BRANCH   9  12
HETATM   12  C   UNL     1      40.169 -14.116   2.652  1.00  0.00     0.037 A 
HETATM   13  C   UNL     1      40.634 -12.927   2.078  1.00  0.00     0.061 A 
HETATM   14  C   UNL     1      39.932 -12.435   1.001  1.00  0.00     0.065 A 
HETATM   15  C   UNL     1      38.804 -13.071   0.489  1.00  0.00     0.063 A 
HETATM   16  N   UNL     1      40.164 -11.296   0.236  1.00  0.00    -0.306 N 
HETATM   17  N   UNL     1      38.342 -12.325  -0.589  1.00  0.00    -0.307 N 
HETATM   18  C   UNL     1      38.319 -14.236   1.025  1.00  0.00     0.034 A 
HETATM   19  C   UNL     1      39.183 -11.213  -0.761  1.00  0.00     0.325 A 
HETATM   20  H   UNL     1      37.549 -12.520  -1.175  1.00  0.00     0.170 HD
HETATM   21  O   UNL     1      39.076 -10.350  -1.613  1.00  0.00    -0.247 OA
HETATM   22  C   UNL     1      39.019 -14.759   2.121  1.00  0.00     0.032 A 
HETATM   23  H   UNL     1      40.910 -10.629   0.353  1.00  0.00     0.170 HD
ENDBRANCH   9  12
ENDBRANCH   7   8
ENDBRANCH   6   7
ENDBRANCH   3   6
BRANCH   2  24
HETATM   24  C   UNL     1      43.137 -17.387   3.481  1.00  0.00     0.043 A 
HETATM   25  C   UNL     1      43.806 -16.609   2.525  1.00  0.00     0.032 A 
HETATM   26  C   UNL     1      43.211 -16.358   1.285  1.00  0.00     0.026 A 
HETATM   27  C   UNL     1      41.953 -16.882   0.997  1.00  0.00     0.034 A 
HETATM   28 CL   UNL     1      41.226 -16.570  -0.530  1.00  0.00    -0.084 Cl
HETATM   29  C   UNL     1      41.281 -17.654   1.940  1.00  0.00     0.026 A 
HETATM   30  C   UNL     1      41.869 -17.907   3.183  1.00  0.00     0.032 A 
ENDBRANCH   2  24
BRANCH   1  31
HETATM   31  C   UNL     1      44.469 -20.087   4.474  1.00  0.00     0.012 A 
HETATM   32  C   UNL     1      44.433 -20.109   3.072  1.00  0.00     0.015 A 
HETATM   33  C   UNL     1      44.530 -21.316   2.376  1.00  0.00     0.001 A 
HETATM   34  C   UNL     1      44.674 -22.513   3.074  1.00  0.00     0.000 A 
HETATM   35  C   UNL     1      44.733 -22.504   4.466  1.00  0.00     0.001 A 
HETATM   36  C   UNL     1      44.640 -21.296   5.164  1.00  0.00     0.015 A 
ENDBRANCH   1  31
TORSDOF 6
ENDMDL
MODEL 3
REMARK VINA RESULT:      -9.6      3.849      6.321
REMARK  6 active torsions:
REMARK  status: ('A' for Active; 'I' for Inactive)
REMARK    1  A    between atoms: C_4  and  C_5 
REMARK    2  A    between atoms: N_6  and  C_7 
REMARK    3  A    between atoms: C_14  and  S_15 
REMARK    4  A    between atoms: S_15  and  C_16 
REMARK    5  A    between atoms: C_16  and  C_17 
REMARK       I    between atoms: C_17  and  N_18 
REMARK    6  A    between atoms: N_18  and  C_19 
ROOT
HETATM    1  C   UNL     1      41.910 -12.793   1.387  1.00  0.00     0.169 A 
HETATM    2  N   UNL     1      40.699 -12.973   2.061  1.00  0.00    -0.271 N 
HETATM    3  C   UNL     1      41.071 -13.571   3.258  1.00  0.00     0.197 A 
HETATM    4  N   UNL     1      42.373 -13.697   3.320  1.00  0.00    -0.122 NA
HETATM    5  N   UNL     1      42.899 -13.196   2.167  1.00  0.00    -0.128 NA
ENDROOT
BRANCH   3   6
HETATM    6  S   UNL     1      40.021 -13.891   4.606  1.00  0.00    -0.080 SA
BRANCH   6   7
HETATM    7  C   UNL     1      41.198 -14.583   5.810  1.00  0.00     0.185 C 
BRANCH   7   8
HETATM    8  C   UNL     1      41.534 -16.058   5.613  1.00  0.00     0.231 C 
HETATM    9  N   UNL     1      42.634 -16.309   4.812  1.00  0.00    -0.326 N 
HETATM   10  H   UNL     1      43.072 -15.490   4.407  1.00  0.00     0.169 HD
HETATM   11  O   UNL     1      40.895 -16.910   6.229  1.00  0.00    -0.272 OA
BRANCH   9  12
HETATM   12  C   UNL     1      43.169 -17.557   4.436  1.00  0.00     0.037 A 
HETATM   13  C   UNL     1      42.819 -18.226   3.257  1.00  0.00     0.061 A 
HETATM   14  C   UNL     1      43.435 -19.432   3.014  1.00  0.00     0.065 A 
HETATM   15  C   UNL     1      44.366 -19.987   3.888  1.00  0.00     0.063 A 
HETATM   16  N   UNL     1      43.293 -20.301   1.936  1.00  0.00    -0.306 N 
HETATM   17  N   UNL     1      44.795 -21.194   3.350  1.00  0.00    -0.307 N 
HETATM   18  C   UNL     1      44.733 -19.362   5.053  1.00  0.00     0.034 A 
HETATM   19  C   UNL     1      44.136 -21.404   2.129  1.00  0.00     0.325 A 
HETATM   20  H   UNL     1      45.469 -21.834   3.736  1.00  0.00     0.170 HD
HETATM   21  O   UNL     1      44.273 -22.358   1.385  1.00  0.00    -0.247 OA
HETATM   22  C   UNL     1      44.122 -18.130   5.321  1.00  0.00     0.032 A 
HETATM   23  H   UNL     1      42.696 -20.177   1.133  1.00  0.00     0.170 HD
ENDBRANCH   9  12
ENDBRANCH   7   8
ENDBRANCH   6   7
ENDBRANCH   3   6
BRANCH   2  24
HETATM   24  C   UNL     1      39.397 -12.583   1.631  1.00  0.00     0.043 A 
HETATM   25  C   UNL     1      38.955 -11.264   1.808  1.00  0.00     0.032 A 
HETATM   26  C   UNL     1      37.673 -10.893   1.391  1.00  0.00     0.026 A 
HETATM   27  C   UNL     1      36.833 -11.834   0.800  1.00  0.00     0.034 A 
HETATM   28 CL   UNL     1      35.257 -11.372   0.291  1.00  0.00    -0.084 Cl
HETATM   29  C   UNL     1      37.262 -13.146   0.622  1.00  0.00     0.026 A 
HETATM   30  C   UNL     1      38.543 -13.524   1.038  1.00  0.00     0.032 A 
ENDBRANCH   2  24
BRANCH   1  31
HETATM   31  C   UNL     1      42.112 -12.320   0.015  1.00  0.00     0.012 A 
HETATM   32  C   UNL     1      41.895 -13.204  -1.052  1.00  0.00     0.015 A 
HETATM   33  C   UNL     1      42.058 -12.780  -2.373  1.00  0.00     0.001 A 
HETATM   34  C   UNL     1      42.431 -11.464  -2.640  1.00  0.00     0.000 A 
HETATM   35  C   UNL     1      42.629 -10.570  -1.591  1.00  0.00     0.001 A 
HETATM   36  C   UNL     1      42.463 -10.992  -0.268  1.00  0.00     0.015 A 
ENDBRANCH   1  31
TORSDOF 6
ENDMDL
MODEL 4
REMARK VINA RESULT:      -9.5      4.947      7.549
REMARK  6 active torsions:
REMARK  status: ('A' for Active; 'I' for Inactive)
REMARK    1  A    between atoms: C_4  and  C_5 
REMARK    2  A    between atoms: N_6  and  C_7 
REMARK    3  A    between atoms: C_14  and  S_15 
REMARK    4  A    between atoms: S_15  and  C_16 
REMARK    5  A    between atoms: C_16  and  C_17 
REMARK       I    between atoms: C_17  and  N_18 
REMARK    6  A    between atoms: N_18  and  C_19 
ROOT
HETATM    1  C   UNL     1      42.013 -11.503  -1.292  1.00  0.00     0.169 A 
HETATM    2  N   UNL     1      41.092 -12.493  -0.936  1.00  0.00    -0.271 N 
HETATM    3  C   UNL     1      41.456 -12.835   0.360  1.00  0.00     0.197 A 
HETATM    4  N   UNL     1      42.461 -12.097   0.762  1.00  0.00    -0.122 NA
HETATM    5  N   UNL     1      42.797 -11.255  -0.256  1.00  0.00    -0.128 NA
ENDROOT
BRANCH   3   6
HETATM    6  S   UNL     1      40.576 -13.898   1.418  1.00  0.00    -0.080 SA
BRANCH   6   7
HETATM    7  C   UNL     1      41.866 -14.335   2.626  1.00  0.00     0.185 C 
BRANCH   7   8
HETATM    8  C   UNL     1      41.956 -15.819   2.969  1.00  0.00     0.231 C 
HETATM    9  N   UNL     1      43.175 -16.413   2.696  1.00  0.00    -0.326 N 
HETATM   10  H   UNL     1      43.862 -15.813   2.257  1.00  0.00     0.169 HD
HETATM   11  O   UNL     1      41.011 -16.365   3.538  1.00  0.00    -0.272 OA
BRANCH   9  12
HETATM   12  C   UNL     1      43.547 -17.759   2.885  1.00  0.00     0.037 A 
HETATM   13  C   UNL     1      44.022 -18.268   4.100  1.00  0.00     0.061 A 
HETATM   14  C   UNL     1      44.333 -19.608   4.141  1.00  0.00     0.065 A 
HETATM   15  C   UNL     1      44.194 -20.442   3.035  1.00  0.00     0.063 A 
HETATM   16  N   UNL     1      44.810 -20.377   5.198  1.00  0.00    -0.306 N 
HETATM   17  N   UNL     1      44.584 -21.722   3.410  1.00  0.00    -0.307 N 
HETATM   18  C   UNL     1      43.733 -19.980   1.828  1.00  0.00     0.034 A 
HETATM   19  C   UNL     1      44.970 -21.699   4.759  1.00  0.00     0.325 A 
HETATM   20  H   UNL     1      44.595 -22.552   2.841  1.00  0.00     0.170 HD
HETATM   21  O   UNL     1      45.365 -22.645   5.416  1.00  0.00    -0.247 OA
HETATM   22  C   UNL     1      43.406 -18.619   1.763  1.00  0.00     0.032 A 
HETATM   23  H   UNL     1      45.007 -20.063   6.134  1.00  0.00     0.170 HD
ENDBRANCH   9  12
ENDBRANCH   7   8
ENDBRANCH   6   7
ENDBRANCH   3   6
BRANCH   2  24
HETATM   24  C   UNL     1      40.005 -12.990  -1.713  1.00  0.00     0.043 A 
HETATM   25  C   UNL     1      38.818 -12.254  -1.828  1.00  0.00     0.032 A 
HETATM   26  C   UNL     1      37.753 -12.754  -2.585  1.00  0.00     0.026 A 
HETATM   27  C   UNL     1      37.872 -13.986  -3.226  1.00  0.00     0.034 A 
HETATM   28 CL   UNL     1      36.561 -14.596  -4.154  1.00  0.00    -0.084 Cl
HETATM   29  C   UNL     1      39.047 -14.725  -3.115  1.00  0.00     0.026 A 
HETATM   30  C   UNL     1      40.114 -14.231  -2.358  1.00  0.00     0.032 A 
ENDBRANCH   2  24
BRANCH   1  31
HETATM   31  C   UNL     1      42.187 -10.868  -2.600  1.00  0.00     0.012 A 
HETATM   32  C   UNL     1      42.328 -11.674  -3.739  1.00  0.00     0.015 A 
HETATM   33  C   UNL     1      42.475 -11.101  -5.004  1.00  0.00     0.001 A 
HETATM   34  C   UNL     1      42.473  -9.715  -5.144  1.00  0.00     0.000 A 
HETATM   35  C   UNL     1      42.313  -8.902  -4.024  1.00  0.00     0.001 A 
HETATM   36  C   UNL     1      42.162  -9.475  -2.758  1.00  0.00     0.015 A 
ENDBRANCH   1  31
TORSDOF 6
ENDMDL
MODEL 5
REMARK VINA RESULT:      -9.4      4.327      8.997
REMARK  6 active torsions:
REMARK  status: ('A' for Active; 'I' for Inactive)
REMARK    1  A    between atoms: C_4  and  C_5 
REMARK    2  A    between atoms: N_6  and  C_7 
REMARK    3  A    between atoms: C_14  and  S_15 
REMARK    4  A    between atoms: S_15  and  C_16 
REMARK    5  A    between atoms: C_16  and  C_17 
REMARK       I    between atoms: C_17  and  N_18 
REMARK    6  A    between atoms: N_18  and  C_19 
ROOT
HETATM    1  C   UNL     1      41.427 -14.795   3.284  1.00  0.00     0.169 A 
HETATM    2  N   UNL     1      41.489 -14.533   4.657  1.00  0.00    -0.271 N 
HETATM    3  C   UNL     1      40.811 -13.329   4.796  1.00  0.00     0.197 A 
HETATM    4  N   UNL     1      40.348 -12.929   3.638  1.00  0.00    -0.122 NA
HETATM    5  N   UNL     1      40.713 -13.848   2.700  1.00  0.00    -0.128 NA
ENDROOT
BRANCH   3   6
HETATM    6  S   UNL     1      40.396 -12.562   6.300  1.00  0.00    -0.080 SA
BRANCH   6   7
HETATM    7  C   UNL     1      41.062 -10.888   6.034  1.00  0.00     0.185 C 
BRANCH   7   8
HETATM    8  C   UNL     1      41.623 -10.209   7.280  1.00  0.00     0.231 C 
HETATM    9  N   UNL     1      41.739 -11.024   8.392  1.00  0.00    -0.326 N 
HETATM   10  H   UNL     1      41.399 -11.970   8.275  1.00  0.00     0.169 HD
HETATM   11  O   UNL     1      42.018  -9.046   7.206  1.00  0.00    -0.272 OA
BRANCH   9  12
HETATM   12  C   UNL     1      42.201 -10.678   9.678  1.00  0.00     0.037 A 
HETATM   13  C   UNL     1      41.354 -10.341  10.740  1.00  0.00     0.061 A 
HETATM   14  C   UNL     1      41.947 -10.039  11.945  1.00  0.00     0.065 A 
HETATM   15  C   UNL     1      43.328 -10.058  12.125  1.00  0.00     0.063 A 
HETATM   16  N   UNL     1      41.364  -9.684  13.157  1.00  0.00    -0.306 N 
HETATM   17  N   UNL     1      43.595  -9.714  13.444  1.00  0.00    -0.307 N 
HETATM   18  C   UNL     1      44.190 -10.382  11.108  1.00  0.00     0.034 A 
HETATM   19  C   UNL     1      42.378  -9.480  14.104  1.00  0.00     0.325 A 
HETATM   20  H   UNL     1      44.493  -9.642  13.890  1.00  0.00     0.170 HD
HETATM   21  O   UNL     1      42.236  -9.162  15.271  1.00  0.00    -0.247 OA
HETATM   22  C   UNL     1      43.609 -10.696   9.871  1.00  0.00     0.032 A 
HETATM   23  H   UNL     1      40.380  -9.590  13.352  1.00  0.00     0.170 HD
ENDBRANCH   9  12
ENDBRANCH   7   8
ENDBRANCH   6   7
ENDBRANCH   3   6
BRANCH   2  24
HETATM   24  C   UNL     1      42.071 -15.346   5.672  1.00  0.00     0.043 A 
HETATM   25  C   UNL     1      43.327 -15.027   6.207  1.00  0.00     0.032 A 
HETATM   26  C   UNL     1      43.895 -15.837   7.196  1.00  0.00     0.026 A 
HETATM   27  C   UNL     1      43.211 -16.962   7.651  1.00  0.00     0.034 A 
HETATM   28 CL   UNL     1      43.914 -17.954   8.867  1.00  0.00    -0.084 Cl
HETATM   29  C   UNL     1      41.964 -17.288   7.125  1.00  0.00     0.026 A 
HETATM   30  C   UNL     1      41.393 -16.484   6.134  1.00  0.00     0.032 A 
ENDBRANCH   2  24
BRANCH   1  31
HETATM   31  C   UNL     1      42.089 -15.872   2.545  1.00  0.00     0.012 A 
HETATM   32  C   UNL     1      41.307 -16.853   1.917  1.00  0.00     0.015 A 
HETATM   33  C   UNL     1      41.906 -17.882   1.187  1.00  0.00     0.001 A 
HETATM   34  C   UNL     1      43.293 -17.936   1.070  1.00  0.00     0.000 A 
HETATM   35  C   UNL     1      44.081 -16.957   1.671  1.00  0.00     0.001 A 
HETATM   36  C   UNL     1      43.483 -15.924   2.399  1.00  0.00     0.015 A 
ENDBRANCH   1  31
TORSDOF 6
ENDMDL
MODEL 6
REMARK VINA RESULT:      -9.3      4.351      8.364
REMARK  6 active torsions:
REMARK  status: ('A' for Active; 'I' for Inactive)
REMARK    1  A    between atoms: C_4  and  C_5 
REMARK    2  A    between atoms: N_6  and  C_7 
REMARK    3  A    between atoms: C_14  and  S_15 
REMARK    4  A    between atoms: S_15  and  C_16 
REMARK    5  A    between atoms: C_16  and  C_17 
REMARK       I    between atoms: C_17  and  N_18 
REMARK    6  A    between atoms: N_18  and  C_19 
ROOT
HETATM    1  C   UNL     1      43.109 -17.974   2.331  1.00  0.00     0.169 A 
HETATM    2  N   UNL     1      42.963 -16.942   3.262  1.00  0.00    -0.271 N 
HETATM    3  C   UNL     1      42.641 -15.837   2.485  1.00  0.00     0.197 A 
HETATM    4  N   UNL     1      42.556 -16.175   1.223  1.00  0.00    -0.122 NA
HETATM    5  N   UNL     1      42.827 -17.508   1.126  1.00  0.00    -0.128 NA
ENDROOT
BRANCH   3   6
HETATM    6  S   UNL     1      42.167 -14.275   3.084  1.00  0.00    -0.080 SA
BRANCH   6   7
HETATM    7  C   UNL     1      42.238 -13.280   1.560  1.00  0.00     0.185 C 
BRANCH   7   8
HETATM    8  C   UNL     1      41.048 -13.448   0.620  1.00  0.00     0.231 C 
HETATM    9  N   UNL     1      41.291 -14.217  -0.504  1.00  0.00    -0.326 N 
HETATM   10  H   UNL     1      42.242 -14.549  -0.606  1.00  0.00     0.169 HD
HETATM   11  O   UNL     1      39.953 -12.992   0.947  1.00  0.00    -0.272 OA
BRANCH   9  12
HETATM   12  C   UNL     1      40.401 -14.529  -1.552  1.00  0.00     0.037 A 
HETATM   13  C   UNL     1      39.175 -13.882  -1.744  1.00  0.00     0.061 A 
HETATM   14  C   UNL     1      38.416 -14.283  -2.820  1.00  0.00     0.065 A 
HETATM   15  C   UNL     1      38.826 -15.288  -3.692  1.00  0.00     0.063 A 
HETATM   16  N   UNL     1      37.178 -13.819  -3.256  1.00  0.00    -0.306 N 
HETATM   17  N   UNL     1      37.843 -15.444  -4.662  1.00  0.00    -0.307 N 
HETATM   18  C   UNL     1      40.020 -15.945  -3.535  1.00  0.00     0.034 A 
HETATM   19  C   UNL     1      36.808 -14.531  -4.405  1.00  0.00     0.325 A 
HETATM   20  H   UNL     1      37.841 -16.085  -5.437  1.00  0.00     0.170 HD
HETATM   21  O   UNL     1      35.789 -14.390  -5.056  1.00  0.00    -0.247 OA
HETATM   22  C   UNL     1      40.812 -15.552  -2.448  1.00  0.00     0.032 A 
HETATM   23  H   UNL     1      36.624 -13.089  -2.838  1.00  0.00     0.170 HD
ENDBRANCH   9  12
ENDBRANCH   7   8
ENDBRANCH   6   7
ENDBRANCH   3   6
BRANCH   2  24
HETATM   24  C   UNL     1      43.072 -17.028   4.681  1.00  0.00     0.043 A 
HETATM   25  C   UNL     1      41.998 -17.500   5.449  1.00  0.00     0.032 A 
HETATM   26  C   UNL     1      42.110 -17.572   6.841  1.00  0.00     0.026 A 
HETATM   27  C   UNL     1      43.291 -17.176   7.466  1.00  0.00     0.034 A 
HETATM   28 CL   UNL     1      43.423 -17.266   9.178  1.00  0.00    -0.084 Cl
HETATM   29  C   UNL     1      44.361 -16.704   6.711  1.00  0.00     0.026 A 
HETATM   30  C   UNL     1      44.254 -16.628   5.319  1.00  0.00     0.032 A 
ENDBRANCH   2  24
BRANCH   1  31
HETATM   31  C   UNL     1      43.573 -19.342   2.572  1.00  0.00     0.012 A 
HETATM   32  C   UNL     1      43.216 -20.356   1.670  1.00  0.00     0.015 A 
HETATM   33  C   UNL     1      43.659 -21.667   1.860  1.00  0.00     0.001 A 
HETATM   34  C   UNL     1      44.471 -21.976   2.949  1.00  0.00     0.000 A 
HETATM   35  C   UNL     1      44.851 -20.976   3.841  1.00  0.00     0.001 A 
HETATM   36  C   UNL     1      44.411 -19.663   3.650  1.00  0.00     0.015 A 
ENDBRANCH   1  31
TORSDOF 6
ENDMDL
MODEL 7
REMARK VINA RESULT:      -9.2      4.238      7.167
REMARK  6 active torsions:
REMARK  status: ('A' for Active; 'I' for Inactive)
REMARK    1  A    between atoms: C_4  and  C_5 
REMARK    2  A    between atoms: N_6  and  C_7 
REMARK    3  A    between atoms: C_14  and  S_15 
REMARK    4  A    between atoms: S_15  and  C_16 
REMARK    5  A    between atoms: C_16  and  C_17 
REMARK       I    between atoms: C_17  and  N_18 
REMARK    6  A    between atoms: N_18  and  C_19 
ROOT
HETATM    1  C   UNL     1      40.116 -14.256   0.148  1.00  0.00     0.169 A 
HETATM    2  N   UNL     1      40.735 -13.110   0.657  1.00  0.00    -0.271 N 
HETATM    3  C   UNL     1      40.751 -13.323   2.029  1.00  0.00     0.197 A 
HETATM    4  N   UNL     1      40.238 -14.493   2.316  1.00  0.00    -0.122 NA
HETATM    5  N   UNL     1      39.861 -15.084   1.146  1.00  0.00    -0.128 NA
ENDROOT
BRANCH   3   6
HETATM    6  S   UNL     1      41.551 -12.323   3.205  1.00  0.00    -0.080 SA
BRANCH   6   7
HETATM    7  C   UNL     1      41.889 -13.535   4.522  1.00  0.00     0.185 C 
BRANCH   7   8
HETATM    8  C   UNL     1      42.792 -14.696   4.117  1.00  0.00     0.231 C 
HETATM    9  N   UNL     1      42.278 -15.956   4.368  1.00  0.00    -0.326 N 
HETATM   10  H   UNL     1      41.378 -15.973   4.832  1.00  0.00     0.169 HD
HETATM   11  O   UNL     1      43.845 -14.463   3.524  1.00  0.00    -0.272 OA
BRANCH   9  12
HETATM   12  C   UNL     1      42.882 -17.205   4.123  1.00  0.00     0.037 A 
HETATM   13  C   UNL     1      42.603 -17.994   3.000  1.00  0.00     0.061 A 
HETATM   14  C   UNL     1      43.282 -19.185   2.886  1.00  0.00     0.065 A 
HETATM   15  C   UNL     1      44.208 -19.613   3.834  1.00  0.00     0.063 A 
HETATM   16  N   UNL     1      43.215 -20.153   1.888  1.00  0.00    -0.306 N 
HETATM   17  N   UNL     1      44.711 -20.841   3.421  1.00  0.00    -0.307 N 
HETATM   18  C   UNL     1      44.507 -18.868   4.946  1.00  0.00     0.034 A 
HETATM   19  C   UNL     1      44.102 -21.191   2.205  1.00  0.00     0.325 A 
HETATM   20  H   UNL     1      45.400 -21.409   3.883  1.00  0.00     0.170 HD
HETATM   21  O   UNL     1      44.308 -22.201   1.556  1.00  0.00    -0.247 OA
HETATM   22  C   UNL     1      43.831 -17.648   5.083  1.00  0.00     0.032 A 
HETATM   23  H   UNL     1      42.641 -20.131   1.061  1.00  0.00     0.170 HD
ENDBRANCH   9  12
ENDBRANCH   7   8
ENDBRANCH   6   7
ENDBRANCH   3   6
BRANCH   2  24
HETATM   24  C   UNL     1      41.267 -12.010  -0.077  1.00  0.00     0.043 A 
HETATM   25  C   UNL     1      40.553 -10.807  -0.174  1.00  0.00     0.032 A 
HETATM   26  C   UNL     1      41.078  -9.737  -0.905  1.00  0.00     0.026 A 
HETATM   27  C   UNL     1      42.314  -9.864  -1.536  1.00  0.00     0.034 A 
HETATM   28 CL   UNL     1      42.955  -8.545  -2.433  1.00  0.00    -0.084 Cl
HETATM   29  C   UNL     1      43.029 -11.055  -1.446  1.00  0.00     0.026 A 
HETATM   30  C   UNL     1      42.508 -12.130  -0.719  1.00  0.00     0.032 A 
ENDBRANCH   2  24
BRANCH   1  31
HETATM   31  C   UNL     1      39.715 -14.520  -1.236  1.00  0.00     0.012 A 
HETATM   32  C   UNL     1      40.560 -15.276  -2.061  1.00  0.00     0.015 A 
HETATM   33  C   UNL     1      40.199 -15.563  -3.379  1.00  0.00     0.001 A 
HETATM   34  C   UNL     1      38.983 -15.106  -3.883  1.00  0.00     0.000 A 
HETATM   35  C   UNL     1      38.124 -14.372  -3.068  1.00  0.00     0.001 A 
HETATM   36  C   UNL     1      38.483 -14.087  -1.747  1.00  0.00     0.015 A 
ENDBRANCH   1  31
TORSDOF 6
ENDMDL
MODEL 8
REMARK VINA RESULT:      -9.1      3.346      5.288
REMARK  6 active torsions:
REMARK  status: ('A' for Active; 'I' for Inactive)
REMARK    1  A    between atoms: C_4  and  C_5 
REMARK    2  A    between atoms: N_6  and  C_7 
REMARK    3  A    between atoms: C_14  and  S_15 
REMARK    4  A    between atoms: S_15  and  C_16 
REMARK    5  A    between atoms: C_16  and  C_17 
REMARK       I    between atoms: C_17  and  N_18 
REMARK    6  A    between atoms: N_18  and  C_19 
ROOT
HETATM    1  C   UNL     1      38.497 -11.523   3.025  1.00  0.00     0.169 A 
HETATM    2  N   UNL     1      39.397 -12.480   3.504  1.00  0.00    -0.271 N 
HETATM    3  C   UNL     1      39.474 -12.210   4.864  1.00  0.00     0.197 A 
HETATM    4  N   UNL     1      38.671 -11.224   5.181  1.00  0.00    -0.122 NA
HETATM    5  N   UNL     1      38.048 -10.809   4.043  1.00  0.00    -0.128 NA
ENDROOT
BRANCH   3   6
HETATM    6  S   UNL     1      40.307 -13.174   6.048  1.00  0.00    -0.080 SA
BRANCH   6   7
HETATM    7  C   UNL     1      42.037 -12.709   5.723  1.00  0.00     0.185 C 
BRANCH   7   8
HETATM    8  C   UNL     1      42.939 -13.851   5.262  1.00  0.00     0.231 C 
HETATM    9  N   UNL     1      42.534 -15.114   5.653  1.00  0.00    -0.326 N 
HETATM   10  H   UNL     1      41.709 -15.144   6.239  1.00  0.00     0.169 HD
HETATM   11  O   UNL     1      43.886 -13.607   4.516  1.00  0.00    -0.272 OA
BRANCH   9  12
HETATM   12  C   UNL     1      43.167 -16.347   5.398  1.00  0.00     0.037 A 
HETATM   13  C   UNL     1      42.947 -17.105   4.241  1.00  0.00     0.061 A 
HETATM   14  C   UNL     1      43.648 -18.283   4.121  1.00  0.00     0.065 A 
HETATM   15  C   UNL     1      44.540 -18.727   5.094  1.00  0.00     0.063 A 
HETATM   16  N   UNL     1      43.639 -19.221   3.093  1.00  0.00    -0.306 N 
HETATM   17  N   UNL     1      45.078 -19.934   4.667  1.00  0.00    -0.307 N 
HETATM   18  C   UNL     1      44.781 -18.012   6.240  1.00  0.00     0.034 A 
HETATM   19  C   UNL     1      44.527 -20.256   3.417  1.00  0.00     0.325 A 
HETATM   20  H   UNL     1      45.756 -20.507   5.141  1.00  0.00     0.170 HD
HETATM   21  O   UNL     1      44.775 -21.243   2.748  1.00  0.00    -0.247 OA
HETATM   22  C   UNL     1      44.081 -16.806   6.384  1.00  0.00     0.032 A 
HETATM   23  H   UNL     1      43.099 -19.183   2.243  1.00  0.00     0.170 HD
ENDBRANCH   9  12
ENDBRANCH   7   8
ENDBRANCH   6   7
ENDBRANCH   3   6
BRANCH   2  24
HETATM   24  C   UNL     1      40.039 -13.517   2.768  1.00  0.00     0.043 A 
HETATM   25  C   UNL     1      41.245 -13.271   2.097  1.00  0.00     0.032 A 
HETATM   26  C   UNL     1      41.863 -14.293   1.368  1.00  0.00     0.026 A 
HETATM   27  C   UNL     1      41.280 -15.557   1.308  1.00  0.00     0.034 A 
HETATM   28 CL   UNL     1      42.043 -16.809   0.411  1.00  0.00    -0.084 Cl
HETATM   29  C   UNL     1      40.081 -15.809   1.970  1.00  0.00     0.026 A 
HETATM   30  C   UNL     1      39.458 -14.791   2.699  1.00  0.00     0.032 A 
ENDBRANCH   2  24
BRANCH   1  31
HETATM   31  C   UNL     1      38.134 -11.251   1.632  1.00  0.00     0.012 A 
HETATM   32  C   UNL     1      37.150 -12.038   1.015  1.00  0.00     0.015 A 
HETATM   33  C   UNL     1      36.766 -11.792  -0.305  1.00  0.00     0.001 A 
HETATM   34  C   UNL     1      37.355 -10.751  -1.019  1.00  0.00     0.000 A 
HETATM   35  C   UNL     1      38.318  -9.949  -0.413  1.00  0.00     0.001 A 
HETATM   36  C   UNL     1      38.701 -10.191   0.910  1.00  0.00     0.015 A 
ENDBRANCH   1  31
TORSDOF 6
ENDMDL
MODEL 9
REMARK VINA RESULT:      -9.1      4.580      9.581
REMARK  6 active torsions:
REMARK  status: ('A' for Active; 'I' for Inactive)
REMARK    1  A    between atoms: C_4  and  C_5 
REMARK    2  A    between atoms: N_6  and  C_7 
REMARK    3  A    between atoms: C_14  and  S_15 
REMARK    4  A    between atoms: S_15  and  C_16 
REMARK    5  A    between atoms: C_16  and  C_17 
REMARK       I    between atoms: C_17  and  N_18 
REMARK    6  A    between atoms: N_18  and  C_19 
ROOT
HETATM    1  C   UNL     1      42.915 -15.141   4.337  1.00  0.00     0.169 A 
HETATM    2  N   UNL     1      41.935 -14.181   4.065  1.00  0.00    -0.271 N 
HETATM    3  C   UNL     1      42.039 -13.291   5.125  1.00  0.00     0.197 A 
HETATM    4  N   UNL     1      43.009 -13.650   5.929  1.00  0.00    -0.122 NA
HETATM    5  N   UNL     1      43.568 -14.788   5.431  1.00  0.00    -0.128 NA
ENDROOT
BRANCH   3   6
HETATM    6  S   UNL     1      41.196 -11.778   5.270  1.00  0.00    -0.080 SA
BRANCH   6   7
HETATM    7  C   UNL     1      39.843 -12.237   6.399  1.00  0.00     0.185 C 
BRANCH   7   8
HETATM    8  C   UNL     1      39.732 -11.381   7.658  1.00  0.00     0.231 C 
HETATM    9  N   UNL     1      40.859 -11.365   8.459  1.00  0.00    -0.326 N 
HETATM   10  H   UNL     1      41.621 -11.956   8.150  1.00  0.00     0.169 HD
HETATM   11  O   UNL     1      38.722 -10.702   7.837  1.00  0.00    -0.272 OA
BRANCH   9  12
HETATM   12  C   UNL     1      41.046 -10.689   9.682  1.00  0.00     0.037 A 
HETATM   13  C   UNL     1      40.842 -11.282  10.934  1.00  0.00     0.061 A 
HETATM   14  C   UNL     1      41.078 -10.503  12.043  1.00  0.00     0.065 A 
HETATM   15  C   UNL     1      41.499  -9.179  11.952  1.00  0.00     0.063 A 
HETATM   16  N   UNL     1      40.969 -10.824  13.393  1.00  0.00    -0.306 N 
HETATM   17  N   UNL     1      41.649  -8.685  13.242  1.00  0.00    -0.307 N 
HETATM   18  C   UNL     1      41.709  -8.564  10.744  1.00  0.00     0.034 A 
HETATM   19  C   UNL     1      41.324  -9.702  14.155  1.00  0.00     0.325 A 
HETATM   20  H   UNL     1      41.945  -7.764  13.517  1.00  0.00     0.170 HD
HETATM   21  O   UNL     1      41.347  -9.620  15.369  1.00  0.00    -0.247 OA
HETATM   22  C   UNL     1      41.478  -9.338   9.599  1.00  0.00     0.032 A 
HETATM   23  H   UNL     1      40.692 -11.710  13.784  1.00  0.00     0.170 HD
ENDBRANCH   9  12
ENDBRANCH   7   8
ENDBRANCH   6   7
ENDBRANCH   3   6
BRANCH   2  24
HETATM   24  C   UNL     1      41.073 -14.116   2.932  1.00  0.00     0.043 A 
HETATM   25  C   UNL     1      39.839 -14.781   2.937  1.00  0.00     0.032 A 
HETATM   26  C   UNL     1      39.003 -14.719   1.817  1.00  0.00     0.026 A 
HETATM   27  C   UNL     1      39.397 -13.994   0.695  1.00  0.00     0.034 A 
HETATM   28 CL   UNL     1      38.366 -13.922  -0.680  1.00  0.00    -0.084 Cl
HETATM   29  C   UNL     1      40.621 -13.332   0.679  1.00  0.00     0.026 A 
HETATM   30  C   UNL     1      41.462 -13.392   1.795  1.00  0.00     0.032 A 
ENDBRANCH   2  24
BRANCH   1  31
HETATM   31  C   UNL     1      43.170 -16.392   3.618  1.00  0.00     0.012 A 
HETATM   32  C   UNL     1      43.694 -16.340   2.318  1.00  0.00     0.015 A 
HETATM   33  C   UNL     1      43.968 -17.513   1.612  1.00  0.00     0.001 A 
HETATM   34  C   UNL     1      43.731 -18.752   2.204  1.00  0.00     0.000 A 
HETATM   35  C   UNL     1      43.231 -18.819   3.502  1.00  0.00     0.001 A 
HETATM   36  C   UNL     1      42.960 -17.645   4.211  1.00  0.00     0.015 A 
ENDBRANCH   1  31
TORSDOF 6
ENDMDL
MODEL 10
REMARK VINA RESULT:      -9.1      3.777      8.128
REMARK  6 active torsions:
REMARK  status: ('A' for Active; 'I' for Inactive)
REMARK    1  A    between atoms: C_4  and  C_5 
REMARK    2  A    between atoms: N_6  and  C_7 
REMARK    3  A    between atoms: C_14  and  S_15 
REMARK    4  A    between atoms: S_15  and  C_16 
REMARK    5  A    between atoms: C_16  and  C_17 
REMARK       I    between atoms: C_17  and  N_18 
REMARK    6  A    between atoms: N_18  and  C_19 
ROOT
HETATM    1  C   UNL     1      44.043 -17.575   6.314  1.00  0.00     0.169 A 
HETATM    2  N   UNL     1      43.432 -16.554   5.580  1.00  0.00    -0.271 N 
HETATM    3  C   UNL     1      43.434 -15.472   6.451  1.00  0.00     0.197 A 
HETATM    4  N   UNL     1      44.025 -15.792   7.576  1.00  0.00    -0.122 NA
HETATM    5  N   UNL     1      44.423 -17.092   7.486  1.00  0.00    -0.128 NA
ENDROOT
BRANCH   3   6
HETATM    6  S   UNL     1      42.960 -13.847   6.057  1.00  0.00    -0.080 SA
BRANCH   6   7
HETATM    7  C   UNL     1      41.253 -14.110   5.480  1.00  0.00     0.185 C 
BRANCH   7   8
HETATM    8  C   UNL     1      40.924 -13.489   4.126  1.00  0.00     0.231 C 
HETATM    9  N   UNL     1      39.764 -13.953   3.532  1.00  0.00    -0.326 N 
HETATM   10  H   UNL     1      39.280 -14.685   4.037  1.00  0.00     0.169 HD
HETATM   11  O   UNL     1      41.627 -12.576   3.694  1.00  0.00    -0.272 OA
BRANCH   9  12
HETATM   12  C   UNL     1      39.218 -13.585   2.286  1.00  0.00     0.037 A 
HETATM   13  C   UNL     1      39.309 -14.379   1.136  1.00  0.00     0.061 A 
HETATM   14  C   UNL     1      38.715 -13.896  -0.007  1.00  0.00     0.065 A 
HETATM   15  C   UNL     1      38.049 -12.674  -0.047  1.00  0.00     0.063 A 
HETATM   16  N   UNL     1      38.639 -14.464  -1.276  1.00  0.00    -0.306 N 
HETATM   17  N   UNL     1      37.565 -12.489  -1.336  1.00  0.00    -0.307 N 
HETATM   18  C   UNL     1      37.940 -11.869   1.058  1.00  0.00     0.034 A 
HETATM   19  C   UNL     1      37.923 -13.600  -2.116  1.00  0.00     0.325 A 
HETATM   20  H   UNL     1      37.037 -11.709  -1.688  1.00  0.00     0.170 HD
HETATM   21  O   UNL     1      37.661 -13.775  -3.292  1.00  0.00    -0.247 OA
HETATM   22  C   UNL     1      38.535 -12.340   2.237  1.00  0.00     0.032 A 
HETATM   23  H   UNL     1      39.019 -15.351  -1.566  1.00  0.00     0.170 HD
ENDBRANCH   9  12
ENDBRANCH   7   8
ENDBRANCH   6   7
ENDBRANCH   3   6
BRANCH   2  24
HETATM   24  C   UNL     1      42.967 -16.609   4.234  1.00  0.00     0.043 A 
HETATM   25  C   UNL     1      41.753 -17.238   3.926  1.00  0.00     0.032 A 
HETATM   26  C   UNL     1      41.309 -17.296   2.601  1.00  0.00     0.026 A 
HETATM   27  C   UNL     1      42.073 -16.727   1.585  1.00  0.00     0.034 A 
HETATM   28 CL   UNL     1      41.523 -16.801  -0.042  1.00  0.00    -0.084 Cl
HETATM   29  C   UNL     1      43.282 -16.101   1.882  1.00  0.00     0.026 A 
HETATM   30  C   UNL     1      43.731 -16.042   3.204  1.00  0.00     0.032 A 
ENDBRANCH   2  24
BRANCH   1  31
HETATM   31  C   UNL     1      44.195 -18.983   5.940  1.00  0.00     0.012 A 
HETATM   32  C   UNL     1      44.864 -19.306   4.750  1.00  0.00     0.015 A 
HETATM   33  C   UNL     1      45.044 -20.639   4.373  1.00  0.00     0.001 A 
HETATM   34  C   UNL     1      44.565 -21.663   5.187  1.00  0.00     0.000 A 
HETATM   35  C   UNL     1      43.918 -21.357   6.382  1.00  0.00     0.001 A 
HETATM   36  C   UNL     1      43.741 -20.023   6.762  1.00  0.00     0.015 A 
ENDBRANCH   1  31
TORSDOF 6
ENDMDL
