MODEL 1
REMARK VINA RESULT:      -8.0      0.000      0.000
REMARK  8 active torsions:
REMARK  status: ('A' for Active; 'I' for Inactive)
REMARK    1  A    between atoms: C_3  and  C_4 
REMARK    2  A    between atoms: C_4  and  C_5 
REMARK    3  A    between atoms: C_5  and  N_6 
REMARK       I    between atoms: N_6  and  C_7 
REMARK    4  A    between atoms: C_7  and  C_8 
REMARK    5  A    between atoms: C_8  and  S_9 
REMARK    6  A    between atoms: S_9  and  C_10 
REMARK    7  A    between atoms: C_13  and  C_14 
REMARK    8  A    between atoms: C_15  and  O_16 
ROOT
HETATM    1  S   UNL     1      42.144 -14.939   5.524  1.00  0.00    -0.081 SA
ENDROOT
BRANCH   1   2
HETATM    2  C   UNL     1      41.504 -16.250   6.601  1.00  0.00     0.185 C 
BRANCH   2   3
HETATM    3  C   UNL     1      42.588 -17.250   6.990  1.00  0.00     0.227 C 
HETATM    4  N   UNL     1      42.811 -18.215   6.020  1.00  0.00    -0.360 N 
HETATM    5  H   UNL     1      42.126 -18.327   5.284  1.00  0.00     0.162 HD
HETATM    6  O   UNL     1      43.229 -17.214   8.038  1.00  0.00    -0.273 OA
BRANCH   4   7
HETATM    7  C   UNL     1      43.759 -19.293   6.250  1.00  0.00     0.127 C 
BRANCH   7   8
HETATM    8  C   UNL     1      44.893 -19.281   5.224  1.00  0.00     0.058 C 
BRANCH   8   9
HETATM    9  C   UNL     1      44.591 -20.148   4.024  1.00  0.00    -0.051 A 
HETATM   10  C   UNL     1      44.132 -19.632   2.794  1.00  0.00    -0.056 A 
HETATM   11  C   UNL     1      43.892 -18.170   2.535  1.00  0.00     0.049 C 
HETATM   12  C   UNL     1      43.856 -20.524   1.741  1.00  0.00     0.007 A 
HETATM   13  C   UNL     1      44.031 -21.899   1.893  1.00  0.00     0.001 A 
HETATM   14  C   UNL     1      44.480 -22.407   3.104  1.00  0.00     0.001 A 
HETATM   15  C   UNL     1      44.755 -21.540   4.161  1.00  0.00     0.007 A 
ENDBRANCH   8   9
ENDBRANCH   7   8
ENDBRANCH   4   7
ENDBRANCH   2   3
ENDBRANCH   1   2
BRANCH   1  16
HETATM   16  C   UNL     1      41.410 -15.421   4.036  1.00  0.00     0.191 A 
HETATM   17  N   UNL     1      41.306 -14.625   2.932  1.00  0.00    -0.312 N 
HETATM   18  C   UNL     1      41.744 -13.262   2.775  1.00  0.00     0.160 C 
HETATM   19  C   UNL     1      40.725 -15.411   1.961  1.00  0.00     0.166 A 
HETATM   20  N   UNL     1      40.470 -16.601   2.479  1.00  0.00    -0.128 NA
HETATM   21  N   UNL     1      40.912 -16.608   3.783  1.00  0.00    -0.122 NA
BRANCH  19  22
HETATM   22  C   UNL     1      40.467 -14.997   0.587  1.00  0.00     0.045 A 
HETATM   23  C   UNL     1      39.360 -14.203   0.256  1.00  0.00     0.082 A 
HETATM   24  C   UNL     1      39.145 -13.794  -1.062  1.00  0.00     0.038 A 
HETATM   25  C   UNL     1      40.017 -14.206  -2.069  1.00  0.00     0.003 A 
HETATM   26  C   UNL     1      41.110 -15.015  -1.757  1.00  0.00     0.001 A 
HETATM   27  C   UNL     1      41.334 -15.409  -0.435  1.00  0.00     0.018 A 
BRANCH  23  28
HETATM   28  O   UNL     1      38.527 -13.743   1.246  1.00  0.00    -0.355 OA
HETATM   29  C   UNL     1      37.257 -13.384   0.699  1.00  0.00     0.210 C 
ENDBRANCH  23  28
ENDBRANCH  19  22
ENDBRANCH   1  16
TORSDOF 8
ENDMDL
MODEL 2
REMARK VINA RESULT:      -7.9      1.938      3.004
REMARK  8 active torsions:
REMARK  status: ('A' for Active; 'I' for Inactive)
REMARK    1  A    between atoms: C_3  and  C_4 
REMARK    2  A    between atoms: C_4  and  C_5 
REMARK    3  A    between atoms: C_5  and  N_6 
REMARK       I    between atoms: N_6  and  C_7 
REMARK    4  A    between atoms: C_7  and  C_8 
REMARK    5  A    between atoms: C_8  and  S_9 
REMARK    6  A    between atoms: S_9  and  C_10 
REMARK    7  A    between atoms: C_13  and  C_14 
REMARK    8  A    between atoms: C_15  and  O_16 
ROOT
HETATM    1  S   UNL     1      41.959 -13.498   3.414  1.00  0.00    -0.081 SA
ENDROOT
BRANCH   1   2
HETATM    2  C   UNL     1      43.475 -14.486   3.529  1.00  0.00     0.185 C 
BRANCH   2   3
HETATM    3  C   UNL     1      43.177 -15.965   3.752  1.00  0.00     0.227 C 
HETATM    4  N   UNL     1      43.166 -16.701   2.577  1.00  0.00    -0.360 N 
HETATM    5  H   UNL     1      43.119 -16.204   1.696  1.00  0.00     0.162 HD
HETATM    6  O   UNL     1      42.984 -16.482   4.850  1.00  0.00    -0.273 OA
BRANCH   4   7
HETATM    7  C   UNL     1      42.828 -18.115   2.590  1.00  0.00     0.127 C 
BRANCH   7   8
HETATM    8  C   UNL     1      44.006 -18.985   2.151  1.00  0.00     0.058 C 
BRANCH   8   9
HETATM    9  C   UNL     1      44.274 -20.119   3.114  1.00  0.00    -0.051 A 
HETATM   10  C   UNL     1      44.313 -21.473   2.720  1.00  0.00    -0.056 A 
HETATM   11  C   UNL     1      44.095 -21.942   1.307  1.00  0.00     0.049 C 
HETATM   12  C   UNL     1      44.547 -22.460   3.695  1.00  0.00     0.007 A 
HETATM   13  C   UNL     1      44.742 -22.123   5.033  1.00  0.00     0.001 A 
HETATM   14  C   UNL     1      44.702 -20.790   5.421  1.00  0.00     0.001 A 
HETATM   15  C   UNL     1      44.467 -19.797   4.471  1.00  0.00     0.007 A 
ENDBRANCH   8   9
ENDBRANCH   7   8
ENDBRANCH   4   7
ENDBRANCH   2   3
ENDBRANCH   1   2
BRANCH   1  16
HETATM   16  C   UNL     1      41.802 -13.431   1.694  1.00  0.00     0.191 A 
HETATM   17  N   UNL     1      40.987 -14.244   0.961  1.00  0.00    -0.312 N 
HETATM   18  C   UNL     1      40.134 -15.305   1.431  1.00  0.00     0.160 C 
HETATM   19  C   UNL     1      41.111 -13.816  -0.343  1.00  0.00     0.166 A 
HETATM   20  N   UNL     1      41.981 -12.821  -0.377  1.00  0.00    -0.128 NA
HETATM   21  N   UNL     1      42.407 -12.573   0.909  1.00  0.00    -0.122 NA
BRANCH  19  22
HETATM   22  C   UNL     1      40.378 -14.358  -1.480  1.00  0.00     0.045 A 
HETATM   23  C   UNL     1      39.138 -13.833  -1.870  1.00  0.00     0.082 A 
HETATM   24  C   UNL     1      38.463 -14.348  -2.980  1.00  0.00     0.038 A 
HETATM   25  C   UNL     1      39.007 -15.419  -3.688  1.00  0.00     0.003 A 
HETATM   26  C   UNL     1      40.229 -15.966  -3.297  1.00  0.00     0.001 A 
HETATM   27  C   UNL     1      40.912 -15.437  -2.198  1.00  0.00     0.018 A 
BRANCH  23  28
HETATM   28  O   UNL     1      38.620 -12.742  -1.218  1.00  0.00    -0.355 OA
HETATM   29  C   UNL     1      37.584 -13.145  -0.320  1.00  0.00     0.210 C 
ENDBRANCH  23  28
ENDBRANCH  19  22
ENDBRANCH   1  16
TORSDOF 8
ENDMDL
MODEL 3
REMARK VINA RESULT:      -7.9      1.612      2.357
REMARK  8 active torsions:
REMARK  status: ('A' for Active; 'I' for Inactive)
REMARK    1  A    between atoms: C_3  and  C_4 
REMARK    2  A    between atoms: C_4  and  C_5 
REMARK    3  A    between atoms: C_5  and  N_6 
REMARK       I    between atoms: N_6  and  C_7 
REMARK    4  A    between atoms: C_7  and  C_8 
REMARK    5  A    between atoms: C_8  and  S_9 
REMARK    6  A    between atoms: S_9  and  C_10 
REMARK    7  A    between atoms: C_13  and  C_14 
REMARK    8  A    between atoms: C_15  and  O_16 
ROOT
HETATM    1  S   UNL     1      40.598 -15.275   4.711  1.00  0.00    -0.081 SA
ENDROOT
BRANCH   1   2
HETATM    2  C   UNL     1      42.100 -15.304   5.728  1.00  0.00     0.185 C 
BRANCH   2   3
HETATM    3  C   UNL     1      42.368 -16.688   6.311  1.00  0.00     0.227 C 
HETATM    4  N   UNL     1      43.342 -17.391   5.617  1.00  0.00    -0.360 N 
HETATM    5  H   UNL     1      43.613 -17.061   4.700  1.00  0.00     0.162 HD
HETATM    6  O   UNL     1      41.810 -17.148   7.304  1.00  0.00    -0.273 OA
BRANCH   4   7
HETATM    7  C   UNL     1      43.676 -18.756   5.988  1.00  0.00     0.127 C 
BRANCH   7   8
HETATM    8  C   UNL     1      44.899 -19.268   5.226  1.00  0.00     0.058 C 
BRANCH   8   9
HETATM    9  C   UNL     1      44.521 -20.128   4.043  1.00  0.00    -0.051 A 
HETATM   10  C   UNL     1      44.686 -21.528   4.022  1.00  0.00    -0.056 A 
HETATM   11  C   UNL     1      45.252 -22.324   5.166  1.00  0.00     0.049 C 
HETATM   12  C   UNL     1      44.325 -22.241   2.863  1.00  0.00     0.007 A 
HETATM   13  C   UNL     1      43.808 -21.588   1.745  1.00  0.00     0.001 A 
HETATM   14  C   UNL     1      43.648 -20.209   1.764  1.00  0.00     0.001 A 
HETATM   15  C   UNL     1      44.003 -19.485   2.902  1.00  0.00     0.007 A 
ENDBRANCH   8   9
ENDBRANCH   7   8
ENDBRANCH   4   7
ENDBRANCH   2   3
ENDBRANCH   1   2
BRANCH   1  16
HETATM   16  C   UNL     1      41.320 -15.432   3.149  1.00  0.00     0.191 A 
HETATM   17  N   UNL     1      40.769 -14.961   1.992  1.00  0.00    -0.312 N 
HETATM   18  C   UNL     1      39.511 -14.281   1.821  1.00  0.00     0.160 C 
HETATM   19  C   UNL     1      41.690 -15.233   1.005  1.00  0.00     0.166 A 
HETATM   20  N   UNL     1      42.718 -15.862   1.549  1.00  0.00    -0.128 NA
HETATM   21  N   UNL     1      42.487 -15.977   2.902  1.00  0.00    -0.122 NA
BRANCH  19  22
HETATM   22  C   UNL     1      41.555 -14.858  -0.398  1.00  0.00     0.045 A 
HETATM   23  C   UNL     1      41.897 -13.576  -0.849  1.00  0.00     0.082 A 
HETATM   24  C   UNL     1      41.786 -13.244  -2.202  1.00  0.00     0.038 A 
HETATM   25  C   UNL     1      41.298 -14.182  -3.111  1.00  0.00     0.003 A 
HETATM   26  C   UNL     1      40.933 -15.454  -2.671  1.00  0.00     0.001 A 
HETATM   27  C   UNL     1      41.062 -15.791  -1.321  1.00  0.00     0.018 A 
BRANCH  23  28
HETATM   28  O   UNL     1      42.433 -12.662   0.024  1.00  0.00    -0.355 OA
HETATM   29  C   UNL     1      42.503 -11.373  -0.587  1.00  0.00     0.210 C 
ENDBRANCH  23  28
ENDBRANCH  19  22
ENDBRANCH   1  16
TORSDOF 8
ENDMDL
MODEL 4
REMARK VINA RESULT:      -7.9      1.719      7.547
REMARK  8 active torsions:
REMARK  status: ('A' for Active; 'I' for Inactive)
REMARK    1  A    between atoms: C_3  and  C_4 
REMARK    2  A    between atoms: C_4  and  C_5 
REMARK    3  A    between atoms: C_5  and  N_6 
REMARK       I    between atoms: N_6  and  C_7 
REMARK    4  A    between atoms: C_7  and  C_8 
REMARK    5  A    between atoms: C_8  and  S_9 
REMARK    6  A    between atoms: S_9  and  C_10 
REMARK    7  A    between atoms: C_13  and  C_14 
REMARK    8  A    between atoms: C_15  and  O_16 
ROOT
HETATM    1  S   UNL     1      40.564 -14.599   4.834  1.00  0.00    -0.081 SA
ENDROOT
BRANCH   1   2
HETATM    2  C   UNL     1      39.976 -13.782   3.325  1.00  0.00     0.185 C 
BRANCH   2   3
HETATM    3  C   UNL     1      39.917 -14.743   2.142  1.00  0.00     0.227 C 
HETATM    4  N   UNL     1      40.982 -14.595   1.266  1.00  0.00    -0.360 N 
HETATM    5  H   UNL     1      41.552 -13.762   1.337  1.00  0.00     0.162 HD
HETATM    6  O   UNL     1      39.040 -15.586   1.969  1.00  0.00    -0.273 OA
BRANCH   4   7
HETATM    7  C   UNL     1      41.052 -15.379   0.044  1.00  0.00     0.127 C 
BRANCH   7   8
HETATM    8  C   UNL     1      41.123 -14.490  -1.197  1.00  0.00     0.058 C 
BRANCH   8   9
HETATM    9  C   UNL     1      40.000 -14.770  -2.170  1.00  0.00    -0.051 A 
HETATM   10  C   UNL     1      38.740 -14.141  -2.097  1.00  0.00    -0.056 A 
HETATM   11  C   UNL     1      38.368 -13.126  -1.051  1.00  0.00     0.049 C 
HETATM   12  C   UNL     1      37.749 -14.486  -3.035  1.00  0.00     0.007 A 
HETATM   13  C   UNL     1      37.995 -15.431  -4.031  1.00  0.00     0.001 A 
HETATM   14  C   UNL     1      39.235 -16.052  -4.102  1.00  0.00     0.001 A 
HETATM   15  C   UNL     1      40.228 -15.726  -3.178  1.00  0.00     0.007 A 
ENDBRANCH   8   9
ENDBRANCH   7   8
ENDBRANCH   4   7
ENDBRANCH   2   3
ENDBRANCH   1   2
BRANCH   1  16
HETATM   16  C   UNL     1      41.858 -15.525   4.161  1.00  0.00     0.191 A 
HETATM   17  N   UNL     1      41.957 -16.884   4.236  1.00  0.00    -0.312 N 
HETATM   18  C   UNL     1      41.058 -17.805   4.883  1.00  0.00     0.160 C 
HETATM   19  C   UNL     1      43.087 -17.214   3.521  1.00  0.00     0.166 A 
HETATM   20  N   UNL     1      43.643 -16.101   3.075  1.00  0.00    -0.128 NA
HETATM   21  N   UNL     1      42.861 -15.039   3.470  1.00  0.00    -0.122 NA
BRANCH  19  22
HETATM   22  C   UNL     1      43.563 -18.571   3.279  1.00  0.00     0.045 A 
HETATM   23  C   UNL     1      44.419 -19.219   4.180  1.00  0.00     0.082 A 
HETATM   24  C   UNL     1      44.842 -20.530   3.944  1.00  0.00     0.038 A 
HETATM   25  C   UNL     1      44.440 -21.192   2.785  1.00  0.00     0.003 A 
HETATM   26  C   UNL     1      43.607 -20.550   1.869  1.00  0.00     0.001 A 
HETATM   27  C   UNL     1      43.169 -19.246   2.115  1.00  0.00     0.018 A 
BRANCH  23  28
HETATM   28  O   UNL     1      44.775 -18.600   5.353  1.00  0.00    -0.355 OA
HETATM   29  C   UNL     1      44.181 -19.267   6.467  1.00  0.00     0.210 C 
ENDBRANCH  23  28
ENDBRANCH  19  22
ENDBRANCH   1  16
TORSDOF 8
ENDMDL
MODEL 5
REMARK VINA RESULT:      -7.7      1.835      6.872
REMARK  8 active torsions:
REMARK  status: ('A' for Active; 'I' for Inactive)
REMARK    1  A    between atoms: C_3  and  C_4 
REMARK    2  A    between atoms: C_4  and  C_5 
REMARK    3  A    between atoms: C_5  and  N_6 
REMARK       I    between atoms: N_6  and  C_7 
REMARK    4  A    between atoms: C_7  and  C_8 
REMARK    5  A    between atoms: C_8  and  S_9 
REMARK    6  A    between atoms: S_9  and  C_10 
REMARK    7  A    between atoms: C_13  and  C_14 
REMARK    8  A    between atoms: C_15  and  O_16 
ROOT
HETATM    1  S   UNL     1      41.242 -14.587   4.932  1.00  0.00    -0.081 SA
ENDROOT
BRANCH   1   2
HETATM    2  C   UNL     1      42.119 -13.014   4.717  1.00  0.00     0.185 C 
BRANCH   2   3
HETATM    3  C   UNL     1      41.654 -12.267   3.471  1.00  0.00     0.227 C 
HETATM    4  N   UNL     1      42.233 -12.742   2.304  1.00  0.00    -0.360 N 
HETATM    5  H   UNL     1      43.044 -13.343   2.377  1.00  0.00     0.162 HD
HETATM    6  O   UNL     1      40.835 -11.350   3.470  1.00  0.00    -0.273 OA
BRANCH   4   7
HETATM    7  C   UNL     1      41.961 -12.102   1.027  1.00  0.00     0.127 C 
BRANCH   7   8
HETATM    8  C   UNL     1      40.833 -12.802   0.270  1.00  0.00     0.058 C 
BRANCH   8   9
HETATM    9  C   UNL     1      40.761 -14.279   0.583  1.00  0.00    -0.051 A 
HETATM   10  C   UNL     1      39.793 -14.840   1.442  1.00  0.00    -0.056 A 
HETATM   11  C   UNL     1      38.727 -14.041   2.141  1.00  0.00     0.049 C 
HETATM   12  C   UNL     1      39.822 -16.225   1.690  1.00  0.00     0.007 A 
HETATM   13  C   UNL     1      40.783 -17.045   1.101  1.00  0.00     0.001 A 
HETATM   14  C   UNL     1      41.737 -16.493   0.257  1.00  0.00     0.001 A 
HETATM   15  C   UNL     1      41.728 -15.122   0.002  1.00  0.00     0.007 A 
ENDBRANCH   8   9
ENDBRANCH   7   8
ENDBRANCH   4   7
ENDBRANCH   2   3
ENDBRANCH   1   2
BRANCH   1  16
HETATM   16  C   UNL     1      42.381 -15.644   4.177  1.00  0.00     0.191 A 
HETATM   17  N   UNL     1      42.368 -17.004   4.293  1.00  0.00    -0.312 N 
HETATM   18  C   UNL     1      41.457 -17.822   5.053  1.00  0.00     0.160 C 
HETATM   19  C   UNL     1      43.392 -17.455   3.490  1.00  0.00     0.166 A 
HETATM   20  N   UNL     1      43.998 -16.409   2.954  1.00  0.00    -0.128 NA
HETATM   21  N   UNL     1      43.353 -15.270   3.380  1.00  0.00    -0.122 NA
BRANCH  19  22
HETATM   22  C   UNL     1      43.723 -18.856   3.256  1.00  0.00     0.045 A 
HETATM   23  C   UNL     1      44.465 -19.599   4.184  1.00  0.00     0.082 A 
HETATM   24  C   UNL     1      44.748 -20.947   3.953  1.00  0.00     0.038 A 
HETATM   25  C   UNL     1      44.321 -21.556   2.774  1.00  0.00     0.003 A 
HETATM   26  C   UNL     1      43.601 -20.822   1.832  1.00  0.00     0.001 A 
HETATM   27  C   UNL     1      43.302 -19.478   2.072  1.00  0.00     0.018 A 
BRANCH  23  28
HETATM   28  O   UNL     1      44.841 -19.028   5.375  1.00  0.00    -0.355 OA
HETATM   29  C   UNL     1      44.185 -19.677   6.465  1.00  0.00     0.210 C 
ENDBRANCH  23  28
ENDBRANCH  19  22
ENDBRANCH   1  16
TORSDOF 8
ENDMDL
MODEL 6
REMARK VINA RESULT:      -7.7      1.775      7.855
REMARK  8 active torsions:
REMARK  status: ('A' for Active; 'I' for Inactive)
REMARK    1  A    between atoms: C_3  and  C_4 
REMARK    2  A    between atoms: C_4  and  C_5 
REMARK    3  A    between atoms: C_5  and  N_6 
REMARK       I    between atoms: N_6  and  C_7 
REMARK    4  A    between atoms: C_7  and  C_8 
REMARK    5  A    between atoms: C_8  and  S_9 
REMARK    6  A    between atoms: S_9  and  C_10 
REMARK    7  A    between atoms: C_13  and  C_14 
REMARK    8  A    between atoms: C_15  and  O_16 
ROOT
HETATM    1  S   UNL     1      42.224 -14.483   2.776  1.00  0.00    -0.081 SA
ENDROOT
BRANCH   1   2
HETATM    2  C   UNL     1      40.507 -14.071   3.191  1.00  0.00     0.185 C 
BRANCH   2   3
HETATM    3  C   UNL     1      39.541 -14.469   2.081  1.00  0.00     0.227 C 
HETATM    4  N   UNL     1      39.045 -13.382   1.375  1.00  0.00    -0.360 N 
HETATM    5  H   UNL     1      39.160 -12.458   1.770  1.00  0.00     0.162 HD
HETATM    6  O   UNL     1      39.232 -15.625   1.803  1.00  0.00    -0.273 OA
BRANCH   4   7
HETATM    7  C   UNL     1      38.055 -13.567   0.327  1.00  0.00     0.127 C 
BRANCH   7   8
HETATM    8  C   UNL     1      38.532 -13.002  -1.011  1.00  0.00     0.058 C 
BRANCH   8   9
HETATM    9  C   UNL     1      38.835 -14.087  -2.018  1.00  0.00    -0.051 A 
HETATM   10  C   UNL     1      40.107 -14.682  -2.152  1.00  0.00    -0.056 A 
HETATM   11  C   UNL     1      41.300 -14.311  -1.315  1.00  0.00     0.049 C 
HETATM   12  C   UNL     1      40.298 -15.670  -3.137  1.00  0.00     0.007 A 
HETATM   13  C   UNL     1      39.255 -16.067  -3.973  1.00  0.00     0.001 A 
HETATM   14  C   UNL     1      38.004 -15.480  -3.843  1.00  0.00     0.001 A 
HETATM   15  C   UNL     1      37.796 -14.496  -2.876  1.00  0.00     0.007 A 
ENDBRANCH   8   9
ENDBRANCH   7   8
ENDBRANCH   4   7
ENDBRANCH   2   3
ENDBRANCH   1   2
BRANCH   1  16
HETATM   16  C   UNL     1      42.224 -16.152   3.225  1.00  0.00     0.191 A 
HETATM   17  N   UNL     1      43.018 -17.105   2.655  1.00  0.00    -0.312 N 
HETATM   18  C   UNL     1      43.972 -16.945   1.588  1.00  0.00     0.160 C 
HETATM   19  C   UNL     1      42.754 -18.268   3.345  1.00  0.00     0.166 A 
HETATM   20  N   UNL     1      41.826 -18.018   4.253  1.00  0.00    -0.128 NA
HETATM   21  N   UNL     1      41.502 -16.681   4.183  1.00  0.00    -0.122 NA
BRANCH  19  22
HETATM   22  C   UNL     1      43.415 -19.548   3.120  1.00  0.00     0.045 A 
HETATM   23  C   UNL     1      44.366 -20.049   4.019  1.00  0.00     0.082 A 
HETATM   24  C   UNL     1      44.969 -21.291   3.800  1.00  0.00     0.038 A 
HETATM   25  C   UNL     1      44.651 -22.026   2.659  1.00  0.00     0.003 A 
HETATM   26  C   UNL     1      43.723 -21.528   1.745  1.00  0.00     0.001 A 
HETATM   27  C   UNL     1      43.107 -20.295   1.974  1.00  0.00     0.018 A 
BRANCH  23  28
HETATM   28  O   UNL     1      44.645 -19.363   5.175  1.00  0.00    -0.355 OA
HETATM   29  C   UNL     1      44.053 -20.018   6.297  1.00  0.00     0.210 C 
ENDBRANCH  23  28
ENDBRANCH  19  22
ENDBRANCH   1  16
TORSDOF 8
ENDMDL
MODEL 7
REMARK VINA RESULT:      -7.7      4.515      8.717
REMARK  8 active torsions:
REMARK  status: ('A' for Active; 'I' for Inactive)
REMARK    1  A    between atoms: C_3  and  C_4 
REMARK    2  A    between atoms: C_4  and  C_5 
REMARK    3  A    between atoms: C_5  and  N_6 
REMARK       I    between atoms: N_6  and  C_7 
REMARK    4  A    between atoms: C_7  and  C_8 
REMARK    5  A    between atoms: C_8  and  S_9 
REMARK    6  A    between atoms: S_9  and  C_10 
REMARK    7  A    between atoms: C_13  and  C_14 
REMARK    8  A    between atoms: C_15  and  O_16 
ROOT
HETATM    1  S   UNL     1      41.601 -13.752   4.827  1.00  0.00    -0.081 SA
ENDROOT
BRANCH   1   2
HETATM    2  C   UNL     1      39.932 -13.569   5.513  1.00  0.00     0.185 C 
BRANCH   2   3
HETATM    3  C   UNL     1      39.782 -12.277   6.310  1.00  0.00     0.227 C 
HETATM    4  N   UNL     1      40.867 -12.016   7.133  1.00  0.00    -0.360 N 
HETATM    5  H   UNL     1      41.524 -12.763   7.317  1.00  0.00     0.162 HD
HETATM    6  O   UNL     1      38.820 -11.516   6.235  1.00  0.00    -0.273 OA
BRANCH   4   7
HETATM    7  C   UNL     1      40.866 -10.864   8.020  1.00  0.00     0.127 C 
BRANCH   7   8
HETATM    8  C   UNL     1      42.262 -10.565   8.565  1.00  0.00     0.058 C 
BRANCH   8   9
HETATM    9  C   UNL     1      42.343 -10.734  10.065  1.00  0.00    -0.051 A 
HETATM   10  C   UNL     1      43.563 -10.781  10.771  1.00  0.00    -0.056 A 
HETATM   11  C   UNL     1      44.915 -10.670  10.121  1.00  0.00     0.049 C 
HETATM   12  C   UNL     1      43.536 -10.965  12.166  1.00  0.00     0.007 A 
HETATM   13  C   UNL     1      42.331 -11.097  12.855  1.00  0.00     0.001 A 
HETATM   14  C   UNL     1      41.130 -11.052  12.159  1.00  0.00     0.001 A 
HETATM   15  C   UNL     1      41.136 -10.875  10.776  1.00  0.00     0.007 A 
ENDBRANCH   8   9
ENDBRANCH   7   8
ENDBRANCH   4   7
ENDBRANCH   2   3
ENDBRANCH   1   2
BRANCH   1  16
HETATM   16  C   UNL     1      41.677 -15.476   4.743  1.00  0.00     0.191 A 
HETATM   17  N   UNL     1      42.557 -16.173   3.966  1.00  0.00    -0.312 N 
HETATM   18  C   UNL     1      43.556 -15.653   3.069  1.00  0.00     0.160 C 
HETATM   19  C   UNL     1      42.326 -17.503   4.246  1.00  0.00     0.166 A 
HETATM   20  N   UNL     1      41.337 -17.583   5.120  1.00  0.00    -0.128 NA
HETATM   21  N   UNL     1      40.937 -16.305   5.439  1.00  0.00    -0.122 NA
BRANCH  19  22
HETATM   22  C   UNL     1      43.075 -18.622   3.688  1.00  0.00     0.045 A 
HETATM   23  C   UNL     1      44.106 -19.245   4.406  1.00  0.00     0.082 A 
HETATM   24  C   UNL     1      44.793 -20.334   3.864  1.00  0.00     0.038 A 
HETATM   25  C   UNL     1      44.479 -20.788   2.584  1.00  0.00     0.003 A 
HETATM   26  C   UNL     1      43.472 -20.162   1.850  1.00  0.00     0.001 A 
HETATM   27  C   UNL     1      42.772 -19.085   2.400  1.00  0.00     0.018 A 
BRANCH  23  28
HETATM   28  O   UNL     1      44.385 -18.846   5.689  1.00  0.00    -0.355 OA
HETATM   29  C   UNL     1      43.904 -19.811   6.625  1.00  0.00     0.210 C 
ENDBRANCH  23  28
ENDBRANCH  19  22
ENDBRANCH   1  16
TORSDOF 8
ENDMDL
MODEL 8
REMARK VINA RESULT:      -7.7      2.046      2.854
REMARK  8 active torsions:
REMARK  status: ('A' for Active; 'I' for Inactive)
REMARK    1  A    between atoms: C_3  and  C_4 
REMARK    2  A    between atoms: C_4  and  C_5 
REMARK    3  A    between atoms: C_5  and  N_6 
REMARK       I    between atoms: N_6  and  C_7 
REMARK    4  A    between atoms: C_7  and  C_8 
REMARK    5  A    between atoms: C_8  and  S_9 
REMARK    6  A    between atoms: S_9  and  C_10 
REMARK    7  A    between atoms: C_13  and  C_14 
REMARK    8  A    between atoms: C_15  and  O_16 
ROOT
HETATM    1  S   UNL     1      41.008 -12.900   5.700  1.00  0.00    -0.081 SA
ENDROOT
BRANCH   1   2
HETATM    2  C   UNL     1      40.114 -14.458   5.949  1.00  0.00     0.185 C 
BRANCH   2   3
HETATM    3  C   UNL     1      41.035 -15.669   5.842  1.00  0.00     0.227 C 
HETATM    4  N   UNL     1      40.712 -16.507   4.785  1.00  0.00    -0.360 N 
HETATM    5  H   UNL     1      39.810 -16.396   4.340  1.00  0.00     0.162 HD
HETATM    6  O   UNL     1      41.987 -15.891   6.587  1.00  0.00    -0.273 OA
BRANCH   4   7
HETATM    7  C   UNL     1      41.439 -17.748   4.574  1.00  0.00     0.127 C 
BRANCH   7   8
HETATM    8  C   UNL     1      42.544 -17.588   3.529  1.00  0.00     0.058 C 
BRANCH   8   9
HETATM    9  C   UNL     1      43.291 -18.878   3.281  1.00  0.00    -0.051 A 
HETATM   10  C   UNL     1      44.298 -19.365   4.140  1.00  0.00    -0.056 A 
HETATM   11  C   UNL     1      44.741 -18.663   5.395  1.00  0.00     0.049 C 
HETATM   12  C   UNL     1      44.954 -20.565   3.811  1.00  0.00     0.007 A 
HETATM   13  C   UNL     1      44.624 -21.277   2.658  1.00  0.00     0.001 A 
HETATM   14  C   UNL     1      43.635 -20.797   1.811  1.00  0.00     0.001 A 
HETATM   15  C   UNL     1      42.976 -19.606   2.117  1.00  0.00     0.007 A 
ENDBRANCH   8   9
ENDBRANCH   7   8
ENDBRANCH   4   7
ENDBRANCH   2   3
ENDBRANCH   1   2
BRANCH   1  16
HETATM   16  C   UNL     1      41.768 -13.256   4.189  1.00  0.00     0.191 A 
HETATM   17  N   UNL     1      41.109 -13.362   2.999  1.00  0.00    -0.312 N 
HETATM   18  C   UNL     1      39.697 -13.229   2.751  1.00  0.00     0.160 C 
HETATM   19  C   UNL     1      42.086 -13.584   2.053  1.00  0.00     0.166 A 
HETATM   20  N   UNL     1      43.258 -13.639   2.662  1.00  0.00    -0.128 NA
HETATM   21  N   UNL     1      43.056 -13.421   4.007  1.00  0.00    -0.122 NA
BRANCH  19  22
HETATM   22  C   UNL     1      41.855 -13.707   0.618  1.00  0.00     0.045 A 
HETATM   23  C   UNL     1      42.155 -12.660  -0.264  1.00  0.00     0.082 A 
HETATM   24  C   UNL     1      41.952 -12.807  -1.639  1.00  0.00     0.038 A 
HETATM   25  C   UNL     1      41.413 -13.992  -2.139  1.00  0.00     0.003 A 
HETATM   26  C   UNL     1      41.088 -15.032  -1.269  1.00  0.00     0.001 A 
HETATM   27  C   UNL     1      41.309 -14.891   0.103  1.00  0.00     0.018 A 
BRANCH  23  28
HETATM   28  O   UNL     1      42.741 -11.512   0.208  1.00  0.00    -0.355 OA
HETATM   29  C   UNL     1      42.655 -10.472  -0.768  1.00  0.00     0.210 C 
ENDBRANCH  23  28
ENDBRANCH  19  22
ENDBRANCH   1  16
TORSDOF 8
ENDMDL
MODEL 9
REMARK VINA RESULT:      -7.5      5.528      9.077
REMARK  8 active torsions:
REMARK  status: ('A' for Active; 'I' for Inactive)
REMARK    1  A    between atoms: C_3  and  C_4 
REMARK    2  A    between atoms: C_4  and  C_5 
REMARK    3  A    between atoms: C_5  and  N_6 
REMARK       I    between atoms: N_6  and  C_7 
REMARK    4  A    between atoms: C_7  and  C_8 
REMARK    5  A    between atoms: C_8  and  S_9 
REMARK    6  A    between atoms: S_9  and  C_10 
REMARK    7  A    between atoms: C_13  and  C_14 
REMARK    8  A    between atoms: C_15  and  O_16 
ROOT
HETATM    1  S   UNL     1      41.510 -12.728   5.726  1.00  0.00    -0.081 SA
ENDROOT
BRANCH   1   2
HETATM    2  C   UNL     1      39.812 -12.477   6.310  1.00  0.00     0.185 C 
BRANCH   2   3
HETATM    3  C   UNL     1      39.719 -11.345   7.328  1.00  0.00     0.227 C 
HETATM    4  N   UNL     1      40.571 -11.514   8.409  1.00  0.00    -0.360 N 
HETATM    5  H   UNL     1      40.986 -12.425   8.558  1.00  0.00     0.162 HD
HETATM    6  O   UNL     1      38.991 -10.362   7.216  1.00  0.00    -0.273 OA
BRANCH   4   7
HETATM    7  C   UNL     1      40.566 -10.568   9.513  1.00  0.00     0.127 C 
BRANCH   7   8
HETATM    8  C   UNL     1      41.842  -9.727   9.546  1.00  0.00     0.058 C 
BRANCH   8   9
HETATM    9  C   UNL     1      42.302  -9.434  10.956  1.00  0.00    -0.051 A 
HETATM   10  C   UNL     1      43.165 -10.284  11.678  1.00  0.00    -0.056 A 
HETATM   11  C   UNL     1      43.725 -11.570  11.135  1.00  0.00     0.049 C 
HETATM   12  C   UNL     1      43.518  -9.937  12.996  1.00  0.00     0.007 A 
HETATM   13  C   UNL     1      43.033  -8.773  13.591  1.00  0.00     0.001 A 
HETATM   14  C   UNL     1      42.181  -7.938  12.881  1.00  0.00     0.001 A 
HETATM   15  C   UNL     1      41.816  -8.267  11.575  1.00  0.00     0.007 A 
ENDBRANCH   8   9
ENDBRANCH   7   8
ENDBRANCH   4   7
ENDBRANCH   2   3
ENDBRANCH   1   2
BRANCH   1  16
HETATM   16  C   UNL     1      41.454 -14.430   5.434  1.00  0.00     0.191 A 
HETATM   17  N   UNL     1      42.258 -15.089   4.550  1.00  0.00    -0.312 N 
HETATM   18  C   UNL     1      43.269 -14.537   3.685  1.00  0.00     0.160 C 
HETATM   19  C   UNL     1      41.935 -16.423   4.678  1.00  0.00     0.166 A 
HETATM   20  N   UNL     1      40.967 -16.537   5.571  1.00  0.00    -0.128 NA
HETATM   21  N   UNL     1      40.673 -15.282   6.053  1.00  0.00    -0.122 NA
BRANCH  19  22
HETATM   22  C   UNL     1      42.583 -17.517   3.964  1.00  0.00     0.045 A 
HETATM   23  C   UNL     1      42.198 -17.873   2.664  1.00  0.00     0.082 A 
HETATM   24  C   UNL     1      42.849 -18.907   1.986  1.00  0.00     0.038 A 
HETATM   25  C   UNL     1      43.868 -19.619   2.618  1.00  0.00     0.003 A 
HETATM   26  C   UNL     1      44.245 -19.290   3.920  1.00  0.00     0.001 A 
HETATM   27  C   UNL     1      43.606 -18.243   4.590  1.00  0.00     0.018 A 
BRANCH  23  28
HETATM   28  O   UNL     1      41.237 -17.143   2.010  1.00  0.00    -0.355 OA
HETATM   29  C   UNL     1      41.722 -16.711   0.737  1.00  0.00     0.210 C 
ENDBRANCH  23  28
ENDBRANCH  19  22
ENDBRANCH   1  16
TORSDOF 8
ENDMDL
MODEL 10
REMARK VINA RESULT:      -7.5      5.797      9.818
REMARK  8 active torsions:
REMARK  status: ('A' for Active; 'I' for Inactive)
REMARK    1  A    between atoms: C_3  and  C_4 
REMARK    2  A    between atoms: C_4  and  C_5 
REMARK    3  A    between atoms: C_5  and  N_6 
REMARK       I    between atoms: N_6  and  C_7 
REMARK    4  A    between atoms: C_7  and  C_8 
REMARK    5  A    between atoms: C_8  and  S_9 
REMARK    6  A    between atoms: S_9  and  C_10 
REMARK    7  A    between atoms: C_13  and  C_14 
REMARK    8  A    between atoms: C_15  and  O_16 
ROOT
HETATM    1  S   UNL     1      41.616 -12.027   5.325  1.00  0.00    -0.081 SA
ENDROOT
BRANCH   1   2
HETATM    2  C   UNL     1      40.680 -11.375   6.734  1.00  0.00     0.185 C 
BRANCH   2   3
HETATM    3  C   UNL     1      41.542 -10.495   7.634  1.00  0.00     0.227 C 
HETATM    4  N   UNL     1      41.755 -11.045   8.889  1.00  0.00    -0.360 N 
HETATM    5  H   UNL     1      41.171 -11.817   9.184  1.00  0.00     0.162 HD
HETATM    6  O   UNL     1      42.028  -9.417   7.300  1.00  0.00    -0.273 OA
BRANCH   4   7
HETATM    7  C   UNL     1      42.495 -10.312   9.904  1.00  0.00     0.127 C 
BRANCH   7   8
HETATM    8  C   UNL     1      42.941 -11.221  11.049  1.00  0.00     0.058 C 
BRANCH   8   9
HETATM    9  C   UNL     1      42.655 -10.619  12.406  1.00  0.00    -0.051 A 
HETATM   10  C   UNL     1      41.485 -10.896  13.143  1.00  0.00    -0.056 A 
HETATM   11  C   UNL     1      40.394 -11.817  12.670  1.00  0.00     0.049 C 
HETATM   12  C   UNL     1      41.298 -10.267  14.388  1.00  0.00     0.007 A 
HETATM   13  C   UNL     1      42.246  -9.383  14.901  1.00  0.00     0.001 A 
HETATM   14  C   UNL     1      43.397  -9.109  14.175  1.00  0.00     0.001 A 
HETATM   15  C   UNL     1      43.598  -9.718  12.937  1.00  0.00     0.007 A 
ENDBRANCH   8   9
ENDBRANCH   7   8
ENDBRANCH   4   7
ENDBRANCH   2   3
ENDBRANCH   1   2
BRANCH   1  16
HETATM   16  C   UNL     1      41.419 -13.718   5.620  1.00  0.00     0.191 A 
HETATM   17  N   UNL     1      42.448 -14.609   5.725  1.00  0.00    -0.312 N 
HETATM   18  C   UNL     1      43.860 -14.355   5.597  1.00  0.00     0.160 C 
HETATM   19  C   UNL     1      41.862 -15.819   6.026  1.00  0.00     0.166 A 
HETATM   20  N   UNL     1      40.550 -15.653   6.063  1.00  0.00    -0.128 NA
HETATM   21  N   UNL     1      40.275 -14.327   5.818  1.00  0.00    -0.122 NA
BRANCH  19  22
HETATM   22  C   UNL     1      42.581 -17.060   6.286  1.00  0.00     0.045 A 
HETATM   23  C   UNL     1      42.932 -17.935   5.249  1.00  0.00     0.082 A 
HETATM   24  C   UNL     1      43.645 -19.107   5.516  1.00  0.00     0.038 A 
HETATM   25  C   UNL     1      43.982 -19.431   6.830  1.00  0.00     0.003 A 
HETATM   26  C   UNL     1      43.619 -18.580   7.873  1.00  0.00     0.001 A 
HETATM   27  C   UNL     1      42.922 -17.400   7.603  1.00  0.00     0.018 A 
BRANCH  23  28
HETATM   28  O   UNL     1      42.657 -17.600   3.947  1.00  0.00    -0.355 OA
HETATM   29  C   UNL     1      43.793 -17.851   3.119  1.00  0.00     0.210 C 
ENDBRANCH  23  28
ENDBRANCH  19  22
ENDBRANCH   1  16
TORSDOF 8
ENDMDL
