MODEL 1
REMARK VINA RESULT:      -7.8      0.000      0.000
REMARK  3 active torsions:
REMARK  status: ('A' for Active; 'I' for Inactive)
REMARK    1  A    between atoms: C_12  and  C_13 
REMARK    2  A    between atoms: C_13  and  N_14 
REMARK    3  A    between atoms: C_18  and  C_19 
ROOT
HETATM    1  N   UNL     1      41.624 -15.926   1.709  1.00  0.00    -0.067 N 
HETATM    2  H   UNL     1      41.959 -15.792   2.671  1.00  0.00     0.280 HD
HETATM    3  C   UNL     1      42.036 -14.704   0.916  1.00  0.00     0.236 C 
HETATM    4  C   UNL     1      41.324 -13.463   1.434  1.00  0.00     0.040 C 
HETATM    5  C   UNL     1      39.803 -13.618   1.465  1.00  0.00     0.062 C 
HETATM    6  C   UNL     1      39.425 -14.871   2.257  1.00  0.00     0.040 C 
HETATM    7  C   UNL     1      40.125 -16.123   1.753  1.00  0.00     0.236 C 
ENDROOT
BRANCH   1   8
HETATM    8  C   UNL     1      42.284 -17.192   1.189  1.00  0.00     0.273 C 
BRANCH   8   9
HETATM    9  C   UNL     1      42.982 -18.002   2.247  1.00  0.00    -0.028 A 
HETATM   10  C   UNL     1      43.520 -19.258   1.934  1.00  0.00     0.048 A 
HETATM   11  C   UNL     1      44.198 -20.006   2.900  1.00  0.00     0.103 A 
HETATM   12  C   UNL     1      44.368 -19.506   4.193  1.00  0.00     0.119 A 
HETATM   13  O   UNL     1      44.774 -21.165   2.458  1.00  0.00    -0.348 OA
HETATM   14  O   UNL     1      45.140 -20.153   5.119  1.00  0.00    -0.347 OA
HETATM   15  C   UNL     1      43.843 -18.247   4.508  1.00  0.00     0.047 A 
HETATM   16  C   UNL     1      44.605 -21.425   5.485  1.00  0.00     0.178 C 
HETATM   17  C   UNL     1      45.008 -22.506   4.495  1.00  0.00     0.053 C 
HETATM   18  C   UNL     1      44.302 -22.317   3.161  1.00  0.00     0.178 C 
HETATM   19 BR   UNL     1      44.050 -17.492   6.237  1.00  0.00    -0.048 Br
HETATM   20  C   UNL     1      43.146 -17.503   3.548  1.00  0.00     0.031 A 
ENDBRANCH   8   9
ENDBRANCH   1   8
BRANCH   5  21
HETATM   21  C   UNL     1      39.214 -13.614   0.090  1.00  0.00     0.151 A 
HETATM   22  N   UNL     1      37.986 -14.062  -0.167  1.00  0.00    -0.158 NA
HETATM   23  N   UNL     1      37.883 -13.850  -1.489  1.00  0.00    -0.270 N 
HETATM   24  H   UNL     1      37.028 -14.101  -1.976  1.00  0.00     0.190 HD
HETATM   25  C   UNL     1      39.025 -13.294  -1.978  1.00  0.00     0.227 A 
HETATM   26  N   UNL     1      39.890 -13.131  -1.000  1.00  0.00    -0.225 NA
ENDBRANCH   5  21
TORSDOF 3
ENDMDL
MODEL 2
REMARK VINA RESULT:      -7.7      1.529      1.938
REMARK  3 active torsions:
REMARK  status: ('A' for Active; 'I' for Inactive)
REMARK    1  A    between atoms: C_12  and  C_13 
REMARK    2  A    between atoms: C_13  and  N_14 
REMARK    3  A    between atoms: C_18  and  C_19 
ROOT
HETATM    1  N   UNL     1      40.507 -15.505   1.380  1.00  0.00    -0.067 N 
HETATM    2  H   UNL     1      41.135 -14.986   2.004  1.00  0.00     0.280 HD
HETATM    3  C   UNL     1      41.252 -15.739   0.083  1.00  0.00     0.236 C 
HETATM    4  C   UNL     1      41.536 -14.419  -0.619  1.00  0.00     0.040 C 
HETATM    5  C   UNL     1      40.276 -13.582  -0.846  1.00  0.00     0.062 C 
HETATM    6  C   UNL     1      39.539 -13.383   0.480  1.00  0.00     0.040 C 
HETATM    7  C   UNL     1      39.245 -14.691   1.195  1.00  0.00     0.236 C 
ENDROOT
BRANCH   1   8
HETATM    8  C   UNL     1      40.167 -16.807   2.086  1.00  0.00     0.273 C 
BRANCH   8   9
HETATM    9  C   UNL     1      41.267 -17.334   2.965  1.00  0.00    -0.028 A 
HETATM   10  C   UNL     1      42.276 -18.145   2.424  1.00  0.00     0.048 A 
HETATM   11  C   UNL     1      43.321 -18.614   3.224  1.00  0.00     0.103 A 
HETATM   12  C   UNL     1      43.388 -18.270   4.576  1.00  0.00     0.119 A 
HETATM   13  O   UNL     1      44.305 -19.305   2.572  1.00  0.00    -0.348 OA
HETATM   14  O   UNL     1      44.466 -18.603   5.351  1.00  0.00    -0.347 OA
HETATM   15  C   UNL     1      42.390 -17.453   5.119  1.00  0.00     0.047 A 
HETATM   16  C   UNL     1      44.607 -20.015   5.516  1.00  0.00     0.178 C 
HETATM   17  C   UNL     1      45.342 -20.643   4.343  1.00  0.00     0.053 C 
HETATM   18  C   UNL     1      44.484 -20.627   3.087  1.00  0.00     0.178 C 
HETATM   19 BR   UNL     1      42.424 -16.925   6.942  1.00  0.00    -0.048 Br
HETATM   20  C   UNL     1      41.331 -16.995   4.324  1.00  0.00     0.031 A 
ENDBRANCH   8   9
ENDBRANCH   1   8
BRANCH   5  21
HETATM   21  C   UNL     1      39.398 -14.173  -1.902  1.00  0.00     0.151 A 
HETATM   22  N   UNL     1      38.067 -14.125  -1.840  1.00  0.00    -0.158 NA
HETATM   23  N   UNL     1      37.713 -14.744  -2.979  1.00  0.00    -0.270 N 
HETATM   24  H   UNL     1      36.730 -14.857  -3.207  1.00  0.00     0.190 HD
HETATM   25  C   UNL     1      38.814 -15.137  -3.676  1.00  0.00     0.227 A 
HETATM   26  N   UNL     1      39.900 -14.788  -3.020  1.00  0.00    -0.225 NA
ENDBRANCH   5  21
TORSDOF 3
ENDMDL
MODEL 3
REMARK VINA RESULT:      -7.6      2.422      3.917
REMARK  3 active torsions:
REMARK  status: ('A' for Active; 'I' for Inactive)
REMARK    1  A    between atoms: C_12  and  C_13 
REMARK    2  A    between atoms: C_13  and  N_14 
REMARK    3  A    between atoms: C_18  and  C_19 
ROOT
HETATM    1  N   UNL     1      40.884 -15.316   2.044  1.00  0.00    -0.067 N 
HETATM    2  H   UNL     1      40.418 -14.964   1.200  1.00  0.00     0.280 HD
HETATM    3  C   UNL     1      40.127 -14.772   3.237  1.00  0.00     0.236 C 
HETATM    4  C   UNL     1      40.245 -13.256   3.301  1.00  0.00     0.040 C 
HETATM    5  C   UNL     1      41.695 -12.770   3.295  1.00  0.00     0.062 C 
HETATM    6  C   UNL     1      42.433 -13.355   2.090  1.00  0.00     0.040 C 
HETATM    7  C   UNL     1      42.329 -14.869   2.010  1.00  0.00     0.236 C 
ENDROOT
BRANCH   1   8
HETATM    8  C   UNL     1      40.825 -16.833   1.975  1.00  0.00     0.273 C 
BRANCH   8   9
HETATM    9  C   UNL     1      41.747 -17.530   2.937  1.00  0.00    -0.028 A 
HETATM   10  C   UNL     1      42.686 -18.459   2.466  1.00  0.00     0.048 A 
HETATM   11  C   UNL     1      43.571 -19.089   3.345  1.00  0.00     0.103 A 
HETATM   12  C   UNL     1      43.545 -18.791   4.710  1.00  0.00     0.119 A 
HETATM   13  O   UNL     1      44.513 -19.894   2.766  1.00  0.00    -0.348 OA
HETATM   14  O   UNL     1      44.484 -19.290   5.572  1.00  0.00    -0.347 OA
HETATM   15  C   UNL     1      42.618 -17.856   5.183  1.00  0.00     0.047 A 
HETATM   16  C   UNL     1      44.414 -20.711   5.696  1.00  0.00     0.178 C 
HETATM   17  C   UNL     1      45.172 -21.406   4.577  1.00  0.00     0.053 C 
HETATM   18  C   UNL     1      44.457 -21.240   3.245  1.00  0.00     0.178 C 
HETATM   19 BR   UNL     1      42.538 -17.384   7.020  1.00  0.00    -0.048 Br
HETATM   20  C   UNL     1      41.718 -17.236   4.308  1.00  0.00     0.031 A 
ENDBRANCH   8   9
ENDBRANCH   1   8
BRANCH   5  21
HETATM   21  C   UNL     1      42.387 -13.069   4.587  1.00  0.00     0.151 A 
HETATM   22  N   UNL     1      41.833 -12.822   5.773  1.00  0.00    -0.158 NA
HETATM   23  N   UNL     1      42.782 -13.256   6.619  1.00  0.00    -0.270 N 
HETATM   24  H   UNL     1      42.631 -13.193   7.622  1.00  0.00     0.190 HD
HETATM   25  C   UNL     1      43.854 -13.740   5.935  1.00  0.00     0.227 A 
HETATM   26  N   UNL     1      43.635 -13.636   4.642  1.00  0.00    -0.225 NA
ENDBRANCH   5  21
TORSDOF 3
ENDMDL
MODEL 4
REMARK VINA RESULT:      -7.4      2.169      3.245
REMARK  3 active torsions:
REMARK  status: ('A' for Active; 'I' for Inactive)
REMARK    1  A    between atoms: C_12  and  C_13 
REMARK    2  A    between atoms: C_13  and  N_14 
REMARK    3  A    between atoms: C_18  and  C_19 
ROOT
HETATM    1  N   UNL     1      40.597 -15.595   1.365  1.00  0.00    -0.067 N 
HETATM    2  H   UNL     1      41.273 -15.110   1.966  1.00  0.00     0.280 HD
HETATM    3  C   UNL     1      41.293 -15.889   0.052  1.00  0.00     0.236 C 
HETATM    4  C   UNL     1      41.639 -14.597  -0.673  1.00  0.00     0.040 C 
HETATM    5  C   UNL     1      40.429 -13.686  -0.878  1.00  0.00     0.062 C 
HETATM    6  C   UNL     1      39.741 -13.427   0.463  1.00  0.00     0.040 C 
HETATM    7  C   UNL     1      39.384 -14.706   1.203  1.00  0.00     0.236 C 
ENDROOT
BRANCH   1   8
HETATM    8  C   UNL     1      40.196 -16.866   2.095  1.00  0.00     0.273 C 
BRANCH   8   9
HETATM    9  C   UNL     1      41.250 -17.398   3.028  1.00  0.00    -0.028 A 
HETATM   10  C   UNL     1      41.206 -17.085   4.394  1.00  0.00     0.048 A 
HETATM   11  C   UNL     1      42.160 -17.600   5.276  1.00  0.00     0.103 A 
HETATM   12  C   UNL     1      43.167 -18.449   4.813  1.00  0.00     0.119 A 
HETATM   13  O   UNL     1      41.959 -17.319   6.599  1.00  0.00    -0.348 OA
HETATM   14  O   UNL     1      44.032 -19.073   5.670  1.00  0.00    -0.347 OA
HETATM   15  C   UNL     1      43.209 -18.774   3.452  1.00  0.00     0.047 A 
HETATM   16  C   UNL     1      44.876 -18.153   6.362  1.00  0.00     0.178 C 
HETATM   17  C   UNL     1      44.186 -17.576   7.588  1.00  0.00     0.053 C 
HETATM   18  C   UNL     1      43.064 -16.629   7.190  1.00  0.00     0.178 C 
HETATM   19 BR   UNL     1      44.534 -19.938   2.752  1.00  0.00    -0.048 Br
HETATM   20  C   UNL     1      42.265 -18.246   2.562  1.00  0.00     0.031 A 
ENDBRANCH   8   9
ENDBRANCH   1   8
BRANCH   5  21
HETATM   21  C   UNL     1      39.488 -14.232  -1.904  1.00  0.00     0.151 A 
HETATM   22  N   UNL     1      38.164 -14.116  -1.800  1.00  0.00    -0.158 NA
HETATM   23  N   UNL     1      37.743 -14.718  -2.925  1.00  0.00    -0.270 N 
HETATM   24  H   UNL     1      36.748 -14.780  -3.121  1.00  0.00     0.190 HD
HETATM   25  C   UNL     1      38.799 -15.167  -3.656  1.00  0.00     0.227 A 
HETATM   26  N   UNL     1      39.921 -14.874  -3.035  1.00  0.00    -0.225 NA
ENDBRANCH   5  21
TORSDOF 3
ENDMDL
MODEL 5
REMARK VINA RESULT:      -7.4      1.985      2.421
REMARK  3 active torsions:
REMARK  status: ('A' for Active; 'I' for Inactive)
REMARK    1  A    between atoms: C_12  and  C_13 
REMARK    2  A    between atoms: C_13  and  N_14 
REMARK    3  A    between atoms: C_18  and  C_19 
ROOT
HETATM    1  N   UNL     1      41.526 -15.401   3.819  1.00  0.00    -0.067 N 
HETATM    2  H   UNL     1      41.800 -15.467   4.806  1.00  0.00     0.280 HD
HETATM    3  C   UNL     1      42.723 -14.879   3.053  1.00  0.00     0.236 C 
HETATM    4  C   UNL     1      43.059 -13.459   3.486  1.00  0.00     0.040 C 
HETATM    5  C   UNL     1      41.869 -12.505   3.374  1.00  0.00     0.062 C 
HETATM    6  C   UNL     1      40.674 -13.073   4.142  1.00  0.00     0.040 C 
HETATM    7  C   UNL     1      40.321 -14.491   3.722  1.00  0.00     0.236 C 
ENDROOT
BRANCH   1   8
HETATM    8  C   UNL     1      41.135 -16.802   3.380  1.00  0.00     0.273 C 
BRANCH   8   9
HETATM    9  C   UNL     1      42.120 -17.868   3.773  1.00  0.00    -0.028 A 
HETATM   10  C   UNL     1      42.693 -18.694   2.795  1.00  0.00     0.048 A 
HETATM   11  C   UNL     1      43.635 -19.666   3.143  1.00  0.00     0.103 A 
HETATM   12  C   UNL     1      44.034 -19.821   4.473  1.00  0.00     0.119 A 
HETATM   13  O   UNL     1      44.207 -20.340   2.100  1.00  0.00    -0.348 OA
HETATM   14  O   UNL     1      45.048 -20.670   4.825  1.00  0.00    -0.347 OA
HETATM   15  C   UNL     1      43.473 -18.992   5.451  1.00  0.00     0.047 A 
HETATM   16  C   UNL     1      44.730 -22.038   4.570  1.00  0.00     0.178 C 
HETATM   17  C   UNL     1      45.007 -22.417   3.125  1.00  0.00     0.053 C 
HETATM   18  C   UNL     1      44.012 -21.754   2.184  1.00  0.00     0.178 C 
HETATM   19 BR   UNL     1      43.981 -19.128   7.275  1.00  0.00    -0.048 Br
HETATM   20  C   UNL     1      42.517 -18.028   5.108  1.00  0.00     0.031 A 
ENDBRANCH   8   9
ENDBRANCH   1   8
BRANCH   5  21
HETATM   21  C   UNL     1      41.535 -12.194   1.950  1.00  0.00     0.151 A 
HETATM   22  N   UNL     1      42.441 -12.237   0.974  1.00  0.00    -0.158 NA
HETATM   23  N   UNL     1      41.705 -11.915  -0.103  1.00  0.00    -0.270 N 
HETATM   24  H   UNL     1      42.144 -11.869  -1.018  1.00  0.00     0.190 HD
HETATM   25  C   UNL     1      40.410 -11.692   0.248  1.00  0.00     0.227 A 
HETATM   26  N   UNL     1      40.268 -11.862   1.544  1.00  0.00    -0.225 NA
ENDBRANCH   5  21
TORSDOF 3
ENDMDL
MODEL 6
REMARK VINA RESULT:      -7.3      2.719      4.584
REMARK  3 active torsions:
REMARK  status: ('A' for Active; 'I' for Inactive)
REMARK    1  A    between atoms: C_12  and  C_13 
REMARK    2  A    between atoms: C_13  and  N_14 
REMARK    3  A    between atoms: C_18  and  C_19 
ROOT
HETATM    1  N   UNL     1      40.642 -15.161   1.822  1.00  0.00    -0.067 N 
HETATM    2  H   UNL     1      40.076 -14.747   1.072  1.00  0.00     0.280 HD
HETATM    3  C   UNL     1      40.063 -14.685   3.137  1.00  0.00     0.236 C 
HETATM    4  C   UNL     1      40.224 -13.178   3.280  1.00  0.00     0.040 C 
HETATM    5  C   UNL     1      41.672 -12.715   3.110  1.00  0.00     0.062 C 
HETATM    6  C   UNL     1      42.229 -13.230   1.782  1.00  0.00     0.040 C 
HETATM    7  C   UNL     1      42.079 -14.734   1.621  1.00  0.00     0.236 C 
ENDROOT
BRANCH   1   8
HETATM    8  C   UNL     1      40.538 -16.669   1.666  1.00  0.00     0.273 C 
BRANCH   8   9
HETATM    9  C   UNL     1      41.507 -17.444   2.515  1.00  0.00    -0.028 A 
HETATM   10  C   UNL     1      41.626 -17.163   3.884  1.00  0.00     0.048 A 
HETATM   11  C   UNL     1      42.499 -17.898   4.691  1.00  0.00     0.103 A 
HETATM   12  C   UNL     1      43.258 -18.938   4.149  1.00  0.00     0.119 A 
HETATM   13  O   UNL     1      42.456 -17.612   6.027  1.00  0.00    -0.348 OA
HETATM   14  O   UNL     1      44.019 -19.758   4.937  1.00  0.00    -0.347 OA
HETATM   15  C   UNL     1      43.135 -19.230   2.786  1.00  0.00     0.047 A 
HETATM   16  C   UNL     1      45.091 -19.065   5.575  1.00  0.00     0.178 C 
HETATM   17  C   UNL     1      44.632 -18.380   6.852  1.00  0.00     0.053 C 
HETATM   18  C   UNL     1      43.725 -17.199   6.544  1.00  0.00     0.178 C 
HETATM   19 BR   UNL     1      44.117 -20.642   1.983  1.00  0.00    -0.048 Br
HETATM   20  C   UNL     1      42.274 -18.484   1.971  1.00  0.00     0.031 A 
ENDBRANCH   8   9
ENDBRANCH   1   8
BRANCH   5  21
HETATM   21  C   UNL     1      42.523 -13.107   4.275  1.00  0.00     0.151 A 
HETATM   22  N   UNL     1      43.761 -13.580   4.134  1.00  0.00    -0.158 NA
HETATM   23  N   UNL     1      44.133 -13.771   5.411  1.00  0.00    -0.270 N 
HETATM   24  H   UNL     1      45.058 -14.135   5.617  1.00  0.00     0.190 HD
HETATM   25  C   UNL     1      43.133 -13.416   6.262  1.00  0.00     0.227 A 
HETATM   26  N   UNL     1      42.097 -12.990   5.573  1.00  0.00    -0.225 NA
ENDBRANCH   5  21
TORSDOF 3
ENDMDL
MODEL 7
REMARK VINA RESULT:      -7.2      4.375      7.737
REMARK  3 active torsions:
REMARK  status: ('A' for Active; 'I' for Inactive)
REMARK    1  A    between atoms: C_12  and  C_13 
REMARK    2  A    between atoms: C_13  and  N_14 
REMARK    3  A    between atoms: C_18  and  C_19 
ROOT
HETATM    1  N   UNL     1      42.172 -15.454   6.559  1.00  0.00    -0.067 N 
HETATM    2  H   UNL     1      42.240 -14.982   7.468  1.00  0.00     0.280 HD
HETATM    3  C   UNL     1      41.779 -16.892   6.825  1.00  0.00     0.236 C 
HETATM    4  C   UNL     1      42.880 -17.616   7.586  1.00  0.00     0.040 C 
HETATM    5  C   UNL     1      44.240 -17.532   6.891  1.00  0.00     0.062 C 
HETATM    6  C   UNL     1      44.594 -16.069   6.620  1.00  0.00     0.040 C 
HETATM    7  C   UNL     1      43.507 -15.328   5.859  1.00  0.00     0.236 C 
ENDROOT
BRANCH   1   8
HETATM    8  C   UNL     1      41.113 -14.712   5.760  1.00  0.00     0.273 C 
BRANCH   8   9
HETATM    9  C   UNL     1      41.311 -14.771   4.271  1.00  0.00    -0.028 A 
HETATM   10  C   UNL     1      41.789 -13.649   3.578  1.00  0.00     0.048 A 
HETATM   11  C   UNL     1      42.008 -13.702   2.199  1.00  0.00     0.103 A 
HETATM   12  C   UNL     1      41.770 -14.880   1.488  1.00  0.00     0.119 A 
HETATM   13  O   UNL     1      42.576 -12.588   1.644  1.00  0.00    -0.348 OA
HETATM   14  O   UNL     1      42.101 -15.001   0.166  1.00  0.00    -0.347 OA
HETATM   15  C   UNL     1      41.303 -16.005   2.176  1.00  0.00     0.047 A 
HETATM   16  C   UNL     1      41.342 -14.128  -0.671  1.00  0.00     0.178 C 
HETATM   17  C   UNL     1      41.947 -12.735  -0.719  1.00  0.00     0.053 C 
HETATM   18  C   UNL     1      41.772 -12.016   0.610  1.00  0.00     0.178 C 
HETATM   19 BR   UNL     1      40.977 -17.648   1.283  1.00  0.00    -0.048 Br
HETATM   20  C   UNL     1      41.066 -15.952   3.555  1.00  0.00     0.031 A 
ENDBRANCH   8   9
ENDBRANCH   1   8
BRANCH   5  21
HETATM   21  C   UNL     1      44.285 -18.368   5.652  1.00  0.00     0.151 A 
HETATM   22  N   UNL     1      44.587 -19.665   5.671  1.00  0.00    -0.158 NA
HETATM   23  N   UNL     1      44.487 -19.993   4.372  1.00  0.00    -0.270 N 
HETATM   24  H   UNL     1      44.666 -20.949   4.078  1.00  0.00     0.190 HD
HETATM   25  C   UNL     1      44.135 -18.910   3.627  1.00  0.00     0.227 A 
HETATM   26  N   UNL     1      43.999 -17.862   4.410  1.00  0.00    -0.225 NA
ENDBRANCH   5  21
TORSDOF 3
ENDMDL
MODEL 8
REMARK VINA RESULT:      -6.9      4.467      5.624
REMARK  3 active torsions:
REMARK  status: ('A' for Active; 'I' for Inactive)
REMARK    1  A    between atoms: C_12  and  C_13 
REMARK    2  A    between atoms: C_13  and  N_14 
REMARK    3  A    between atoms: C_18  and  C_19 
ROOT
HETATM    1  N   UNL     1      40.558 -14.302   5.367  1.00  0.00    -0.067 N 
HETATM    2  H   UNL     1      40.503 -14.367   4.344  1.00  0.00     0.280 HD
HETATM    3  C   UNL     1      39.479 -13.340   5.817  1.00  0.00     0.236 C 
HETATM    4  C   UNL     1      39.759 -11.938   5.297  1.00  0.00     0.040 C 
HETATM    5  C   UNL     1      41.150 -11.429   5.677  1.00  0.00     0.062 C 
HETATM    6  C   UNL     1      42.212 -12.433   5.226  1.00  0.00     0.040 C 
HETATM    7  C   UNL     1      41.951 -13.840   5.737  1.00  0.00     0.236 C 
ENDROOT
BRANCH   1   8
HETATM    8  C   UNL     1      40.333 -15.705   5.906  1.00  0.00     0.273 C 
BRANCH   8   9
HETATM    9  C   UNL     1      41.478 -16.649   5.663  1.00  0.00    -0.028 A 
HETATM   10  C   UNL     1      41.849 -16.985   4.353  1.00  0.00     0.048 A 
HETATM   11  C   UNL     1      42.931 -17.835   4.112  1.00  0.00     0.103 A 
HETATM   12  C   UNL     1      43.674 -18.354   5.175  1.00  0.00     0.119 A 
HETATM   13  O   UNL     1      43.270 -18.009   2.799  1.00  0.00    -0.348 OA
HETATM   14  O   UNL     1      44.816 -19.079   4.968  1.00  0.00    -0.347 OA
HETATM   15  C   UNL     1      43.316 -18.013   6.484  1.00  0.00     0.047 A 
HETATM   16  C   UNL     1      44.566 -20.316   4.301  1.00  0.00     0.178 C 
HETATM   17  C   UNL     1      44.491 -20.133   2.794  1.00  0.00     0.053 C 
HETATM   18  C   UNL     1      43.231 -19.380   2.396  1.00  0.00     0.178 C 
HETATM   19 BR   UNL     1      44.290 -18.661   7.978  1.00  0.00    -0.048 Br
HETATM   20  C   UNL     1      42.221 -17.175   6.730  1.00  0.00     0.031 A 
ENDBRANCH   8   9
ENDBRANCH   1   8
BRANCH   5  21
HETATM   21  C   UNL     1      41.248 -11.113   7.136  1.00  0.00     0.151 A 
HETATM   22  N   UNL     1      40.194 -11.141   7.950  1.00  0.00    -0.158 NA
HETATM   23  N   UNL     1      40.745 -10.819   9.132  1.00  0.00    -0.270 N 
HETATM   24  H   UNL     1      40.163 -10.763   9.962  1.00  0.00     0.190 HD
HETATM   25  C   UNL     1      42.084 -10.612   8.998  1.00  0.00     0.227 A 
HETATM   26  N   UNL     1      42.435 -10.791   7.743  1.00  0.00    -0.225 NA
ENDBRANCH   5  21
TORSDOF 3
ENDMDL
MODEL 9
REMARK VINA RESULT:      -6.9      1.490      2.036
REMARK  3 active torsions:
REMARK  status: ('A' for Active; 'I' for Inactive)
REMARK    1  A    between atoms: C_12  and  C_13 
REMARK    2  A    between atoms: C_13  and  N_14 
REMARK    3  A    between atoms: C_18  and  C_19 
ROOT
HETATM    1  N   UNL     1      41.557 -15.658   2.413  1.00  0.00    -0.067 N 
HETATM    2  H   UNL     1      41.424 -16.658   2.222  1.00  0.00     0.280 HD
HETATM    3  C   UNL     1      40.269 -15.140   3.017  1.00  0.00     0.236 C 
HETATM    4  C   UNL     1      39.133 -15.220   2.008  1.00  0.00     0.040 C 
HETATM    5  C   UNL     1      39.454 -14.512   0.691  1.00  0.00     0.062 C 
HETATM    6  C   UNL     1      40.769 -15.046   0.122  1.00  0.00     0.040 C 
HETATM    7  C   UNL     1      41.918 -14.972   1.114  1.00  0.00     0.236 C 
ENDROOT
BRANCH   1   8
HETATM    8  C   UNL     1      42.724 -15.551   3.381  1.00  0.00     0.273 C 
BRANCH   8   9
HETATM    9  C   UNL     1      43.288 -16.876   3.814  1.00  0.00    -0.028 A 
HETATM   10  C   UNL     1      43.652 -17.835   2.858  1.00  0.00     0.048 A 
HETATM   11  C   UNL     1      44.207 -19.057   3.247  1.00  0.00     0.103 A 
HETATM   12  C   UNL     1      44.423 -19.338   4.598  1.00  0.00     0.119 A 
HETATM   13  O   UNL     1      44.624 -19.871   2.230  1.00  0.00    -0.348 OA
HETATM   14  O   UNL     1      45.085 -20.467   5.000  1.00  0.00    -0.347 OA
HETATM   15  C   UNL     1      44.072 -18.381   5.556  1.00  0.00     0.047 A 
HETATM   16  C   UNL     1      44.375 -21.663   4.677  1.00  0.00     0.178 C 
HETATM   17  C   UNL     1      44.641 -22.100   3.246  1.00  0.00     0.053 C 
HETATM   18  C   UNL     1      43.988 -21.151   2.253  1.00  0.00     0.178 C 
HETATM   19 BR   UNL     1      44.355 -18.683   7.408  1.00  0.00    -0.048 Br
HETATM   20  C   UNL     1      43.499 -17.162   5.171  1.00  0.00     0.031 A 
ENDBRANCH   8   9
ENDBRANCH   1   8
BRANCH   5  21
HETATM   21  C   UNL     1      39.464 -13.024   0.847  1.00  0.00     0.151 A 
HETATM   22  N   UNL     1      38.754 -12.395   1.783  1.00  0.00    -0.158 NA
HETATM   23  N   UNL     1      39.079 -11.111   1.563  1.00  0.00    -0.270 N 
HETATM   24  H   UNL     1      38.678 -10.382   2.145  1.00  0.00     0.190 HD
HETATM   25  C   UNL     1      39.954 -11.006   0.525  1.00  0.00     0.227 A 
HETATM   26  N   UNL     1      40.218 -12.203   0.049  1.00  0.00    -0.225 NA
ENDBRANCH   5  21
TORSDOF 3
ENDMDL
MODEL 10
REMARK VINA RESULT:      -6.8      4.310      7.272
REMARK  3 active torsions:
REMARK  status: ('A' for Active; 'I' for Inactive)
REMARK    1  A    between atoms: C_12  and  C_13 
REMARK    2  A    between atoms: C_13  and  N_14 
REMARK    3  A    between atoms: C_18  and  C_19 
ROOT
HETATM    1  N   UNL     1      41.932 -15.625   6.624  1.00  0.00    -0.067 N 
HETATM    2  H   UNL     1      42.112 -15.215   7.547  1.00  0.00     0.280 HD
HETATM    3  C   UNL     1      41.754 -17.116   6.821  1.00  0.00     0.236 C 
HETATM    4  C   UNL     1      43.048 -17.750   7.311  1.00  0.00     0.040 C 
HETATM    5  C   UNL     1      44.241 -17.448   6.402  1.00  0.00     0.062 C 
HETATM    6  C   UNL     1      44.377 -15.937   6.209  1.00  0.00     0.040 C 
HETATM    7  C   UNL     1      43.095 -15.285   5.718  1.00  0.00     0.236 C 
ENDROOT
BRANCH   1   8
HETATM    8  C   UNL     1      40.670 -14.967   6.092  1.00  0.00     0.273 C 
BRANCH   8   9
HETATM    9  C   UNL     1      40.684 -14.716   4.609  1.00  0.00    -0.028 A 
HETATM   10  C   UNL     1      40.651 -15.793   3.712  1.00  0.00     0.048 A 
HETATM   11  C   UNL     1      40.631 -15.573   2.332  1.00  0.00     0.103 A 
HETATM   12  C   UNL     1      40.627 -14.273   1.822  1.00  0.00     0.119 A 
HETATM   13  O   UNL     1      40.490 -16.689   1.554  1.00  0.00    -0.348 OA
HETATM   14  O   UNL     1      40.474 -14.025   0.485  1.00  0.00    -0.347 OA
HETATM   15  C   UNL     1      40.649 -13.194   2.713  1.00  0.00     0.047 A 
HETATM   16  C   UNL     1      41.564 -14.522  -0.293  1.00  0.00     0.178 C 
HETATM   17  C   UNL     1      41.392 -15.997  -0.616  1.00  0.00     0.053 C 
HETATM   18  C   UNL     1      41.567 -16.854   0.627  1.00  0.00     0.178 C 
HETATM   19 BR   UNL     1      40.624 -11.399   2.097  1.00  0.00    -0.048 Br
HETATM   20  C   UNL     1      40.687 -13.411   4.097  1.00  0.00     0.031 A 
ENDBRANCH   8   9
ENDBRANCH   1   8
BRANCH   5  21
HETATM   21  C   UNL     1      44.150 -18.182   5.102  1.00  0.00     0.151 A 
HETATM   22  N   UNL     1      44.300 -19.503   5.011  1.00  0.00    -0.158 NA
HETATM   23  N   UNL     1      44.123 -19.713   3.696  1.00  0.00    -0.270 N 
HETATM   24  H   UNL     1      44.181 -20.656   3.324  1.00  0.00     0.190 HD
HETATM   25  C   UNL     1      43.877 -18.541   3.050  1.00  0.00     0.227 A 
HETATM   26  N   UNL     1      43.887 -17.550   3.914  1.00  0.00    -0.225 NA
ENDBRANCH   5  21
TORSDOF 3
ENDMDL
