MODEL 1
REMARK VINA RESULT:      -8.1      0.000      0.000
REMARK  4 active torsions:
REMARK  status: ('A' for Active; 'I' for Inactive)
REMARK    1  A    between atoms: C_3  and  N_4 
REMARK       I    between atoms: N_4  and  C_5 
REMARK    2  A    between atoms: C_5  and  C_6 
REMARK    3  A    between atoms: C_6  and  C_7 
REMARK    4  A    between atoms: C_10  and  O_11 
ROOT
HETATM    1  N   UNL     1      42.744 -17.087   2.796  1.00  0.00    -0.326 N 
HETATM    2  C   UNL     1      43.607 -17.686   1.891  1.00  0.00     0.226 C 
HETATM    3  O   UNL     1      44.583 -17.171   1.355  1.00  0.00    -0.273 OA
HETATM    4  H   UNL     1      42.022 -17.686   3.167  1.00  0.00     0.169 HD
ENDROOT
BRANCH   1   5
HETATM    5  C   UNL     1      42.770 -15.749   3.280  1.00  0.00     0.047 A 
HETATM    6  C   UNL     1      42.313 -14.684   2.495  1.00  0.00     0.030 A 
HETATM    7  C   UNL     1      42.341 -13.380   2.979  1.00  0.00     0.005 A 
HETATM    8  C   UNL     1      42.826 -13.128   4.257  1.00  0.00     0.032 A 
HETATM    9  C   UNL     1      43.286 -14.146   5.073  1.00  0.00     0.069 A 
HETATM   10  C   UNL     1      43.269 -15.481   4.597  1.00  0.00     0.019 A 
HETATM   11  N   UNL     1      43.727 -13.797   6.294  1.00  0.00    -0.260 NA
HETATM   12  C   UNL     1      43.754 -16.455   5.505  1.00  0.00     0.017 A 
HETATM   13  C   UNL     1      44.210 -16.097   6.771  1.00  0.00     0.020 A 
HETATM   14  C   UNL     1      44.176 -14.764   7.116  1.00  0.00     0.117 A 
ENDBRANCH   1   5
BRANCH   2  15
HETATM   15  C   UNL     1      43.231 -19.128   1.580  1.00  0.00     0.141 C 
BRANCH  15  16
HETATM   16  C   UNL     1      43.862 -20.169   2.478  1.00  0.00    -0.049 A 
HETATM   17  C   UNL     1      44.277 -19.793   3.767  1.00  0.00     0.010 A 
HETATM   18  C   UNL     1      44.804 -20.736   4.654  1.00  0.00     0.037 A 
HETATM   19  C   UNL     1      44.912 -22.063   4.256  1.00  0.00     0.065 A 
HETATM   20  C   UNL     1      44.499 -22.458   2.991  1.00  0.00     0.037 A 
HETATM   21  C   UNL     1      43.965 -21.518   2.107  1.00  0.00     0.010 A 
BRANCH  19  22
HETATM   22  O   UNL     1      45.410 -23.019   5.090  1.00  0.00    -0.361 OA
HETATM   23  H   UNL     1      44.889 -23.018   5.910  1.00  0.00     0.217 HD
ENDBRANCH  19  22
ENDBRANCH  15  16
ENDBRANCH   2  15
TORSDOF 4
ENDMDL
MODEL 2
REMARK VINA RESULT:      -8.0      2.500      3.822
REMARK  4 active torsions:
REMARK  status: ('A' for Active; 'I' for Inactive)
REMARK    1  A    between atoms: C_3  and  N_4 
REMARK       I    between atoms: N_4  and  C_5 
REMARK    2  A    between atoms: C_5  and  C_6 
REMARK    3  A    between atoms: C_6  and  C_7 
REMARK    4  A    between atoms: C_10  and  O_11 
ROOT
HETATM    1  N   UNL     1      42.434 -17.893   5.651  1.00  0.00    -0.326 N 
HETATM    2  C   UNL     1      43.728 -17.878   6.151  1.00  0.00     0.226 C 
HETATM    3  O   UNL     1      44.427 -16.890   6.349  1.00  0.00    -0.273 OA
HETATM    4  H   UNL     1      42.000 -18.802   5.601  1.00  0.00     0.169 HD
ENDROOT
BRANCH   1   5
HETATM    5  C   UNL     1      41.644 -16.787   5.228  1.00  0.00     0.047 A 
HETATM    6  C   UNL     1      41.118 -15.875   6.150  1.00  0.00     0.030 A 
HETATM    7  C   UNL     1      40.349 -14.797   5.725  1.00  0.00     0.005 A 
HETATM    8  C   UNL     1      40.099 -14.619   4.370  1.00  0.00     0.032 A 
HETATM    9  C   UNL     1      40.598 -15.490   3.418  1.00  0.00     0.069 A 
HETATM   10  C   UNL     1      41.381 -16.597   3.832  1.00  0.00     0.019 A 
HETATM   11  N   UNL     1      40.305 -15.224   2.134  1.00  0.00    -0.260 NA
HETATM   12  C   UNL     1      41.853 -17.430   2.787  1.00  0.00     0.017 A 
HETATM   13  C   UNL     1      41.552 -17.157   1.455  1.00  0.00     0.020 A 
HETATM   14  C   UNL     1      40.780 -16.050   1.182  1.00  0.00     0.117 A 
ENDBRANCH   1   5
BRANCH   2  15
HETATM   15  C   UNL     1      44.263 -19.271   6.452  1.00  0.00     0.141 C 
BRANCH  15  16
HETATM   16  C   UNL     1      44.436 -20.171   5.249  1.00  0.00    -0.049 A 
HETATM   17  C   UNL     1      44.563 -21.556   5.448  1.00  0.00     0.010 A 
HETATM   18  C   UNL     1      44.659 -22.431   4.362  1.00  0.00     0.037 A 
HETATM   19  C   UNL     1      44.621 -21.923   3.070  1.00  0.00     0.065 A 
HETATM   20  C   UNL     1      44.486 -20.558   2.849  1.00  0.00     0.037 A 
HETATM   21  C   UNL     1      44.381 -19.685   3.934  1.00  0.00     0.010 A 
BRANCH  19  22
HETATM   22  O   UNL     1      44.700 -22.737   1.981  1.00  0.00    -0.361 OA
HETATM   23  H   UNL     1      44.093 -22.405   1.298  1.00  0.00     0.217 HD
ENDBRANCH  19  22
ENDBRANCH  15  16
ENDBRANCH   2  15
TORSDOF 4
ENDMDL
MODEL 3
REMARK VINA RESULT:      -7.7      2.884      7.058
REMARK  4 active torsions:
REMARK  status: ('A' for Active; 'I' for Inactive)
REMARK    1  A    between atoms: C_3  and  N_4 
REMARK       I    between atoms: N_4  and  C_5 
REMARK    2  A    between atoms: C_5  and  C_6 
REMARK    3  A    between atoms: C_6  and  C_7 
REMARK    4  A    between atoms: C_10  and  O_11 
ROOT
HETATM    1  N   UNL     1      42.906 -17.500   2.031  1.00  0.00    -0.326 N 
HETATM    2  C   UNL     1      41.576 -17.130   1.896  1.00  0.00     0.226 C 
HETATM    3  O   UNL     1      40.676 -17.317   2.709  1.00  0.00    -0.273 OA
HETATM    4  H   UNL     1      43.511 -17.218   1.274  1.00  0.00     0.169 HD
ENDROOT
BRANCH   1   5
HETATM    5  C   UNL     1      43.518 -18.199   3.108  1.00  0.00     0.047 A 
HETATM    6  C   UNL     1      43.821 -17.555   4.313  1.00  0.00     0.030 A 
HETATM    7  C   UNL     1      44.418 -18.249   5.360  1.00  0.00     0.005 A 
HETATM    8  C   UNL     1      44.716 -19.599   5.213  1.00  0.00     0.032 A 
HETATM    9  C   UNL     1      44.433 -20.282   4.044  1.00  0.00     0.069 A 
HETATM   10  C   UNL     1      43.828 -19.591   2.964  1.00  0.00     0.019 A 
HETATM   11  N   UNL     1      44.753 -21.587   4.007  1.00  0.00    -0.260 NA
HETATM   12  C   UNL     1      43.572 -20.375   1.811  1.00  0.00     0.017 A 
HETATM   13  C   UNL     1      43.902 -21.727   1.770  1.00  0.00     0.020 A 
HETATM   14  C   UNL     1      44.486 -22.282   2.886  1.00  0.00     0.117 A 
ENDBRANCH   1   5
BRANCH   2  15
HETATM   15  C   UNL     1      41.285 -16.433   0.575  1.00  0.00     0.141 C 
BRANCH  15  16
HETATM   16  C   UNL     1      41.559 -14.945   0.555  1.00  0.00    -0.049 A 
HETATM   17  C   UNL     1      41.836 -14.288   1.767  1.00  0.00     0.010 A 
HETATM   18  C   UNL     1      42.159 -12.929   1.788  1.00  0.00     0.037 A 
HETATM   19  C   UNL     1      42.213 -12.221   0.593  1.00  0.00     0.065 A 
HETATM   20  C   UNL     1      41.953 -12.851  -0.616  1.00  0.00     0.037 A 
HETATM   21  C   UNL     1      41.639 -14.212  -0.638  1.00  0.00     0.010 A 
BRANCH  19  22
HETATM   22  O   UNL     1      42.534 -10.897   0.563  1.00  0.00    -0.361 OA
HETATM   23  H   UNL     1      42.845 -10.672  -0.330  1.00  0.00     0.217 HD
ENDBRANCH  19  22
ENDBRANCH  15  16
ENDBRANCH   2  15
TORSDOF 4
ENDMDL
MODEL 4
REMARK VINA RESULT:      -7.6      3.172      7.054
REMARK  4 active torsions:
REMARK  status: ('A' for Active; 'I' for Inactive)
REMARK    1  A    between atoms: C_3  and  N_4 
REMARK       I    between atoms: N_4  and  C_5 
REMARK    2  A    between atoms: C_5  and  C_6 
REMARK    3  A    between atoms: C_6  and  C_7 
REMARK    4  A    between atoms: C_10  and  O_11 
ROOT
HETATM    1  N   UNL     1      42.019 -17.369   2.686  1.00  0.00    -0.326 N 
HETATM    2  C   UNL     1      42.251 -16.715   1.485  1.00  0.00     0.226 C 
HETATM    3  O   UNL     1      43.326 -16.605   0.904  1.00  0.00    -0.273 OA
HETATM    4  H   UNL     1      41.055 -17.394   2.985  1.00  0.00     0.169 HD
ENDROOT
BRANCH   1   5
HETATM    5  C   UNL     1      42.962 -18.026   3.524  1.00  0.00     0.047 A 
HETATM    6  C   UNL     1      43.418 -17.434   4.708  1.00  0.00     0.030 A 
HETATM    7  C   UNL     1      44.340 -18.086   5.520  1.00  0.00     0.005 A 
HETATM    8  C   UNL     1      44.813 -19.341   5.157  1.00  0.00     0.032 A 
HETATM    9  C   UNL     1      44.392 -19.970   4.000  1.00  0.00     0.069 A 
HETATM   10  C   UNL     1      43.457 -19.320   3.156  1.00  0.00     0.019 A 
HETATM   11  N   UNL     1      44.906 -21.186   3.745  1.00  0.00    -0.260 NA
HETATM   12  C   UNL     1      43.080 -20.044   1.997  1.00  0.00     0.017 A 
HETATM   13  C   UNL     1      43.610 -21.304   1.731  1.00  0.00     0.020 A 
HETATM   14  C   UNL     1      44.512 -21.828   2.629  1.00  0.00     0.117 A 
ENDBRANCH   1   5
BRANCH   2  15
HETATM   15  C   UNL     1      40.993 -16.090   0.897  1.00  0.00     0.141 C 
BRANCH  15  16
HETATM   16  C   UNL     1      41.198 -15.301  -0.377  1.00  0.00    -0.049 A 
HETATM   17  C   UNL     1      41.682 -13.985  -0.291  1.00  0.00     0.010 A 
HETATM   18  C   UNL     1      41.949 -13.242  -1.444  1.00  0.00     0.037 A 
HETATM   19  C   UNL     1      41.737 -13.817  -2.691  1.00  0.00     0.065 A 
HETATM   20  C   UNL     1      41.268 -15.119  -2.800  1.00  0.00     0.037 A 
HETATM   21  C   UNL     1      41.010 -15.865  -1.647  1.00  0.00     0.010 A 
BRANCH  19  22
HETATM   22  O   UNL     1      41.992 -13.136  -3.843  1.00  0.00    -0.361 OA
HETATM   23  H   UNL     1      42.408 -12.287  -3.618  1.00  0.00     0.217 HD
ENDBRANCH  19  22
ENDBRANCH  15  16
ENDBRANCH   2  15
TORSDOF 4
ENDMDL
MODEL 5
REMARK VINA RESULT:      -7.6      1.853      2.950
REMARK  4 active torsions:
REMARK  status: ('A' for Active; 'I' for Inactive)
REMARK    1  A    between atoms: C_3  and  N_4 
REMARK       I    between atoms: N_4  and  C_5 
REMARK    2  A    between atoms: C_5  and  C_6 
REMARK    3  A    between atoms: C_6  and  C_7 
REMARK    4  A    between atoms: C_10  and  O_11 
ROOT
HETATM    1  N   UNL     1      42.824 -17.037   3.335  1.00  0.00    -0.326 N 
HETATM    2  C   UNL     1      42.480 -17.750   2.196  1.00  0.00     0.226 C 
HETATM    3  O   UNL     1      41.387 -17.761   1.638  1.00  0.00    -0.273 OA
HETATM    4  H   UNL     1      43.788 -17.117   3.620  1.00  0.00     0.169 HD
ENDROOT
BRANCH   1   5
HETATM    5  C   UNL     1      41.994 -16.194   4.126  1.00  0.00     0.047 A 
HETATM    6  C   UNL     1      41.356 -16.674   5.275  1.00  0.00     0.030 A 
HETATM    7  C   UNL     1      40.549 -15.840   6.042  1.00  0.00     0.005 A 
HETATM    8  C   UNL     1      40.375 -14.513   5.668  1.00  0.00     0.032 A 
HETATM    9  C   UNL     1      40.986 -13.989   4.543  1.00  0.00     0.069 A 
HETATM   10  C   UNL     1      41.809 -14.824   3.746  1.00  0.00     0.019 A 
HETATM   11  N   UNL     1      40.759 -12.692   4.274  1.00  0.00    -0.260 NA
HETATM   12  C   UNL     1      42.398 -14.198   2.619  1.00  0.00     0.017 A 
HETATM   13  C   UNL     1      42.165 -12.854   2.338  1.00  0.00     0.020 A 
HETATM   14  C   UNL     1      41.345 -12.149   3.189  1.00  0.00     0.117 A 
ENDBRANCH   1   5
BRANCH   2  15
HETATM   15  C   UNL     1      43.630 -18.583   1.648  1.00  0.00     0.141 C 
BRANCH  15  16
HETATM   16  C   UNL     1      43.963 -19.826   2.443  1.00  0.00    -0.049 A 
HETATM   17  C   UNL     1      43.867 -21.081   1.817  1.00  0.00     0.010 A 
HETATM   18  C   UNL     1      44.228 -22.249   2.493  1.00  0.00     0.037 A 
HETATM   19  C   UNL     1      44.694 -22.166   3.800  1.00  0.00     0.065 A 
HETATM   20  C   UNL     1      44.806 -20.937   4.435  1.00  0.00     0.037 A 
HETATM   21  C   UNL     1      44.454 -19.768   3.756  1.00  0.00     0.010 A 
BRANCH  19  22
HETATM   22  O   UNL     1      45.067 -23.277   4.495  1.00  0.00    -0.361 OA
HETATM   23  H   UNL     1      45.397 -23.941   3.867  1.00  0.00     0.217 HD
ENDBRANCH  19  22
ENDBRANCH  15  16
ENDBRANCH   2  15
TORSDOF 4
ENDMDL
MODEL 6
REMARK VINA RESULT:      -7.6      2.075      2.209
REMARK  4 active torsions:
REMARK  status: ('A' for Active; 'I' for Inactive)
REMARK    1  A    between atoms: C_3  and  N_4 
REMARK       I    between atoms: N_4  and  C_5 
REMARK    2  A    between atoms: C_5  and  C_6 
REMARK    3  A    between atoms: C_6  and  C_7 
REMARK    4  A    between atoms: C_10  and  O_11 
ROOT
HETATM    1  N   UNL     1      41.841 -17.594   1.778  1.00  0.00    -0.326 N 
HETATM    2  C   UNL     1      43.212 -17.744   1.633  1.00  0.00     0.226 C 
HETATM    3  O   UNL     1      44.067 -16.881   1.804  1.00  0.00    -0.273 OA
HETATM    4  H   UNL     1      41.297 -18.433   1.640  1.00  0.00     0.169 HD
ENDROOT
BRANCH   1   5
HETATM    5  C   UNL     1      41.118 -16.417   2.120  1.00  0.00     0.047 A 
HETATM    6  C   UNL     1      40.567 -15.590   1.134  1.00  0.00     0.030 A 
HETATM    7  C   UNL     1      39.861 -14.443   1.480  1.00  0.00     0.005 A 
HETATM    8  C   UNL     1      39.696 -14.112   2.820  1.00  0.00     0.032 A 
HETATM    9  C   UNL     1      40.217 -14.897   3.832  1.00  0.00     0.069 A 
HETATM   10  C   UNL     1      40.944 -16.068   3.499  1.00  0.00     0.019 A 
HETATM   11  N   UNL     1      39.995 -14.492   5.094  1.00  0.00    -0.260 NA
HETATM   12  C   UNL     1      41.434 -16.810   4.602  1.00  0.00     0.017 A 
HETATM   13  C   UNL     1      41.205 -16.394   5.912  1.00  0.00     0.020 A 
HETATM   14  C   UNL     1      40.485 -15.237   6.103  1.00  0.00     0.117 A 
ENDBRANCH   1   5
BRANCH   2  15
HETATM   15  C   UNL     1      43.613 -19.150   1.211  1.00  0.00     0.141 C 
BRANCH  15  16
HETATM   16  C   UNL     1      44.077 -20.054   2.332  1.00  0.00    -0.049 A 
HETATM   17  C   UNL     1      44.301 -19.499   3.604  1.00  0.00     0.010 A 
HETATM   18  C   UNL     1      44.668 -20.307   4.684  1.00  0.00     0.037 A 
HETATM   19  C   UNL     1      44.805 -21.677   4.496  1.00  0.00     0.065 A 
HETATM   20  C   UNL     1      44.579 -22.248   3.251  1.00  0.00     0.037 A 
HETATM   21  C   UNL     1      44.205 -21.442   2.174  1.00  0.00     0.010 A 
BRANCH  19  22
HETATM   22  O   UNL     1      45.150 -22.506   5.522  1.00  0.00    -0.361 OA
HETATM   23  H   UNL     1      46.059 -22.818   5.377  1.00  0.00     0.217 HD
ENDBRANCH  19  22
ENDBRANCH  15  16
ENDBRANCH   2  15
TORSDOF 4
ENDMDL
MODEL 7
REMARK VINA RESULT:      -7.5      3.725      5.586
REMARK  4 active torsions:
REMARK  status: ('A' for Active; 'I' for Inactive)
REMARK    1  A    between atoms: C_3  and  N_4 
REMARK       I    between atoms: N_4  and  C_5 
REMARK    2  A    between atoms: C_5  and  C_6 
REMARK    3  A    between atoms: C_6  and  C_7 
REMARK    4  A    between atoms: C_10  and  O_11 
ROOT
HETATM    1  N   UNL     1      42.291 -15.791   0.334  1.00  0.00    -0.326 N 
HETATM    2  C   UNL     1      42.271 -17.082   0.840  1.00  0.00     0.226 C 
HETATM    3  O   UNL     1      41.281 -17.724   1.177  1.00  0.00    -0.273 OA
HETATM    4  H   UNL     1      43.201 -15.445   0.069  1.00  0.00     0.169 HD
ENDROOT
BRANCH   1   5
HETATM    5  C   UNL     1      41.191 -14.914   0.123  1.00  0.00     0.047 A 
HETATM    6  C   UNL     1      40.731 -14.068   1.138  1.00  0.00     0.030 A 
HETATM    7  C   UNL     1      39.655 -13.214   0.919  1.00  0.00     0.005 A 
HETATM    8  C   UNL     1      39.030 -13.195  -0.322  1.00  0.00     0.032 A 
HETATM    9  C   UNL     1      39.448 -14.009  -1.359  1.00  0.00     0.069 A 
HETATM   10  C   UNL     1      40.540 -14.890  -1.154  1.00  0.00     0.019 A 
HETATM   11  N   UNL     1      38.781 -13.909  -2.521  1.00  0.00    -0.260 NA
HETATM   12  C   UNL     1      40.900 -15.680  -2.275  1.00  0.00     0.017 A 
HETATM   13  C   UNL     1      40.211 -15.577  -3.481  1.00  0.00     0.020 A 
HETATM   14  C   UNL     1      39.167 -14.684  -3.552  1.00  0.00     0.117 A 
ENDBRANCH   1   5
BRANCH   2  15
HETATM   15  C   UNL     1      43.661 -17.692   0.966  1.00  0.00     0.141 C 
BRANCH  15  16
HETATM   16  C   UNL     1      43.937 -18.407   2.270  1.00  0.00    -0.049 A 
HETATM   17  C   UNL     1      43.799 -17.699   3.476  1.00  0.00     0.010 A 
HETATM   18  C   UNL     1      43.981 -18.336   4.707  1.00  0.00     0.037 A 
HETATM   19  C   UNL     1      44.295 -19.689   4.735  1.00  0.00     0.065 A 
HETATM   20  C   UNL     1      44.428 -20.411   3.556  1.00  0.00     0.037 A 
HETATM   21  C   UNL     1      44.238 -19.776   2.327  1.00  0.00     0.010 A 
BRANCH  19  22
HETATM   22  O   UNL     1      44.471 -20.356   5.910  1.00  0.00    -0.361 OA
HETATM   23  H   UNL     1      45.312 -20.071   6.307  1.00  0.00     0.217 HD
ENDBRANCH  19  22
ENDBRANCH  15  16
ENDBRANCH   2  15
TORSDOF 4
ENDMDL
MODEL 8
REMARK VINA RESULT:      -7.5      4.080      6.997
REMARK  4 active torsions:
REMARK  status: ('A' for Active; 'I' for Inactive)
REMARK    1  A    between atoms: C_3  and  N_4 
REMARK       I    between atoms: N_4  and  C_5 
REMARK    2  A    between atoms: C_5  and  C_6 
REMARK    3  A    between atoms: C_6  and  C_7 
REMARK    4  A    between atoms: C_10  and  O_11 
ROOT
HETATM    1  N   UNL     1      42.832 -16.076   0.922  1.00  0.00    -0.326 N 
HETATM    2  C   UNL     1      41.544 -15.670   0.609  1.00  0.00     0.226 C 
HETATM    3  O   UNL     1      40.499 -16.130   1.059  1.00  0.00    -0.273 OA
HETATM    4  H   UNL     1      43.571 -15.546   0.484  1.00  0.00     0.169 HD
ENDROOT
BRANCH   1   5
HETATM    5  C   UNL     1      43.234 -17.124   1.797  1.00  0.00     0.047 A 
HETATM    6  C   UNL     1      43.508 -18.409   1.315  1.00  0.00     0.030 A 
HETATM    7  C   UNL     1      43.901 -19.425   2.180  1.00  0.00     0.005 A 
HETATM    8  C   UNL     1      44.028 -19.163   3.539  1.00  0.00     0.032 A 
HETATM    9  C   UNL     1      43.773 -17.910   4.065  1.00  0.00     0.069 A 
HETATM   10  C   UNL     1      43.366 -16.862   3.200  1.00  0.00     0.019 A 
HETATM   11  N   UNL     1      43.933 -17.760   5.391  1.00  0.00    -0.260 NA
HETATM   12  C   UNL     1      43.134 -15.614   3.829  1.00  0.00     0.017 A 
HETATM   13  C   UNL     1      43.300 -15.455   5.202  1.00  0.00     0.020 A 
HETATM   14  C   UNL     1      43.698 -16.551   5.934  1.00  0.00     0.117 A 
ENDBRANCH   1   5
BRANCH   2  15
HETATM   15  C   UNL     1      41.510 -14.539  -0.410  1.00  0.00     0.141 C 
BRANCH  15  16
HETATM   16  C   UNL     1      40.554 -14.738  -1.565  1.00  0.00    -0.049 A 
HETATM   17  C   UNL     1      40.852 -15.713  -2.534  1.00  0.00     0.010 A 
HETATM   18  C   UNL     1      39.965 -15.976  -3.582  1.00  0.00     0.037 A 
HETATM   19  C   UNL     1      38.772 -15.269  -3.661  1.00  0.00     0.065 A 
HETATM   20  C   UNL     1      38.453 -14.309  -2.710  1.00  0.00     0.037 A 
HETATM   21  C   UNL     1      39.334 -14.051  -1.658  1.00  0.00     0.010 A 
BRANCH  19  22
HETATM   22  O   UNL     1      37.872 -15.498  -4.659  1.00  0.00    -0.361 OA
HETATM   23  H   UNL     1      37.374 -16.306  -4.449  1.00  0.00     0.217 HD
ENDBRANCH  19  22
ENDBRANCH  15  16
ENDBRANCH   2  15
TORSDOF 4
ENDMDL
MODEL 9
REMARK VINA RESULT:      -7.4      2.503      4.194
REMARK  4 active torsions:
REMARK  status: ('A' for Active; 'I' for Inactive)
REMARK    1  A    between atoms: C_3  and  N_4 
REMARK       I    between atoms: N_4  and  C_5 
REMARK    2  A    between atoms: C_5  and  C_6 
REMARK    3  A    between atoms: C_6  and  C_7 
REMARK    4  A    between atoms: C_10  and  O_11 
ROOT
HETATM    1  N   UNL     1      41.386 -16.417   3.857  1.00  0.00    -0.326 N 
HETATM    2  C   UNL     1      42.737 -16.540   4.146  1.00  0.00     0.226 C 
HETATM    3  O   UNL     1      43.623 -15.738   3.868  1.00  0.00    -0.273 OA
HETATM    4  H   UNL     1      40.800 -17.160   4.208  1.00  0.00     0.169 HD
ENDROOT
BRANCH   1   5
HETATM    5  C   UNL     1      40.731 -15.368   3.155  1.00  0.00     0.047 A 
HETATM    6  C   UNL     1      40.045 -14.356   3.836  1.00  0.00     0.030 A 
HETATM    7  C   UNL     1      39.409 -13.333   3.139  1.00  0.00     0.005 A 
HETATM    8  C   UNL     1      39.456 -13.312   1.751  1.00  0.00     0.032 A 
HETATM    9  C   UNL     1      40.123 -14.286   1.031  1.00  0.00     0.069 A 
HETATM   10  C   UNL     1      40.774 -15.339   1.723  1.00  0.00     0.019 A 
HETATM   11  N   UNL     1      40.115 -14.169  -0.308  1.00  0.00    -0.260 NA
HETATM   12  C   UNL     1      41.435 -16.286   0.901  1.00  0.00     0.017 A 
HETATM   13  C   UNL     1      41.429 -16.167  -0.486  1.00  0.00     0.020 A 
HETATM   14  C   UNL     1      40.760 -15.098  -1.038  1.00  0.00     0.117 A 
ENDBRANCH   1   5
BRANCH   2  15
HETATM   15  C   UNL     1      43.073 -17.833   4.877  1.00  0.00     0.141 C 
BRANCH  15  16
HETATM   16  C   UNL     1      43.527 -18.975   3.995  1.00  0.00    -0.049 A 
HETATM   17  C   UNL     1      44.353 -19.971   4.543  1.00  0.00     0.010 A 
HETATM   18  C   UNL     1      44.743 -21.078   3.784  1.00  0.00     0.037 A 
HETATM   19  C   UNL     1      44.302 -21.195   2.472  1.00  0.00     0.065 A 
HETATM   20  C   UNL     1      43.478 -20.228   1.912  1.00  0.00     0.037 A 
HETATM   21  C   UNL     1      43.081 -19.126   2.673  1.00  0.00     0.010 A 
BRANCH  19  22
HETATM   22  O   UNL     1      44.648 -22.261   1.696  1.00  0.00    -0.361 OA
HETATM   23  H   UNL     1      44.278 -22.132   0.807  1.00  0.00     0.217 HD
ENDBRANCH  19  22
ENDBRANCH  15  16
ENDBRANCH   2  15
TORSDOF 4
ENDMDL
MODEL 10
REMARK VINA RESULT:      -7.3      3.096      6.547
REMARK  4 active torsions:
REMARK  status: ('A' for Active; 'I' for Inactive)
REMARK    1  A    between atoms: C_3  and  N_4 
REMARK       I    between atoms: N_4  and  C_5 
REMARK    2  A    between atoms: C_5  and  C_6 
REMARK    3  A    between atoms: C_6  and  C_7 
REMARK    4  A    between atoms: C_10  and  O_11 
ROOT
HETATM    1  N   UNL     1      42.748 -16.652   2.301  1.00  0.00    -0.326 N 
HETATM    2  C   UNL     1      41.408 -16.311   2.199  1.00  0.00     0.226 C 
HETATM    3  O   UNL     1      40.446 -17.027   2.460  1.00  0.00    -0.273 OA
HETATM    4  H   UNL     1      43.400 -15.912   2.085  1.00  0.00     0.169 HD
ENDROOT
BRANCH   1   5
HETATM    5  C   UNL     1      43.310 -17.899   2.695  1.00  0.00     0.047 A 
HETATM    6  C   UNL     1      43.431 -18.959   1.790  1.00  0.00     0.030 A 
HETATM    7  C   UNL     1      43.983 -20.173   2.186  1.00  0.00     0.005 A 
HETATM    8  C   UNL     1      44.423 -20.337   3.494  1.00  0.00     0.032 A 
HETATM    9  C   UNL     1      44.328 -19.319   4.426  1.00  0.00     0.069 A 
HETATM   10  C   UNL     1      43.765 -18.076   4.043  1.00  0.00     0.019 A 
HETATM   11  N   UNL     1      44.790 -19.578   5.661  1.00  0.00    -0.260 NA
HETATM   12  C   UNL     1      43.716 -17.093   5.062  1.00  0.00     0.017 A 
HETATM   13  C   UNL     1      44.194 -17.358   6.343  1.00  0.00     0.020 A 
HETATM   14  C   UNL     1      44.718 -18.606   6.591  1.00  0.00     0.117 A 
ENDBRANCH   1   5
BRANCH   2  15
HETATM   15  C   UNL     1      41.194 -14.890   1.696  1.00  0.00     0.141 C 
BRANCH  15  16
HETATM   16  C   UNL     1      41.240 -14.722   0.194  1.00  0.00    -0.049 A 
HETATM   17  C   UNL     1      41.684 -13.501  -0.341  1.00  0.00     0.010 A 
HETATM   18  C   UNL     1      41.805 -13.324  -1.722  1.00  0.00     0.037 A 
HETATM   19  C   UNL     1      41.487 -14.373  -2.575  1.00  0.00     0.065 A 
HETATM   20  C   UNL     1      41.056 -15.592  -2.069  1.00  0.00     0.037 A 
HETATM   21  C   UNL     1      40.943 -15.772  -0.688  1.00  0.00     0.010 A 
BRANCH  19  22
HETATM   22  O   UNL     1      41.600 -14.251  -3.928  1.00  0.00    -0.361 OA
HETATM   23  H   UNL     1      40.740 -14.457  -4.331  1.00  0.00     0.217 HD
ENDBRANCH  19  22
ENDBRANCH  15  16
ENDBRANCH   2  15
TORSDOF 4
ENDMDL
