MODEL 1
REMARK VINA RESULT:      -9.0      0.000      0.000
REMARK  5 active torsions:
REMARK  status: ('A' for Active; 'I' for Inactive)
REMARK    1  A    between atoms: C_9  and  N_10 
REMARK       I    between atoms: N_10  and  C_11 
REMARK    2  A    between atoms: C_11  and  C_12 
REMARK    3  A    between atoms: C_14  and  C_15 
REMARK    4  A    between atoms: C_15  and  O_16 
REMARK    5  A    between atoms: O_16  and  C_17 
ROOT
HETATM    1  N   UNL     1      44.269 -14.672   7.570  1.00  0.00    -0.321 N 
HETATM    2  C   UNL     1      45.166 -13.620   7.435  1.00  0.00     0.279 C 
HETATM    3  O   UNL     1      45.901 -13.453   6.467  1.00  0.00    -0.265 OA
HETATM    4  H   UNL     1      43.839 -14.778   8.478  1.00  0.00     0.169 HD
ENDROOT
BRANCH   2   5
HETATM    5  C   UNL     1      45.202 -12.741   8.595  1.00  0.00     0.143 A 
HETATM    6  O   UNL     1      44.436 -13.082   9.676  1.00  0.00    -0.307 OA
HETATM    7  C   UNL     1      44.598 -12.120  10.627  1.00  0.00     0.078 A 
HETATM    8  C   UNL     1      45.481 -11.161  10.177  1.00  0.00     0.038 A 
HETATM    9  C   UNL     1      45.866 -11.556   8.870  1.00  0.00     0.045 A 
BRANCH   7  10
HETATM   10  C   UNL     1      43.807 -12.285  11.874  1.00  0.00     0.240 C 
BRANCH  10  11
HETATM   11  O   UNL     1      42.606 -11.536  11.709  1.00  0.00    -0.345 OA
BRANCH  11  12
HETATM   12  C   UNL     1      42.595 -10.283  12.262  1.00  0.00     0.069 A 
HETATM   13  C   UNL     1      42.430  -9.083  11.567  1.00  0.00     0.037 A 
HETATM   14  C   UNL     1      42.439  -7.866  12.256  1.00  0.00     0.003 A 
HETATM   15  C   UNL     1      42.617  -7.843  13.639  1.00  0.00     0.000 A 
HETATM   16  C   UNL     1      42.789  -9.037  14.334  1.00  0.00     0.003 A 
HETATM   17  C   UNL     1      42.782 -10.251  13.646  1.00  0.00     0.037 A 
ENDBRANCH  11  12
ENDBRANCH  10  11
ENDBRANCH   7  10
ENDBRANCH   2   5
BRANCH   1  18
HETATM   18  C   UNL     1      44.003 -15.700   6.638  1.00  0.00     0.037 A 
HETATM   19  C   UNL     1      44.757 -16.877   6.542  1.00  0.00     0.063 A 
HETATM   20  C   UNL     1      44.402 -17.841   5.584  1.00  0.00     0.087 A 
HETATM   21  N   UNL     1      44.981 -19.054   5.300  1.00  0.00    -0.234 NA
HETATM   22  C   UNL     1      43.311 -17.611   4.755  1.00  0.00     0.062 A 
HETATM   23  C   UNL     1      44.266 -19.574   4.326  1.00  0.00     0.101 A 
HETATM   24  C   UNL     1      44.482 -20.883   3.668  1.00  0.00     0.091 C 
HETATM   25  N   UNL     1      43.240 -18.734   3.970  1.00  0.00    -0.343 N 
HETATM   26  H   UNL     1      42.554 -18.912   3.253  1.00  0.00     0.167 HD
HETATM   27  C   UNL     1      42.540 -16.451   4.812  1.00  0.00     0.034 A 
HETATM   28  C   UNL     1      42.917 -15.498   5.769  1.00  0.00     0.032 A 
ENDBRANCH   1  18
TORSDOF 5
ENDMDL
MODEL 2
REMARK VINA RESULT:      -8.9      1.314      2.027
REMARK  5 active torsions:
REMARK  status: ('A' for Active; 'I' for Inactive)
REMARK    1  A    between atoms: C_9  and  N_10 
REMARK       I    between atoms: N_10  and  C_11 
REMARK    2  A    between atoms: C_11  and  C_12 
REMARK    3  A    between atoms: C_14  and  C_15 
REMARK    4  A    between atoms: C_15  and  O_16 
REMARK    5  A    between atoms: O_16  and  C_17 
ROOT
HETATM    1  N   UNL     1      44.081 -14.432   7.381  1.00  0.00    -0.321 N 
HETATM    2  C   UNL     1      45.132 -13.524   7.377  1.00  0.00     0.279 C 
HETATM    3  O   UNL     1      45.963 -13.427   6.479  1.00  0.00    -0.265 OA
HETATM    4  H   UNL     1      43.565 -14.513   8.246  1.00  0.00     0.169 HD
ENDROOT
BRANCH   2   5
HETATM    5  C   UNL     1      45.200 -12.715   8.585  1.00  0.00     0.143 A 
HETATM    6  O   UNL     1      44.465 -13.122   9.665  1.00  0.00    -0.307 OA
HETATM    7  C   UNL     1      44.653 -12.217  10.666  1.00  0.00     0.078 A 
HETATM    8  C   UNL     1      45.522 -11.232  10.249  1.00  0.00     0.038 A 
HETATM    9  C   UNL     1      45.871 -11.547   8.911  1.00  0.00     0.045 A 
BRANCH   7  10
HETATM   10  C   UNL     1      43.898 -12.457  11.923  1.00  0.00     0.240 C 
BRANCH  10  11
HETATM   11  O   UNL     1      42.742 -11.623  11.882  1.00  0.00    -0.345 OA
BRANCH  11  12
HETATM   12  C   UNL     1      42.634 -10.693  12.881  1.00  0.00     0.069 A 
HETATM   13  C   UNL     1      43.554  -9.681  13.161  1.00  0.00     0.037 A 
HETATM   14  C   UNL     1      43.322  -8.793  14.215  1.00  0.00     0.003 A 
HETATM   15  C   UNL     1      42.173  -8.913  14.995  1.00  0.00     0.000 A 
HETATM   16  C   UNL     1      41.256  -9.926  14.724  1.00  0.00     0.003 A 
HETATM   17  C   UNL     1      41.489 -10.813  13.672  1.00  0.00     0.037 A 
ENDBRANCH  11  12
ENDBRANCH  10  11
ENDBRANCH   7  10
ENDBRANCH   2   5
BRANCH   1  18
HETATM   18  C   UNL     1      43.745 -15.364   6.373  1.00  0.00     0.037 A 
HETATM   19  C   UNL     1      42.927 -15.061   5.276  1.00  0.00     0.063 A 
HETATM   20  C   UNL     1      42.663 -16.061   4.325  1.00  0.00     0.087 A 
HETATM   21  N   UNL     1      41.899 -16.008   3.184  1.00  0.00    -0.234 NA
HETATM   22  C   UNL     1      43.218 -17.323   4.487  1.00  0.00     0.062 A 
HETATM   23  C   UNL     1      41.982 -17.203   2.641  1.00  0.00     0.101 A 
HETATM   24  C   UNL     1      41.337 -17.654   1.387  1.00  0.00     0.091 C 
HETATM   25  N   UNL     1      42.777 -18.030   3.397  1.00  0.00    -0.343 N 
HETATM   26  H   UNL     1      42.995 -18.991   3.186  1.00  0.00     0.167 HD
HETATM   27  C   UNL     1      44.028 -17.667   5.567  1.00  0.00     0.034 A 
HETATM   28  C   UNL     1      44.273 -16.659   6.510  1.00  0.00     0.032 A 
ENDBRANCH   1  18
TORSDOF 5
ENDMDL
MODEL 3
REMARK VINA RESULT:      -8.4      5.748      9.905
REMARK  5 active torsions:
REMARK  status: ('A' for Active; 'I' for Inactive)
REMARK    1  A    between atoms: C_9  and  N_10 
REMARK       I    between atoms: N_10  and  C_11 
REMARK    2  A    between atoms: C_11  and  C_12 
REMARK    3  A    between atoms: C_14  and  C_15 
REMARK    4  A    between atoms: C_15  and  O_16 
REMARK    5  A    between atoms: O_16  and  C_17 
ROOT
HETATM    1  N   UNL     1      41.582 -15.677   3.239  1.00  0.00    -0.321 N 
HETATM    2  C   UNL     1      42.239 -14.889   4.175  1.00  0.00     0.279 C 
HETATM    3  O   UNL     1      42.240 -13.662   4.173  1.00  0.00    -0.265 OA
HETATM    4  H   UNL     1      41.789 -16.665   3.264  1.00  0.00     0.169 HD
ENDROOT
BRANCH   2   5
HETATM    5  C   UNL     1      42.991 -15.661   5.153  1.00  0.00     0.143 A 
HETATM    6  O   UNL     1      43.067 -17.016   4.971  1.00  0.00    -0.307 OA
HETATM    7  C   UNL     1      43.788 -17.538   6.003  1.00  0.00     0.078 A 
HETATM    8  C   UNL     1      44.199 -16.528   6.846  1.00  0.00     0.038 A 
HETATM    9  C   UNL     1      43.684 -15.322   6.304  1.00  0.00     0.045 A 
BRANCH   7  10
HETATM   10  C   UNL     1      43.948 -19.015   6.014  1.00  0.00     0.240 C 
BRANCH  10  11
HETATM   11  O   UNL     1      44.972 -19.332   5.073  1.00  0.00    -0.345 OA
BRANCH  11  12
HETATM   12  C   UNL     1      44.594 -20.104   4.007  1.00  0.00     0.069 A 
HETATM   13  C   UNL     1      43.980 -19.644   2.840  1.00  0.00     0.037 A 
HETATM   14  C   UNL     1      43.644 -20.543   1.823  1.00  0.00     0.003 A 
HETATM   15  C   UNL     1      43.916 -21.902   1.968  1.00  0.00     0.000 A 
HETATM   16  C   UNL     1      44.522 -22.366   3.134  1.00  0.00     0.003 A 
HETATM   17  C   UNL     1      44.855 -21.468   4.150  1.00  0.00     0.037 A 
ENDBRANCH  11  12
ENDBRANCH  10  11
ENDBRANCH   7  10
ENDBRANCH   2   5
BRANCH   1  18
HETATM   18  C   UNL     1      40.781 -15.242   2.159  1.00  0.00     0.037 A 
HETATM   19  C   UNL     1      41.238 -15.154   0.838  1.00  0.00     0.063 A 
HETATM   20  C   UNL     1      40.355 -14.717  -0.164  1.00  0.00     0.087 A 
HETATM   21  N   UNL     1      40.567 -14.546  -1.510  1.00  0.00    -0.234 NA
HETATM   22  C   UNL     1      39.049 -14.385   0.174  1.00  0.00     0.062 A 
HETATM   23  C   UNL     1      39.422 -14.128  -2.004  1.00  0.00     0.101 A 
HETATM   24  C   UNL     1      39.131 -13.807  -3.420  1.00  0.00     0.091 C 
HETATM   25  N   UNL     1      38.473 -14.022  -1.017  1.00  0.00    -0.343 N 
HETATM   26  H   UNL     1      37.518 -13.726  -1.147  1.00  0.00     0.167 HD
HETATM   27  C   UNL     1      38.557 -14.450   1.476  1.00  0.00     0.034 A 
HETATM   28  C   UNL     1      39.457 -14.880   2.462  1.00  0.00     0.032 A 
ENDBRANCH   1  18
TORSDOF 5
ENDMDL
MODEL 4
REMARK VINA RESULT:      -8.2      2.453      3.748
REMARK  5 active torsions:
REMARK  status: ('A' for Active; 'I' for Inactive)
REMARK    1  A    between atoms: C_9  and  N_10 
REMARK       I    between atoms: N_10  and  C_11 
REMARK    2  A    between atoms: C_11  and  C_12 
REMARK    3  A    between atoms: C_14  and  C_15 
REMARK    4  A    between atoms: C_15  and  O_16 
REMARK    5  A    between atoms: O_16  and  C_17 
ROOT
HETATM    1  N   UNL     1      42.242 -15.863   5.275  1.00  0.00    -0.321 N 
HETATM    2  C   UNL     1      42.469 -14.571   4.818  1.00  0.00     0.279 C 
HETATM    3  O   UNL     1      43.325 -14.265   3.994  1.00  0.00    -0.265 OA
HETATM    4  H   UNL     1      41.616 -15.954   6.062  1.00  0.00     0.169 HD
ENDROOT
BRANCH   2   5
HETATM    5  C   UNL     1      41.619 -13.576   5.456  1.00  0.00     0.143 A 
HETATM    6  O   UNL     1      42.232 -12.549   6.121  1.00  0.00    -0.307 OA
HETATM    7  C   UNL     1      41.261 -11.757   6.658  1.00  0.00     0.078 A 
HETATM    8  C   UNL     1      40.017 -12.254   6.330  1.00  0.00     0.038 A 
HETATM    9  C   UNL     1      40.245 -13.425   5.562  1.00  0.00     0.045 A 
BRANCH   7  10
HETATM   10  C   UNL     1      41.725 -10.600   7.465  1.00  0.00     0.240 C 
BRANCH  10  11
HETATM   11  O   UNL     1      42.919 -11.006   8.131  1.00  0.00    -0.345 OA
BRANCH  11  12
HETATM   12  C   UNL     1      43.044 -10.616   9.437  1.00  0.00     0.069 A 
HETATM   13  C   UNL     1      42.104  -9.887  10.168  1.00  0.00     0.037 A 
HETATM   14  C   UNL     1      42.357  -9.551  11.501  1.00  0.00     0.003 A 
HETATM   15  C   UNL     1      43.550  -9.939  12.108  1.00  0.00     0.000 A 
HETATM   16  C   UNL     1      44.494 -10.660  11.381  1.00  0.00     0.003 A 
HETATM   17  C   UNL     1      44.242 -10.993  10.049  1.00  0.00     0.037 A 
ENDBRANCH  11  12
ENDBRANCH  10  11
ENDBRANCH   7  10
ENDBRANCH   2   5
BRANCH   1  18
HETATM   18  C   UNL     1      42.900 -17.046   4.871  1.00  0.00     0.037 A 
HETATM   19  C   UNL     1      42.564 -17.766   3.716  1.00  0.00     0.063 A 
HETATM   20  C   UNL     1      43.289 -18.927   3.400  1.00  0.00     0.087 A 
HETATM   21  N   UNL     1      43.148 -19.791   2.342  1.00  0.00    -0.234 NA
HETATM   22  C   UNL     1      44.323 -19.336   4.233  1.00  0.00     0.062 A 
HETATM   23  C   UNL     1      44.074 -20.711   2.502  1.00  0.00     0.101 A 
HETATM   24  C   UNL     1      44.340 -21.867   1.616  1.00  0.00     0.091 C 
HETATM   25  N   UNL     1      44.813 -20.468   3.634  1.00  0.00    -0.343 N 
HETATM   26  H   UNL     1      45.582 -21.029   3.968  1.00  0.00     0.167 HD
HETATM   27  C   UNL     1      44.683 -18.654   5.394  1.00  0.00     0.034 A 
HETATM   28  C   UNL     1      43.941 -17.503   5.696  1.00  0.00     0.032 A 
ENDBRANCH   1  18
TORSDOF 5
ENDMDL
MODEL 5
REMARK VINA RESULT:      -8.1      6.791     10.518
REMARK  5 active torsions:
REMARK  status: ('A' for Active; 'I' for Inactive)
REMARK    1  A    between atoms: C_9  and  N_10 
REMARK       I    between atoms: N_10  and  C_11 
REMARK    2  A    between atoms: C_11  and  C_12 
REMARK    3  A    between atoms: C_14  and  C_15 
REMARK    4  A    between atoms: C_15  and  O_16 
REMARK    5  A    between atoms: O_16  and  C_17 
ROOT
HETATM    1  N   UNL     1      41.390 -14.748   1.401  1.00  0.00    -0.321 N 
HETATM    2  C   UNL     1      40.275 -14.743   2.229  1.00  0.00     0.279 C 
HETATM    3  O   UNL     1      39.163 -14.345   1.896  1.00  0.00    -0.265 OA
HETATM    4  H   UNL     1      42.274 -14.955   1.845  1.00  0.00     0.169 HD
ENDROOT
BRANCH   2   5
HETATM    5  C   UNL     1      40.557 -15.209   3.579  1.00  0.00     0.143 A 
HETATM    6  O   UNL     1      41.275 -16.366   3.715  1.00  0.00    -0.307 OA
HETATM    7  C   UNL     1      41.401 -16.629   5.046  1.00  0.00     0.078 A 
HETATM    8  C   UNL     1      40.783 -15.637   5.779  1.00  0.00     0.038 A 
HETATM    9  C   UNL     1      40.236 -14.727   4.838  1.00  0.00     0.045 A 
BRANCH   7  10
HETATM   10  C   UNL     1      42.117 -17.879   5.407  1.00  0.00     0.240 C 
BRANCH  10  11
HETATM   11  O   UNL     1      43.375 -17.849   4.736  1.00  0.00    -0.345 OA
BRANCH  11  12
HETATM   12  C   UNL     1      43.714 -18.977   4.039  1.00  0.00     0.069 A 
HETATM   13  C   UNL     1      44.491 -20.034   4.518  1.00  0.00     0.037 A 
HETATM   14  C   UNL     1      44.764 -21.133   3.698  1.00  0.00     0.003 A 
HETATM   15  C   UNL     1      44.267 -21.178   2.396  1.00  0.00     0.000 A 
HETATM   16  C   UNL     1      43.499 -20.122   1.911  1.00  0.00     0.003 A 
HETATM   17  C   UNL     1      43.228 -19.025   2.730  1.00  0.00     0.037 A 
ENDBRANCH  11  12
ENDBRANCH  10  11
ENDBRANCH   7  10
ENDBRANCH   2   5
BRANCH   1  18
HETATM   18  C   UNL     1      41.458 -14.349   0.048  1.00  0.00     0.037 A 
HETATM   19  C   UNL     1      41.888 -13.082  -0.369  1.00  0.00     0.063 A 
HETATM   20  C   UNL     1      41.925 -12.791  -1.743  1.00  0.00     0.087 A 
HETATM   21  N   UNL     1      42.300 -11.636  -2.387  1.00  0.00    -0.234 NA
HETATM   22  C   UNL     1      41.540 -13.761  -2.659  1.00  0.00     0.062 A 
HETATM   23  C   UNL     1      42.162 -11.881  -3.672  1.00  0.00     0.101 A 
HETATM   24  C   UNL     1      42.447 -10.950  -4.788  1.00  0.00     0.091 C 
HETATM   25  N   UNL     1      41.709 -13.161  -3.880  1.00  0.00    -0.343 N 
HETATM   26  H   UNL     1      41.530 -13.583  -4.778  1.00  0.00     0.167 HD
HETATM   27  C   UNL     1      41.098 -15.030  -2.286  1.00  0.00     0.034 A 
HETATM   28  C   UNL     1      41.060 -15.297  -0.910  1.00  0.00     0.032 A 
ENDBRANCH   1  18
TORSDOF 5
ENDMDL
MODEL 6
REMARK VINA RESULT:      -8.0      6.687     10.721
REMARK  5 active torsions:
REMARK  status: ('A' for Active; 'I' for Inactive)
REMARK    1  A    between atoms: C_9  and  N_10 
REMARK       I    between atoms: N_10  and  C_11 
REMARK    2  A    between atoms: C_11  and  C_12 
REMARK    3  A    between atoms: C_14  and  C_15 
REMARK    4  A    between atoms: C_15  and  O_16 
REMARK    5  A    between atoms: O_16  and  C_17 
ROOT
HETATM    1  N   UNL     1      41.296 -14.969   0.906  1.00  0.00    -0.321 N 
HETATM    2  C   UNL     1      42.080 -14.040   1.578  1.00  0.00     0.279 C 
HETATM    3  O   UNL     1      42.326 -12.910   1.168  1.00  0.00    -0.265 OA
HETATM    4  H   UNL     1      41.301 -15.908   1.276  1.00  0.00     0.169 HD
ENDROOT
BRANCH   2   5
HETATM    5  C   UNL     1      42.645 -14.553   2.818  1.00  0.00     0.143 A 
HETATM    6  O   UNL     1      42.476 -15.883   3.091  1.00  0.00    -0.307 OA
HETATM    7  C   UNL     1      43.055 -16.141   4.297  1.00  0.00     0.078 A 
HETATM    8  C   UNL     1      43.616 -14.988   4.804  1.00  0.00     0.038 A 
HETATM    9  C   UNL     1      43.350 -13.966   3.857  1.00  0.00     0.045 A 
BRANCH   7  10
HETATM   10  C   UNL     1      42.941 -17.535   4.799  1.00  0.00     0.240 C 
BRANCH  10  11
HETATM   11  O   UNL     1      44.188 -18.176   4.541  1.00  0.00    -0.345 OA
BRANCH  11  12
HETATM   12  C   UNL     1      44.137 -19.309   3.774  1.00  0.00     0.069 A 
HETATM   13  C   UNL     1      43.568 -19.413   2.503  1.00  0.00     0.037 A 
HETATM   14  C   UNL     1      43.582 -20.635   1.824  1.00  0.00     0.003 A 
HETATM   15  C   UNL     1      44.161 -21.758   2.414  1.00  0.00     0.000 A 
HETATM   16  C   UNL     1      44.722 -21.661   3.685  1.00  0.00     0.003 A 
HETATM   17  C   UNL     1      44.706 -20.441   4.362  1.00  0.00     0.037 A 
ENDBRANCH  11  12
ENDBRANCH  10  11
ENDBRANCH   7  10
ENDBRANCH   2   5
BRANCH   1  18
HETATM   18  C   UNL     1      40.618 -14.793  -0.321  1.00  0.00     0.037 A 
HETATM   19  C   UNL     1      39.462 -14.013  -0.466  1.00  0.00     0.063 A 
HETATM   20  C   UNL     1      38.870 -13.898  -1.735  1.00  0.00     0.087 A 
HETATM   21  N   UNL     1      37.748 -13.205  -2.122  1.00  0.00    -0.234 NA
HETATM   22  C   UNL     1      39.441 -14.553  -2.818  1.00  0.00     0.062 A 
HETATM   23  C   UNL     1      37.626 -13.413  -3.415  1.00  0.00     0.101 A 
HETATM   24  C   UNL     1      36.573 -12.873  -4.305  1.00  0.00     0.091 C 
HETATM   25  N   UNL     1      38.636 -14.221  -3.878  1.00  0.00    -0.343 N 
HETATM   26  H   UNL     1      38.761 -14.519  -4.833  1.00  0.00     0.167 HD
HETATM   27  C   UNL     1      40.584 -15.345  -2.716  1.00  0.00     0.034 A 
HETATM   28  C   UNL     1      41.154 -15.454  -1.439  1.00  0.00     0.032 A 
ENDBRANCH   1  18
TORSDOF 5
ENDMDL
MODEL 7
REMARK VINA RESULT:      -7.9      2.925     10.050
REMARK  5 active torsions:
REMARK  status: ('A' for Active; 'I' for Inactive)
REMARK    1  A    between atoms: C_9  and  N_10 
REMARK       I    between atoms: N_10  and  C_11 
REMARK    2  A    between atoms: C_11  and  C_12 
REMARK    3  A    between atoms: C_14  and  C_15 
REMARK    4  A    between atoms: C_15  and  O_16 
REMARK    5  A    between atoms: O_16  and  C_17 
ROOT
HETATM    1  N   UNL     1      43.499 -11.848   9.910  1.00  0.00    -0.321 N 
HETATM    2  C   UNL     1      44.748 -11.751   9.310  1.00  0.00     0.279 C 
HETATM    3  O   UNL     1      45.573 -10.878   9.561  1.00  0.00    -0.265 OA
HETATM    4  H   UNL     1      42.860 -12.517   9.504  1.00  0.00     0.169 HD
ENDROOT
BRANCH   2   5
HETATM    5  C   UNL     1      44.979 -12.766   8.293  1.00  0.00     0.143 A 
HETATM    6  O   UNL     1      44.157 -13.860   8.288  1.00  0.00    -0.307 OA
HETATM    7  C   UNL     1      44.562 -14.685   7.281  1.00  0.00     0.078 A 
HETATM    8  C   UNL     1      45.633 -14.124   6.619  1.00  0.00     0.038 A 
HETATM    9  C   UNL     1      45.906 -12.894   7.270  1.00  0.00     0.045 A 
BRANCH   7  10
HETATM   10  C   UNL     1      43.817 -15.962   7.136  1.00  0.00     0.240 C 
BRANCH  10  11
HETATM   11  O   UNL     1      43.541 -16.129   5.747  1.00  0.00    -0.345 OA
BRANCH  11  12
HETATM   12  C   UNL     1      43.847 -17.351   5.213  1.00  0.00     0.069 A 
HETATM   13  C   UNL     1      44.651 -18.326   5.808  1.00  0.00     0.037 A 
HETATM   14  C   UNL     1      44.886 -19.539   5.152  1.00  0.00     0.003 A 
HETATM   15  C   UNL     1      44.323 -19.780   3.900  1.00  0.00     0.000 A 
HETATM   16  C   UNL     1      43.527 -18.807   3.300  1.00  0.00     0.003 A 
HETATM   17  C   UNL     1      43.294 -17.597   3.954  1.00  0.00     0.037 A 
ENDBRANCH  11  12
ENDBRANCH  10  11
ENDBRANCH   7  10
ENDBRANCH   2   5
BRANCH   1  18
HETATM   18  C   UNL     1      42.962 -11.017  10.919  1.00  0.00     0.037 A 
HETATM   19  C   UNL     1      43.139 -11.246  12.290  1.00  0.00     0.063 A 
HETATM   20  C   UNL     1      42.569 -10.351  13.212  1.00  0.00     0.087 A 
HETATM   21  N   UNL     1      42.600 -10.365  14.585  1.00  0.00    -0.234 NA
HETATM   22  C   UNL     1      41.848  -9.259  12.748  1.00  0.00     0.062 A 
HETATM   23  C   UNL     1      41.924  -9.305  14.970  1.00  0.00     0.101 A 
HETATM   24  C   UNL     1      41.675  -8.870  16.364  1.00  0.00     0.091 C 
HETATM   25  N   UNL     1      41.456  -8.603  13.887  1.00  0.00    -0.343 N 
HETATM   26  H   UNL     1      40.914  -7.754  13.924  1.00  0.00     0.167 HD
HETATM   27  C   UNL     1      41.641  -9.000  11.394  1.00  0.00     0.034 A 
HETATM   28  C   UNL     1      42.210  -9.910  10.491  1.00  0.00     0.032 A 
ENDBRANCH   1  18
TORSDOF 5
ENDMDL
MODEL 8
REMARK VINA RESULT:      -7.9      2.352      2.654
REMARK  5 active torsions:
REMARK  status: ('A' for Active; 'I' for Inactive)
REMARK    1  A    between atoms: C_9  and  N_10 
REMARK       I    between atoms: N_10  and  C_11 
REMARK    2  A    between atoms: C_11  and  C_12 
REMARK    3  A    between atoms: C_14  and  C_15 
REMARK    4  A    between atoms: C_15  and  O_16 
REMARK    5  A    between atoms: O_16  and  C_17 
ROOT
HETATM    1  N   UNL     1      43.371 -13.485   6.485  1.00  0.00    -0.321 N 
HETATM    2  C   UNL     1      44.383 -13.953   7.314  1.00  0.00     0.279 C 
HETATM    3  O   UNL     1      44.715 -15.131   7.409  1.00  0.00    -0.265 OA
HETATM    4  H   UNL     1      43.096 -12.523   6.617  1.00  0.00     0.169 HD
ENDROOT
BRANCH   2   5
HETATM    5  C   UNL     1      44.994 -12.909   8.124  1.00  0.00     0.143 A 
HETATM    6  O   UNL     1      44.197 -12.251   9.021  1.00  0.00    -0.307 OA
HETATM    7  C   UNL     1      44.957 -11.310   9.647  1.00  0.00     0.078 A 
HETATM    8  C   UNL     1      46.251 -11.363   9.174  1.00  0.00     0.038 A 
HETATM    9  C   UNL     1      46.276 -12.387   8.193  1.00  0.00     0.045 A 
BRANCH   7  10
HETATM   10  C   UNL     1      44.258 -10.450  10.636  1.00  0.00     0.240 C 
BRANCH  10  11
HETATM   11  O   UNL     1      43.851 -11.295  11.711  1.00  0.00    -0.345 OA
BRANCH  11  12
HETATM   12  C   UNL     1      43.060 -10.716  12.666  1.00  0.00     0.069 A 
HETATM   13  C   UNL     1      41.775 -11.129  13.026  1.00  0.00     0.037 A 
HETATM   14  C   UNL     1      41.072 -10.447  14.024  1.00  0.00     0.003 A 
HETATM   15  C   UNL     1      41.646  -9.349  14.662  1.00  0.00     0.000 A 
HETATM   16  C   UNL     1      42.924  -8.929  14.301  1.00  0.00     0.003 A 
HETATM   17  C   UNL     1      43.625  -9.609  13.304  1.00  0.00     0.037 A 
ENDBRANCH  11  12
ENDBRANCH  10  11
ENDBRANCH   7  10
ENDBRANCH   2   5
BRANCH   1  18
HETATM   18  C   UNL     1      42.578 -14.236   5.589  1.00  0.00     0.037 A 
HETATM   19  C   UNL     1      43.095 -14.927   4.485  1.00  0.00     0.063 A 
HETATM   20  C   UNL     1      42.218 -15.651   3.660  1.00  0.00     0.087 A 
HETATM   21  N   UNL     1      42.482 -16.394   2.534  1.00  0.00    -0.234 NA
HETATM   22  C   UNL     1      40.861 -15.671   3.955  1.00  0.00     0.062 A 
HETATM   23  C   UNL     1      41.322 -16.874   2.141  1.00  0.00     0.101 A 
HETATM   24  C   UNL     1      41.074 -17.747   0.972  1.00  0.00     0.091 C 
HETATM   25  N   UNL     1      40.314 -16.465   2.979  1.00  0.00    -0.343 N 
HETATM   26  H   UNL     1      39.339 -16.705   2.889  1.00  0.00     0.167 HD
HETATM   27  C   UNL     1      40.306 -14.991   5.038  1.00  0.00     0.034 A 
HETATM   28  C   UNL     1      41.196 -14.267   5.843  1.00  0.00     0.032 A 
ENDBRANCH   1  18
TORSDOF 5
ENDMDL
MODEL 9
REMARK VINA RESULT:      -7.7      5.560     10.142
REMARK  5 active torsions:
REMARK  status: ('A' for Active; 'I' for Inactive)
REMARK    1  A    between atoms: C_9  and  N_10 
REMARK       I    between atoms: N_10  and  C_11 
REMARK    2  A    between atoms: C_11  and  C_12 
REMARK    3  A    between atoms: C_14  and  C_15 
REMARK    4  A    between atoms: C_15  and  O_16 
REMARK    5  A    between atoms: O_16  and  C_17 
ROOT
HETATM    1  N   UNL     1      41.184 -14.233   4.652  1.00  0.00    -0.321 N 
HETATM    2  C   UNL     1      42.546 -14.005   4.800  1.00  0.00     0.279 C 
HETATM    3  O   UNL     1      43.138 -13.023   4.363  1.00  0.00    -0.265 OA
HETATM    4  H   UNL     1      40.853 -15.149   4.921  1.00  0.00     0.169 HD
ENDROOT
BRANCH   2   5
HETATM    5  C   UNL     1      43.240 -15.085   5.486  1.00  0.00     0.143 A 
HETATM    6  O   UNL     1      42.969 -16.368   5.091  1.00  0.00    -0.307 OA
HETATM    7  C   UNL     1      43.699 -17.211   5.872  1.00  0.00     0.078 A 
HETATM    8  C   UNL     1      44.459 -16.483   6.764  1.00  0.00     0.038 A 
HETATM    9  C   UNL     1      44.162 -15.118   6.520  1.00  0.00     0.045 A 
BRANCH   7  10
HETATM   10  C   UNL     1      43.511 -18.664   5.629  1.00  0.00     0.240 C 
BRANCH  10  11
HETATM   11  O   UNL     1      44.671 -19.128   4.943  1.00  0.00    -0.345 OA
BRANCH  11  12
HETATM   12  C   UNL     1      44.465 -20.089   3.990  1.00  0.00     0.069 A 
HETATM   13  C   UNL     1      44.813 -21.437   4.098  1.00  0.00     0.037 A 
HETATM   14  C   UNL     1      44.545 -22.318   3.046  1.00  0.00     0.003 A 
HETATM   15  C   UNL     1      43.933 -21.856   1.881  1.00  0.00     0.000 A 
HETATM   16  C   UNL     1      43.592 -20.510   1.766  1.00  0.00     0.003 A 
HETATM   17  C   UNL     1      43.861 -19.631   2.816  1.00  0.00     0.037 A 
ENDBRANCH  11  12
ENDBRANCH  10  11
ENDBRANCH   7  10
ENDBRANCH   2   5
BRANCH   1  18
HETATM   18  C   UNL     1      40.234 -13.394   4.027  1.00  0.00     0.037 A 
HETATM   19  C   UNL     1      39.638 -13.678   2.792  1.00  0.00     0.063 A 
HETATM   20  C   UNL     1      38.698 -12.777   2.263  1.00  0.00     0.087 A 
HETATM   21  N   UNL     1      37.992 -12.834   1.085  1.00  0.00    -0.234 NA
HETATM   22  C   UNL     1      38.376 -11.629   2.974  1.00  0.00     0.062 A 
HETATM   23  C   UNL     1      37.241 -11.755   1.065  1.00  0.00     0.101 A 
HETATM   24  C   UNL     1      36.288 -11.357   0.004  1.00  0.00     0.091 C 
HETATM   25  N   UNL     1      37.439 -11.000   2.195  1.00  0.00    -0.343 N 
HETATM   26  H   UNL     1      36.976 -10.131   2.412  1.00  0.00     0.167 HD
HETATM   27  C   UNL     1      38.951 -11.305   4.202  1.00  0.00     0.034 A 
HETATM   28  C   UNL     1      39.894 -12.212   4.707  1.00  0.00     0.032 A 
ENDBRANCH   1  18
TORSDOF 5
ENDMDL
MODEL 10
REMARK VINA RESULT:      -7.6      2.660      3.931
REMARK  5 active torsions:
REMARK  status: ('A' for Active; 'I' for Inactive)
REMARK    1  A    between atoms: C_9  and  N_10 
REMARK       I    between atoms: N_10  and  C_11 
REMARK    2  A    between atoms: C_11  and  C_12 
REMARK    3  A    between atoms: C_14  and  C_15 
REMARK    4  A    between atoms: C_15  and  O_16 
REMARK    5  A    between atoms: O_16  and  C_17 
ROOT
HETATM    1  N   UNL     1      42.806 -15.449   4.362  1.00  0.00    -0.321 N 
HETATM    2  C   UNL     1      41.667 -15.070   5.060  1.00  0.00     0.279 C 
HETATM    3  O   UNL     1      40.859 -15.853   5.551  1.00  0.00    -0.265 OA
HETATM    4  H   UNL     1      43.300 -14.713   3.880  1.00  0.00     0.169 HD
ENDROOT
BRANCH   2   5
HETATM    5  C   UNL     1      41.477 -13.628   5.113  1.00  0.00     0.143 A 
HETATM    6  O   UNL     1      41.868 -12.976   6.251  1.00  0.00    -0.307 OA
HETATM    7  C   UNL     1      41.580 -11.653   6.098  1.00  0.00     0.078 A 
HETATM    8  C   UNL     1      41.019 -11.437   4.857  1.00  0.00     0.038 A 
HETATM    9  C   UNL     1      40.948 -12.704   4.225  1.00  0.00     0.045 A 
BRANCH   7  10
HETATM   10  C   UNL     1      41.891 -10.773   7.253  1.00  0.00     0.240 C 
BRANCH  10  11
HETATM   11  O   UNL     1      43.017 -11.340   7.920  1.00  0.00    -0.345 OA
BRANCH  11  12
HETATM   12  C   UNL     1      43.194 -10.968   9.226  1.00  0.00     0.069 A 
HETATM   13  C   UNL     1      42.214 -10.437  10.067  1.00  0.00     0.037 A 
HETATM   14  C   UNL     1      42.529 -10.098  11.386  1.00  0.00     0.003 A 
HETATM   15  C   UNL     1      43.824 -10.284  11.869  1.00  0.00     0.000 A 
HETATM   16  C   UNL     1      44.807 -10.806  11.031  1.00  0.00     0.003 A 
HETATM   17  C   UNL     1      44.492 -11.143   9.714  1.00  0.00     0.037 A 
ENDBRANCH  11  12
ENDBRANCH  10  11
ENDBRANCH   7  10
ENDBRANCH   2   5
BRANCH   1  18
HETATM   18  C   UNL     1      43.269 -16.763   4.121  1.00  0.00     0.037 A 
HETATM   19  C   UNL     1      43.596 -17.671   5.136  1.00  0.00     0.063 A 
HETATM   20  C   UNL     1      44.039 -18.957   4.786  1.00  0.00     0.087 A 
HETATM   21  N   UNL     1      44.417 -20.006   5.590  1.00  0.00    -0.234 NA
HETATM   22  C   UNL     1      44.141 -19.304   3.445  1.00  0.00     0.062 A 
HETATM   23  C   UNL     1      44.737 -20.986   4.773  1.00  0.00     0.101 A 
HETATM   24  C   UNL     1      45.204 -22.339   5.153  1.00  0.00     0.091 C 
HETATM   25  N   UNL     1      44.579 -20.604   3.464  1.00  0.00    -0.343 N 
HETATM   26  H   UNL     1      44.756 -21.181   2.656  1.00  0.00     0.167 HD
HETATM   27  C   UNL     1      43.835 -18.428   2.405  1.00  0.00     0.034 A 
HETATM   28  C   UNL     1      43.403 -17.147   2.776  1.00  0.00     0.032 A 
ENDBRANCH   1  18
TORSDOF 5
ENDMDL
