MODEL 1
REMARK VINA RESULT:      -8.7      0.000      0.000
REMARK  3 active torsions:
REMARK  status: ('A' for Active; 'I' for Inactive)
REMARK    1  A    between atoms: C_10  and  N_11 
REMARK       I    between atoms: N_11  and  C_12 
REMARK    2  A    between atoms: C_12  and  C_13 
REMARK    3  A    between atoms: C_18  and  N_19 
ROOT
HETATM    1  N   UNL     1      41.796 -15.821   3.844  1.00  0.00    -0.323 N 
HETATM    2  C   UNL     1      41.784 -16.433   5.080  1.00  0.00     0.258 C 
HETATM    3  O   UNL     1      40.873 -16.432   5.900  1.00  0.00    -0.267 OA
HETATM    4  H   UNL     1      42.638 -15.928   3.290  1.00  0.00     0.169 HD
ENDROOT
BRANCH   2   5
HETATM    5  C   UNL     1      42.980 -17.263   5.381  1.00  0.00     0.056 A 
HETATM    6  C   UNL     1      43.974 -16.909   6.294  1.00  0.00     0.050 A 
HETATM    7 CL   UNL     1      43.900 -15.491   7.275  1.00  0.00    -0.083 Cl
HETATM    8  C   UNL     1      45.085 -17.738   6.446  1.00  0.00     0.027 A 
HETATM    9  C   UNL     1      45.208 -18.909   5.687  1.00  0.00     0.031 A 
HETATM   10  C   UNL     1      44.222 -19.290   4.770  1.00  0.00     0.038 A 
HETATM   11  C   UNL     1      43.100 -18.459   4.645  1.00  0.00     0.048 A 
BRANCH  10  12
HETATM   12  N   UNL     1      44.348 -20.461   3.974  1.00  0.00    -0.318 N 
HETATM   13  C   UNL     1      44.640 -21.753   4.439  1.00  0.00     0.224 C 
HETATM   14  O   UNL     1      44.787 -22.148   5.585  1.00  0.00    -0.273 OA
HETATM   15  C   UNL     1      44.855 -22.639   3.234  1.00  0.00     0.105 C 
HETATM   16  C   UNL     1      44.188 -21.869   2.113  1.00  0.00     0.029 C 
HETATM   17  C   UNL     1      44.362 -20.423   2.529  1.00  0.00     0.133 C 
ENDBRANCH  10  12
ENDBRANCH   2   5
BRANCH   1  18
HETATM   18  C   UNL     1      40.760 -15.089   3.228  1.00  0.00     0.035 A 
HETATM   19  C   UNL     1      39.952 -15.588   2.207  1.00  0.00     0.032 A 
HETATM   20  C   UNL     1      38.960 -14.801   1.606  1.00  0.00     0.033 A 
HETATM   21  C   UNL     1      38.809 -13.487   2.059  1.00  0.00     0.042 A 
HETATM   22  N   UNL     1      37.947 -12.495   1.650  1.00  0.00    -0.359 N 
HETATM   23  C   UNL     1      39.589 -12.956   3.082  1.00  0.00    -0.005 A 
HETATM   24  C   UNL     1      38.163 -11.344   2.369  1.00  0.00     0.006 A 
HETATM   25  H   UNL     1      37.264 -12.604   0.913  1.00  0.00     0.166 HD
HETATM   26  C   UNL     1      37.394 -10.100   2.125  1.00  0.00     0.068 C 
HETATM   27  C   UNL     1      39.170 -11.611   3.274  1.00  0.00     0.038 A 
HETATM   28  C   UNL     1      40.570 -13.772   3.680  1.00  0.00     0.043 A 
ENDBRANCH   1  18
TORSDOF 3
ENDMDL
MODEL 2
REMARK VINA RESULT:      -8.5      3.685      8.952
REMARK  3 active torsions:
REMARK  status: ('A' for Active; 'I' for Inactive)
REMARK    1  A    between atoms: C_10  and  N_11 
REMARK       I    between atoms: N_11  and  C_12 
REMARK    2  A    between atoms: C_12  and  C_13 
REMARK    3  A    between atoms: C_18  and  N_19 
ROOT
HETATM    1  N   UNL     1      42.497 -15.292   4.813  1.00  0.00    -0.323 N 
HETATM    2  C   UNL     1      43.062 -14.068   4.519  1.00  0.00     0.258 C 
HETATM    3  O   UNL     1      44.188 -13.855   4.084  1.00  0.00    -0.267 OA
HETATM    4  H   UNL     1      41.546 -15.283   5.163  1.00  0.00     0.169 HD
ENDROOT
BRANCH   2   5
HETATM    5  C   UNL     1      42.146 -12.905   4.656  1.00  0.00     0.056 A 
HETATM    6  C   UNL     1      41.668 -12.149   3.584  1.00  0.00     0.050 A 
HETATM    7 CL   UNL     1      42.006 -12.524   1.934  1.00  0.00    -0.083 Cl
HETATM    8  C   UNL     1      40.865 -11.038   3.840  1.00  0.00     0.027 A 
HETATM    9  C   UNL     1      40.545 -10.679   5.156  1.00  0.00     0.031 A 
HETATM   10  C   UNL     1      41.005 -11.425   6.247  1.00  0.00     0.038 A 
HETATM   11  C   UNL     1      41.792 -12.552   5.974  1.00  0.00     0.048 A 
BRANCH  10  12
HETATM   12  N   UNL     1      40.711 -11.055   7.588  1.00  0.00    -0.318 N 
HETATM   13  C   UNL     1      41.615 -10.521   8.519  1.00  0.00     0.224 C 
HETATM   14  O   UNL     1      42.788 -10.214   8.370  1.00  0.00    -0.273 OA
HETATM   15  C   UNL     1      40.915 -10.455   9.857  1.00  0.00     0.105 C 
HETATM   16  C   UNL     1      39.448 -10.527   9.485  1.00  0.00     0.029 C 
HETATM   17  C   UNL     1      39.448 -11.362   8.222  1.00  0.00     0.133 C 
ENDBRANCH  10  12
ENDBRANCH   2   5
BRANCH   1  18
HETATM   18  C   UNL     1      43.066 -16.572   4.649  1.00  0.00     0.035 A 
HETATM   19  C   UNL     1      43.968 -17.145   5.546  1.00  0.00     0.032 A 
HETATM   20  C   UNL     1      44.532 -18.407   5.312  1.00  0.00     0.033 A 
HETATM   21  C   UNL     1      44.166 -19.076   4.140  1.00  0.00     0.042 A 
HETATM   22  N   UNL     1      44.565 -20.298   3.648  1.00  0.00    -0.359 N 
HETATM   23  C   UNL     1      43.261 -18.542   3.227  1.00  0.00    -0.005 A 
HETATM   24  C   UNL     1      43.956 -20.552   2.442  1.00  0.00     0.006 A 
HETATM   25  H   UNL     1      45.225 -20.908   4.109  1.00  0.00     0.166 HD
HETATM   26  C   UNL     1      44.220 -21.787   1.666  1.00  0.00     0.068 C 
HETATM   27  C   UNL     1      43.131 -19.480   2.167  1.00  0.00     0.038 A 
HETATM   28  C   UNL     1      42.698 -17.277   3.491  1.00  0.00     0.043 A 
ENDBRANCH   1  18
TORSDOF 3
ENDMDL
MODEL 3
REMARK VINA RESULT:      -8.5      2.414      3.281
REMARK  3 active torsions:
REMARK  status: ('A' for Active; 'I' for Inactive)
REMARK    1  A    between atoms: C_10  and  N_11 
REMARK       I    between atoms: N_11  and  C_12 
REMARK    2  A    between atoms: C_12  and  C_13 
REMARK    3  A    between atoms: C_18  and  N_19 
ROOT
HETATM    1  N   UNL     1      42.826 -15.620   2.845  1.00  0.00    -0.323 N 
HETATM    2  C   UNL     1      42.246 -16.089   4.005  1.00  0.00     0.258 C 
HETATM    3  O   UNL     1      41.064 -16.024   4.324  1.00  0.00    -0.267 OA
HETATM    4  H   UNL     1      43.825 -15.763   2.743  1.00  0.00     0.169 HD
ENDROOT
BRANCH   2   5
HETATM    5  C   UNL     1      43.161 -16.843   4.903  1.00  0.00     0.056 A 
HETATM    6  C   UNL     1      43.832 -16.283   5.992  1.00  0.00     0.050 A 
HETATM    7 CL   UNL     1      43.615 -14.648   6.502  1.00  0.00    -0.083 Cl
HETATM    8  C   UNL     1      44.717 -17.073   6.724  1.00  0.00     0.027 A 
HETATM    9  C   UNL     1      44.936 -18.411   6.372  1.00  0.00     0.031 A 
HETATM   10  C   UNL     1      44.271 -18.997   5.289  1.00  0.00     0.038 A 
HETATM   11  C   UNL     1      43.367 -18.198   4.576  1.00  0.00     0.048 A 
BRANCH  10  12
HETATM   12  N   UNL     1      44.505 -20.345   4.903  1.00  0.00    -0.318 N 
HETATM   13  C   UNL     1      44.702 -20.811   3.593  1.00  0.00     0.224 C 
HETATM   14  O   UNL     1      44.770 -20.179   2.550  1.00  0.00    -0.273 OA
HETATM   15  C   UNL     1      44.729 -22.321   3.640  1.00  0.00     0.105 C 
HETATM   16  C   UNL     1      45.022 -22.618   5.097  1.00  0.00     0.029 C 
HETATM   17  C   UNL     1      44.389 -21.452   5.826  1.00  0.00     0.133 C 
ENDBRANCH  10  12
ENDBRANCH   2   5
BRANCH   1  18
HETATM   18  C   UNL     1      42.194 -14.995   1.750  1.00  0.00     0.035 A 
HETATM   19  C   UNL     1      41.788 -13.661   1.741  1.00  0.00     0.032 A 
HETATM   20  C   UNL     1      41.128 -13.102   0.637  1.00  0.00     0.033 A 
HETATM   21  C   UNL     1      40.881 -13.932  -0.460  1.00  0.00     0.042 A 
HETATM   22  N   UNL     1      40.248 -13.669  -1.654  1.00  0.00    -0.359 N 
HETATM   23  C   UNL     1      41.279 -15.265  -0.493  1.00  0.00    -0.005 A 
HETATM   24  C   UNL     1      40.217 -14.795  -2.440  1.00  0.00     0.006 A 
HETATM   25  H   UNL     1      39.853 -12.773  -1.902  1.00  0.00     0.166 HD
HETATM   26  C   UNL     1      39.571 -14.813  -3.775  1.00  0.00     0.068 C 
HETATM   27  C   UNL     1      40.863 -15.797  -1.744  1.00  0.00     0.038 A 
HETATM   28  C   UNL     1      41.953 -15.800   0.624  1.00  0.00     0.043 A 
ENDBRANCH   1  18
TORSDOF 3
ENDMDL
MODEL 4
REMARK VINA RESULT:      -8.4      4.106      4.577
REMARK  3 active torsions:
REMARK  status: ('A' for Active; 'I' for Inactive)
REMARK    1  A    between atoms: C_10  and  N_11 
REMARK       I    between atoms: N_11  and  C_12 
REMARK    2  A    between atoms: C_12  and  C_13 
REMARK    3  A    between atoms: C_18  and  N_19 
ROOT
HETATM    1  N   UNL     1      41.744 -15.155   0.570  1.00  0.00    -0.323 N 
HETATM    2  C   UNL     1      40.736 -15.433   1.470  1.00  0.00     0.258 C 
HETATM    3  O   UNL     1      39.541 -15.188   1.346  1.00  0.00    -0.267 OA
HETATM    4  H   UNL     1      42.681 -15.433   0.836  1.00  0.00     0.169 HD
ENDROOT
BRANCH   2   5
HETATM    5  C   UNL     1      41.159 -16.208   2.666  1.00  0.00     0.056 A 
HETATM    6  C   UNL     1      40.881 -15.837   3.983  1.00  0.00     0.050 A 
HETATM    7 CL   UNL     1      39.920 -14.465   4.399  1.00  0.00    -0.083 Cl
HETATM    8  C   UNL     1      41.387 -16.609   5.028  1.00  0.00     0.027 A 
HETATM    9  C   UNL     1      42.169 -17.741   4.763  1.00  0.00     0.031 A 
HETATM   10  C   UNL     1      42.455 -18.138   3.452  1.00  0.00     0.038 A 
HETATM   11  C   UNL     1      41.921 -17.366   2.411  1.00  0.00     0.048 A 
BRANCH  10  12
HETATM   12  N   UNL     1      43.271 -19.268   3.170  1.00  0.00    -0.318 N 
HETATM   13  C   UNL     1      44.356 -19.721   3.937  1.00  0.00     0.224 C 
HETATM   14  O   UNL     1      44.781 -19.297   5.000  1.00  0.00    -0.273 OA
HETATM   15  C   UNL     1      45.033 -20.831   3.168  1.00  0.00     0.105 C 
HETATM   16  C   UNL     1      43.969 -21.269   2.182  1.00  0.00     0.029 C 
HETATM   17  C   UNL     1      43.184 -20.000   1.927  1.00  0.00     0.133 C 
ENDBRANCH  10  12
ENDBRANCH   2   5
BRANCH   1  18
HETATM   18  C   UNL     1      41.629 -14.561  -0.704  1.00  0.00     0.035 A 
HETATM   19  C   UNL     1      41.074 -15.196  -1.814  1.00  0.00     0.032 A 
HETATM   20  C   UNL     1      41.021 -14.569  -3.067  1.00  0.00     0.033 A 
HETATM   21  C   UNL     1      41.553 -13.281  -3.172  1.00  0.00     0.042 A 
HETATM   22  N   UNL     1      41.654 -12.443  -4.260  1.00  0.00    -0.359 N 
HETATM   23  C   UNL     1      42.107 -12.610  -2.086  1.00  0.00    -0.005 A 
HETATM   24  C   UNL     1      42.269 -11.267  -3.905  1.00  0.00     0.006 A 
HETATM   25  H   UNL     1      41.332 -12.676  -5.189  1.00  0.00     0.166 HD
HETATM   26  C   UNL     1      42.536 -10.185  -4.883  1.00  0.00     0.068 C 
HETATM   27  C   UNL     1      42.547 -11.343  -2.555  1.00  0.00     0.038 A 
HETATM   28  C   UNL     1      42.136 -13.256  -0.834  1.00  0.00     0.043 A 
ENDBRANCH   1  18
TORSDOF 3
ENDMDL
MODEL 5
REMARK VINA RESULT:      -8.3      3.617      5.262
REMARK  3 active torsions:
REMARK  status: ('A' for Active; 'I' for Inactive)
REMARK    1  A    between atoms: C_10  and  N_11 
REMARK       I    between atoms: N_11  and  C_12 
REMARK    2  A    between atoms: C_12  and  C_13 
REMARK    3  A    between atoms: C_18  and  N_19 
ROOT
HETATM    1  N   UNL     1      43.562 -15.327   5.047  1.00  0.00    -0.323 N 
HETATM    2  C   UNL     1      42.620 -16.233   4.606  1.00  0.00     0.258 C 
HETATM    3  O   UNL     1      41.438 -16.289   4.924  1.00  0.00    -0.267 OA
HETATM    4  H   UNL     1      44.500 -15.425   4.675  1.00  0.00     0.169 HD
ENDROOT
BRANCH   2   5
HETATM    5  C   UNL     1      43.095 -17.167   3.551  1.00  0.00     0.056 A 
HETATM    6  C   UNL     1      43.060 -16.891   2.183  1.00  0.00     0.050 A 
HETATM    7 CL   UNL     1      42.543 -15.379   1.532  1.00  0.00    -0.083 Cl
HETATM    8  C   UNL     1      43.472 -17.872   1.281  1.00  0.00     0.027 A 
HETATM    9  C   UNL     1      43.910 -19.121   1.739  1.00  0.00     0.031 A 
HETATM   10  C   UNL     1      43.962 -19.419   3.105  1.00  0.00     0.038 A 
HETATM   11  C   UNL     1      43.566 -18.416   4.001  1.00  0.00     0.048 A 
BRANCH  10  12
HETATM   12  N   UNL     1      44.378 -20.692   3.582  1.00  0.00    -0.318 N 
HETATM   13  C   UNL     1      44.382 -21.891   2.852  1.00  0.00     0.224 C 
HETATM   14  O   UNL     1      44.097 -22.084   1.680  1.00  0.00    -0.273 OA
HETATM   15  C   UNL     1      44.726 -23.011   3.807  1.00  0.00     0.105 C 
HETATM   16  C   UNL     1      45.376 -22.289   4.969  1.00  0.00     0.029 C 
HETATM   17  C   UNL     1      44.689 -20.940   4.973  1.00  0.00     0.133 C 
ENDBRANCH  10  12
ENDBRANCH   2   5
BRANCH   1  18
HETATM   18  C   UNL     1      43.377 -14.244   5.932  1.00  0.00     0.035 A 
HETATM   19  C   UNL     1      42.379 -13.281   5.787  1.00  0.00     0.032 A 
HETATM   20  C   UNL     1      42.265 -12.204   6.678  1.00  0.00     0.033 A 
HETATM   21  C   UNL     1      43.195 -12.120   7.719  1.00  0.00     0.042 A 
HETATM   22  N   UNL     1      43.337 -11.181   8.715  1.00  0.00    -0.359 N 
HETATM   23  C   UNL     1      44.198 -13.067   7.902  1.00  0.00    -0.005 A 
HETATM   24  C   UNL     1      44.408 -11.491   9.518  1.00  0.00     0.006 A 
HETATM   25  H   UNL     1      42.741 -10.373   8.824  1.00  0.00     0.166 HD
HETATM   26  C   UNL     1      44.817 -10.638  10.660  1.00  0.00     0.068 C 
HETATM   27  C   UNL     1      44.951 -12.666   9.039  1.00  0.00     0.038 A 
HETATM   28  C   UNL     1      44.283 -14.148   7.002  1.00  0.00     0.043 A 
ENDBRANCH   1  18
TORSDOF 3
ENDMDL
MODEL 6
REMARK VINA RESULT:      -8.3      3.543      8.772
REMARK  3 active torsions:
REMARK  status: ('A' for Active; 'I' for Inactive)
REMARK    1  A    between atoms: C_10  and  N_11 
REMARK       I    between atoms: N_11  and  C_12 
REMARK    2  A    between atoms: C_12  and  C_13 
REMARK    3  A    between atoms: C_18  and  N_19 
ROOT
HETATM    1  N   UNL     1      42.606 -16.292   2.213  1.00  0.00    -0.323 N 
HETATM    2  C   UNL     1      41.339 -15.749   2.154  1.00  0.00     0.258 C 
HETATM    3  O   UNL     1      40.400 -15.970   2.910  1.00  0.00    -0.267 OA
HETATM    4  H   UNL     1      43.264 -15.991   1.503  1.00  0.00     0.169 HD
ENDROOT
BRANCH   2   5
HETATM    5  C   UNL     1      41.151 -14.705   1.111  1.00  0.00     0.056 A 
HETATM    6  C   UNL     1      41.592 -13.386   1.230  1.00  0.00     0.050 A 
HETATM    7 CL   UNL     1      42.503 -12.808   2.577  1.00  0.00    -0.083 Cl
HETATM    8  C   UNL     1      41.301 -12.478   0.213  1.00  0.00     0.027 A 
HETATM    9  C   UNL     1      40.570 -12.880  -0.913  1.00  0.00     0.031 A 
HETATM   10  C   UNL     1      40.124 -14.198  -1.059  1.00  0.00     0.038 A 
HETATM   11  C   UNL     1      40.444 -15.106  -0.040  1.00  0.00     0.048 A 
BRANCH  10  12
HETATM   12  N   UNL     1      39.358 -14.613  -2.183  1.00  0.00    -0.318 N 
HETATM   13  C   UNL     1      39.831 -15.342  -3.286  1.00  0.00     0.224 C 
HETATM   14  O   UNL     1      40.941 -15.809  -3.485  1.00  0.00    -0.273 OA
HETATM   15  C   UNL     1      38.723 -15.396  -4.312  1.00  0.00     0.105 C 
HETATM   16  C   UNL     1      37.483 -15.078  -3.500  1.00  0.00     0.029 C 
HETATM   17  C   UNL     1      38.002 -14.166  -2.409  1.00  0.00     0.133 C 
ENDBRANCH  10  12
ENDBRANCH   2   5
BRANCH   1  18
HETATM   18  C   UNL     1      43.120 -17.193   3.168  1.00  0.00     0.035 A 
HETATM   19  C   UNL     1      43.400 -16.851   4.491  1.00  0.00     0.032 A 
HETATM   20  C   UNL     1      43.946 -17.780   5.388  1.00  0.00     0.033 A 
HETATM   21  C   UNL     1      44.211 -19.067   4.910  1.00  0.00     0.042 A 
HETATM   22  N   UNL     1      44.753 -20.161   5.546  1.00  0.00    -0.359 N 
HETATM   23  C   UNL     1      43.936 -19.448   3.601  1.00  0.00    -0.005 A 
HETATM   24  C   UNL     1      44.847 -21.223   4.679  1.00  0.00     0.006 A 
HETATM   25  H   UNL     1      45.050 -20.168   6.512  1.00  0.00     0.166 HD
HETATM   26  C   UNL     1      45.420 -22.529   5.083  1.00  0.00     0.068 C 
HETATM   27  C   UNL     1      44.333 -20.807   3.467  1.00  0.00     0.038 A 
HETATM   28  C   UNL     1      43.375 -18.500   2.722  1.00  0.00     0.043 A 
ENDBRANCH   1  18
TORSDOF 3
ENDMDL
MODEL 7
REMARK VINA RESULT:      -8.2      4.834      9.810
REMARK  3 active torsions:
REMARK  status: ('A' for Active; 'I' for Inactive)
REMARK    1  A    between atoms: C_10  and  N_11 
REMARK       I    between atoms: N_11  and  C_12 
REMARK    2  A    between atoms: C_12  and  C_13 
REMARK    3  A    between atoms: C_18  and  N_19 
ROOT
HETATM    1  N   UNL     1      42.455 -15.609   0.292  1.00  0.00    -0.323 N 
HETATM    2  C   UNL     1      41.232 -15.029   0.031  1.00  0.00     0.258 C 
HETATM    3  O   UNL     1      40.215 -15.101   0.711  1.00  0.00    -0.267 OA
HETATM    4  H   UNL     1      43.194 -15.440  -0.382  1.00  0.00     0.169 HD
ENDROOT
BRANCH   2   5
HETATM    5  C   UNL     1      41.201 -14.138  -1.160  1.00  0.00     0.056 A 
HETATM    6  C   UNL     1      40.998 -14.580  -2.468  1.00  0.00     0.050 A 
HETATM    7 CL   UNL     1      40.660 -16.223  -2.873  1.00  0.00    -0.083 Cl
HETATM    8  C   UNL     1      41.056 -13.659  -3.513  1.00  0.00     0.027 A 
HETATM    9  C   UNL     1      41.319 -12.307  -3.258  1.00  0.00     0.031 A 
HETATM   10  C   UNL     1      41.519 -11.838  -1.954  1.00  0.00     0.038 A 
HETATM   11  C   UNL     1      41.435 -12.770  -0.911  1.00  0.00     0.048 A 
BRANCH  10  12
HETATM   12  N   UNL     1      41.815 -10.474  -1.683  1.00  0.00    -0.318 N 
HETATM   13  C   UNL     1      43.028  -9.971  -1.186  1.00  0.00     0.224 C 
HETATM   14  O   UNL     1      44.068 -10.562  -0.943  1.00  0.00    -0.273 OA
HETATM   15  C   UNL     1      42.829  -8.504  -0.883  1.00  0.00     0.105 C 
HETATM   16  C   UNL     1      41.601  -8.145  -1.695  1.00  0.00     0.029 C 
HETATM   17  C   UNL     1      40.810  -9.435  -1.724  1.00  0.00     0.133 C 
ENDBRANCH  10  12
ENDBRANCH   2   5
BRANCH   1  18
HETATM   18  C   UNL     1      42.826 -16.385   1.410  1.00  0.00     0.035 A 
HETATM   19  C   UNL     1      42.892 -15.894   2.713  1.00  0.00     0.032 A 
HETATM   20  C   UNL     1      43.305 -16.704   3.781  1.00  0.00     0.033 A 
HETATM   21  C   UNL     1      43.658 -18.025   3.497  1.00  0.00     0.042 A 
HETATM   22  N   UNL     1      44.109 -19.027   4.326  1.00  0.00    -0.359 N 
HETATM   23  C   UNL     1      43.596 -18.555   2.211  1.00  0.00    -0.005 A 
HETATM   24  C   UNL     1      44.351 -20.173   3.607  1.00  0.00     0.006 A 
HETATM   25  H   UNL     1      44.252 -18.921   5.320  1.00  0.00     0.166 HD
HETATM   26  C   UNL     1      44.872 -21.410   4.239  1.00  0.00     0.068 C 
HETATM   27  C   UNL     1      44.027 -19.907   2.292  1.00  0.00     0.038 A 
HETATM   28  C   UNL     1      43.165 -17.725   1.156  1.00  0.00     0.043 A 
ENDBRANCH   1  18
TORSDOF 3
ENDMDL
MODEL 8
REMARK VINA RESULT:      -8.1      3.867      4.358
REMARK  3 active torsions:
REMARK  status: ('A' for Active; 'I' for Inactive)
REMARK    1  A    between atoms: C_10  and  N_11 
REMARK       I    between atoms: N_11  and  C_12 
REMARK    2  A    between atoms: C_12  and  C_13 
REMARK    3  A    between atoms: C_18  and  N_19 
ROOT
HETATM    1  N   UNL     1      41.606 -14.287   1.276  1.00  0.00    -0.323 N 
HETATM    2  C   UNL     1      42.429 -14.423   2.375  1.00  0.00     0.258 C 
HETATM    3  O   UNL     1      43.287 -13.638   2.762  1.00  0.00    -0.267 OA
HETATM    4  H   UNL     1      40.946 -15.036   1.105  1.00  0.00     0.169 HD
ENDROOT
BRANCH   2   5
HETATM    5  C   UNL     1      42.153 -15.613   3.222  1.00  0.00     0.056 A 
HETATM    6  C   UNL     1      41.376 -15.590   4.382  1.00  0.00     0.050 A 
HETATM    7 CL   UNL     1      40.549 -14.182   4.941  1.00  0.00    -0.083 Cl
HETATM    8  C   UNL     1      41.240 -16.757   5.132  1.00  0.00     0.027 A 
HETATM    9  C   UNL     1      41.878 -17.938   4.734  1.00  0.00     0.031 A 
HETATM   10  C   UNL     1      42.656 -17.990   3.571  1.00  0.00     0.038 A 
HETATM   11  C   UNL     1      42.765 -16.815   2.814  1.00  0.00     0.048 A 
BRANCH  10  12
HETATM   12  N   UNL     1      43.331 -19.175   3.170  1.00  0.00    -0.318 N 
HETATM   13  C   UNL     1      44.389 -19.798   3.851  1.00  0.00     0.224 C 
HETATM   14  O   UNL     1      44.899 -19.505   4.922  1.00  0.00    -0.273 OA
HETATM   15  C   UNL     1      44.910 -20.911   2.973  1.00  0.00     0.105 C 
HETATM   16  C   UNL     1      43.768 -21.157   2.008  1.00  0.00     0.029 C 
HETATM   17  C   UNL     1      43.117 -19.796   1.882  1.00  0.00     0.133 C 
ENDBRANCH  10  12
ENDBRANCH   2   5
BRANCH   1  18
HETATM   18  C   UNL     1      41.537 -13.206   0.373  1.00  0.00     0.035 A 
HETATM   19  C   UNL     1      40.872 -12.009   0.637  1.00  0.00     0.032 A 
HETATM   20  C   UNL     1      40.804 -10.982  -0.316  1.00  0.00     0.033 A 
HETATM   21  C   UNL     1      41.423 -11.199  -1.550  1.00  0.00     0.042 A 
HETATM   22  N   UNL     1      41.503 -10.392  -2.662  1.00  0.00    -0.359 N 
HETATM   23  C   UNL     1      42.105 -12.375  -1.848  1.00  0.00    -0.005 A 
HETATM   24  C   UNL     1      42.200 -11.022  -3.664  1.00  0.00     0.006 A 
HETATM   25  H   UNL     1      41.090  -9.472  -2.728  1.00  0.00     0.166 HD
HETATM   26  C   UNL     1      42.420 -10.398  -4.992  1.00  0.00     0.068 C 
HETATM   27  C   UNL     1      42.596 -12.252  -3.176  1.00  0.00     0.038 A 
HETATM   28  C   UNL     1      42.170 -13.387  -0.869  1.00  0.00     0.043 A 
ENDBRANCH   1  18
TORSDOF 3
ENDMDL
MODEL 9
REMARK VINA RESULT:      -8.1      3.679      4.340
REMARK  3 active torsions:
REMARK  status: ('A' for Active; 'I' for Inactive)
REMARK    1  A    between atoms: C_10  and  N_11 
REMARK       I    between atoms: N_11  and  C_12 
REMARK    2  A    between atoms: C_12  and  C_13 
REMARK    3  A    between atoms: C_18  and  N_19 
ROOT
HETATM    1  N   UNL     1      40.697 -15.496   0.123  1.00  0.00    -0.323 N 
HETATM    2  C   UNL     1      41.508 -15.092   1.163  1.00  0.00     0.258 C 
HETATM    3  O   UNL     1      42.128 -14.038   1.256  1.00  0.00    -0.267 OA
HETATM    4  H   UNL     1      40.256 -16.404   0.214  1.00  0.00     0.169 HD
ENDROOT
BRANCH   2   5
HETATM    5  C   UNL     1      41.533 -16.010   2.333  1.00  0.00     0.056 A 
HETATM    6  C   UNL     1      40.885 -15.760   3.543  1.00  0.00     0.050 A 
HETATM    7 CL   UNL     1      39.882 -14.382   3.815  1.00  0.00    -0.083 Cl
HETATM    8  C   UNL     1      41.033 -16.664   4.593  1.00  0.00     0.027 A 
HETATM    9  C   UNL     1      41.827 -17.809   4.441  1.00  0.00     0.031 A 
HETATM   10  C   UNL     1      42.481 -18.086   3.236  1.00  0.00     0.038 A 
HETATM   11  C   UNL     1      42.304 -17.180   2.180  1.00  0.00     0.048 A 
BRANCH  10  12
HETATM   12  N   UNL     1      43.312 -19.228   3.076  1.00  0.00    -0.318 N 
HETATM   13  C   UNL     1      44.362 -19.616   3.924  1.00  0.00     0.224 C 
HETATM   14  O   UNL     1      44.738 -19.110   4.970  1.00  0.00    -0.273 OA
HETATM   15  C   UNL     1      45.077 -20.776   3.272  1.00  0.00     0.105 C 
HETATM   16  C   UNL     1      44.061 -21.294   2.274  1.00  0.00     0.029 C 
HETATM   17  C   UNL     1      43.284 -20.053   1.889  1.00  0.00     0.133 C 
ENDBRANCH  10  12
ENDBRANCH   2   5
BRANCH   1  18
HETATM   18  C   UNL     1      40.368 -14.782  -1.048  1.00  0.00     0.035 A 
HETATM   19  C   UNL     1      41.076 -14.879  -2.246  1.00  0.00     0.032 A 
HETATM   20  C   UNL     1      40.724 -14.115  -3.368  1.00  0.00     0.033 A 
HETATM   21  C   UNL     1      39.640 -13.242  -3.247  1.00  0.00     0.042 A 
HETATM   22  N   UNL     1      39.088 -12.371  -4.159  1.00  0.00    -0.359 N 
HETATM   23  C   UNL     1      38.903 -13.125  -2.072  1.00  0.00    -0.005 A 
HETATM   24  C   UNL     1      38.034 -11.692  -3.599  1.00  0.00     0.006 A 
HETATM   25  H   UNL     1      39.428 -12.246  -5.103  1.00  0.00     0.166 HD
HETATM   26  C   UNL     1      37.265 -10.666  -4.344  1.00  0.00     0.068 C 
HETATM   27  C   UNL     1      37.891 -12.154  -2.306  1.00  0.00     0.038 A 
HETATM   28  C   UNL     1      39.267 -13.914  -0.962  1.00  0.00     0.043 A 
ENDBRANCH   1  18
TORSDOF 3
ENDMDL
MODEL 10
REMARK VINA RESULT:      -8.0      3.334      9.118
REMARK  3 active torsions:
REMARK  status: ('A' for Active; 'I' for Inactive)
REMARK    1  A    between atoms: C_10  and  N_11 
REMARK       I    between atoms: N_11  and  C_12 
REMARK    2  A    between atoms: C_12  and  C_13 
REMARK    3  A    between atoms: C_18  and  N_19 
ROOT
HETATM    1  N   UNL     1      42.372 -15.328   2.763  1.00  0.00    -0.323 N 
HETATM    2  C   UNL     1      42.981 -14.121   3.037  1.00  0.00     0.258 C 
HETATM    3  O   UNL     1      44.167 -13.924   3.276  1.00  0.00    -0.267 OA
HETATM    4  H   UNL     1      41.375 -15.306   2.583  1.00  0.00     0.169 HD
ENDROOT
BRANCH   2   5
HETATM    5  C   UNL     1      42.096 -12.932   2.919  1.00  0.00     0.056 A 
HETATM    6  C   UNL     1      41.598 -12.438   1.712  1.00  0.00     0.050 A 
HETATM    7 CL   UNL     1      41.870 -13.204   0.189  1.00  0.00    -0.083 Cl
HETATM    8  C   UNL     1      40.829 -11.275   1.719  1.00  0.00     0.027 A 
HETATM    9  C   UNL     1      40.562 -10.604   2.919  1.00  0.00     0.031 A 
HETATM   10  C   UNL     1      41.044 -11.083   4.143  1.00  0.00     0.038 A 
HETATM   11  C   UNL     1      41.796 -12.266   4.124  1.00  0.00     0.048 A 
BRANCH  10  12
HETATM   12  N   UNL     1      40.804 -10.398   5.366  1.00  0.00    -0.318 N 
HETATM   13  C   UNL     1      39.784 -10.678   6.288  1.00  0.00     0.224 C 
HETATM   14  O   UNL     1      38.951 -11.571   6.272  1.00  0.00    -0.273 OA
HETATM   15  C   UNL     1      39.798  -9.591   7.337  1.00  0.00     0.105 C 
HETATM   16  C   UNL     1      41.182  -8.989   7.194  1.00  0.00     0.029 C 
HETATM   17  C   UNL     1      41.498  -9.181   5.726  1.00  0.00     0.133 C 
ENDBRANCH  10  12
ENDBRANCH   2   5
BRANCH   1  18
HETATM   18  C   UNL     1      42.974 -16.600   2.663  1.00  0.00     0.035 A 
HETATM   19  C   UNL     1      43.291 -17.220   1.454  1.00  0.00     0.032 A 
HETATM   20  C   UNL     1      43.855 -18.503   1.415  1.00  0.00     0.033 A 
HETATM   21  C   UNL     1      44.085 -19.150   2.632  1.00  0.00     0.042 A 
HETATM   22  N   UNL     1      44.602 -20.398   2.896  1.00  0.00    -0.359 N 
HETATM   23  C   UNL     1      43.792 -18.560   3.858  1.00  0.00    -0.005 A 
HETATM   24  C   UNL     1      44.632 -20.629   4.250  1.00  0.00     0.006 A 
HETATM   25  H   UNL     1      44.900 -21.052   2.185  1.00  0.00     0.166 HD
HETATM   26  C   UNL     1      45.117 -21.907   4.826  1.00  0.00     0.068 C 
HETATM   27  C   UNL     1      44.146 -19.495   4.869  1.00  0.00     0.038 A 
HETATM   28  C   UNL     1      43.238 -17.264   3.872  1.00  0.00     0.043 A 
ENDBRANCH   1  18
TORSDOF 3
ENDMDL
