MODEL 1
REMARK VINA RESULT:      -7.5      0.000      0.000
REMARK  3 active torsions:
REMARK  status: ('A' for Active; 'I' for Inactive)
REMARK    1  A    between atoms: C_2  and  C_3 
REMARK    2  A    between atoms: C_9  and  C_10 
REMARK    3  A    between atoms: C_20  and  N_21 
ROOT
HETATM    1  C   UNL     1      43.524 -18.781   4.202  1.00  0.00     0.043 A 
HETATM    2  N   UNL     1      44.348 -19.526   3.386  1.00  0.00    -0.279 N 
HETATM    3  H   UNL     1      45.064 -20.190   3.661  1.00  0.00     0.189 HD
HETATM    4  N   UNL     1      44.136 -19.329   2.070  1.00  0.00    -0.148 NA
HETATM    5  C   UNL     1      43.152 -18.441   2.068  1.00  0.00     0.199 A 
HETATM    6  C   UNL     1      42.743 -18.032   3.340  1.00  0.00     0.035 A 
HETATM    7  C   UNL     1      41.650 -17.031   3.500  1.00  0.00     0.107 A 
HETATM    8  C   UNL     1      41.059 -16.649   2.144  1.00  0.00     0.081 A 
HETATM    9  C   UNL     1      39.931 -15.778   2.164  1.00  0.00     0.100 C 
HETATM   10  N   UNL     1      39.024 -15.054   2.175  1.00  0.00    -0.191 NA
HETATM   11  C   UNL     1      41.542 -17.127   0.966  1.00  0.00     0.140 A 
HETATM   12  O   UNL     1      42.630 -18.009   0.907  1.00  0.00    -0.277 OA
ENDROOT
BRANCH   7  13
HETATM   13  C   UNL     1      42.269 -15.840   4.230  1.00  0.00    -0.022 A 
HETATM   14  C   UNL     1      41.935 -15.524   5.561  1.00  0.00     0.041 A 
HETATM   15 CL   UNL     1      40.819 -16.466   6.486  1.00  0.00    -0.084 Cl
HETATM   16  C   UNL     1      42.499 -14.412   6.197  1.00  0.00     0.024 A 
HETATM   17  C   UNL     1      43.398 -13.591   5.521  1.00  0.00     0.002 A 
HETATM   18  C   UNL     1      43.735 -13.877   4.203  1.00  0.00     0.001 A 
HETATM   19  C   UNL     1      43.175 -14.983   3.563  1.00  0.00     0.010 A 
ENDBRANCH   7  13
BRANCH  11  20
HETATM   20  N   UNL     1      41.044 -16.816  -0.280  1.00  0.00    -0.282 NA
HETATM   21  H   UNL     1      40.435 -16.003  -0.328  1.00  0.00     0.126 HD
HETATM   22  H   UNL     1      41.769 -16.821  -0.995  1.00  0.00     0.126 HD
ENDBRANCH  11  20
BRANCH   1  23
HETATM   23  C   UNL     1      43.575 -18.862   5.698  1.00  0.00     0.029 C 
HETATM   24  C   UNL     1      44.625 -17.910   6.270  1.00  0.00     0.016 C 
HETATM   25  C   UNL     1      43.818 -20.295   6.171  1.00  0.00     0.016 C 
ENDBRANCH   1  23
TORSDOF 3
ENDMDL
MODEL 2
REMARK VINA RESULT:      -7.2      3.065      4.756
REMARK  3 active torsions:
REMARK  status: ('A' for Active; 'I' for Inactive)
REMARK    1  A    between atoms: C_2  and  C_3 
REMARK    2  A    between atoms: C_9  and  C_10 
REMARK    3  A    between atoms: C_20  and  N_21 
ROOT
HETATM    1  C   UNL     1      44.177 -19.854   4.272  1.00  0.00     0.043 A 
HETATM    2  N   UNL     1      44.112 -20.788   5.285  1.00  0.00    -0.279 N 
HETATM    3  H   UNL     1      44.208 -21.796   5.212  1.00  0.00     0.189 HD
HETATM    4  N   UNL     1      43.907 -20.256   6.506  1.00  0.00    -0.148 NA
HETATM    5  C   UNL     1      43.848 -18.957   6.246  1.00  0.00     0.199 A 
HETATM    6  C   UNL     1      43.974 -18.634   4.892  1.00  0.00     0.035 A 
HETATM    7  C   UNL     1      43.918 -17.214   4.443  1.00  0.00     0.107 A 
HETATM    8  C   UNL     1      43.806 -16.270   5.638  1.00  0.00     0.081 A 
HETATM    9  C   UNL     1      43.852 -14.874   5.352  1.00  0.00     0.100 C 
HETATM   10  N   UNL     1      43.871 -13.736   5.122  1.00  0.00    -0.191 NA
HETATM   11  C   UNL     1      43.700 -16.709   6.921  1.00  0.00     0.140 A 
HETATM   12  O   UNL     1      43.681 -18.072   7.244  1.00  0.00    -0.277 OA
ENDROOT
BRANCH   7  13
HETATM   13  C   UNL     1      42.723 -17.115   3.497  1.00  0.00    -0.022 A 
HETATM   14  C   UNL     1      42.881 -17.009   2.102  1.00  0.00     0.041 A 
HETATM   15 CL   UNL     1      44.433 -17.007   1.342  1.00  0.00    -0.084 Cl
HETATM   16  C   UNL     1      41.768 -16.894   1.261  1.00  0.00     0.024 A 
HETATM   17  C   UNL     1      40.480 -16.874   1.791  1.00  0.00     0.002 A 
HETATM   18  C   UNL     1      40.299 -16.966   3.166  1.00  0.00     0.001 A 
HETATM   19  C   UNL     1      41.405 -17.080   4.010  1.00  0.00     0.010 A 
ENDBRANCH   7  13
BRANCH  11  20
HETATM   20  N   UNL     1      43.599 -15.899   8.031  1.00  0.00    -0.282 NA
HETATM   21  H   UNL     1      43.435 -16.372   8.916  1.00  0.00     0.126 HD
HETATM   22  H   UNL     1      44.347 -15.210   8.072  1.00  0.00     0.126 HD
ENDBRANCH  11  20
BRANCH   1  23
HETATM   23  C   UNL     1      44.419 -20.226   2.840  1.00  0.00     0.029 C 
HETATM   24  C   UNL     1      43.110 -20.295   2.056  1.00  0.00     0.016 C 
HETATM   25  C   UNL     1      45.195 -21.539   2.729  1.00  0.00     0.016 C 
ENDBRANCH   1  23
TORSDOF 3
ENDMDL
MODEL 3
REMARK VINA RESULT:      -6.7      3.114      4.877
REMARK  3 active torsions:
REMARK  status: ('A' for Active; 'I' for Inactive)
REMARK    1  A    between atoms: C_2  and  C_3 
REMARK    2  A    between atoms: C_9  and  C_10 
REMARK    3  A    between atoms: C_20  and  N_21 
ROOT
HETATM    1  C   UNL     1      43.093 -17.660   3.570  1.00  0.00     0.043 A 
HETATM    2  N   UNL     1      42.879 -19.016   3.699  1.00  0.00    -0.279 N 
HETATM    3  H   UNL     1      42.721 -19.696   2.962  1.00  0.00     0.189 HD
HETATM    4  N   UNL     1      42.901 -19.453   4.973  1.00  0.00    -0.148 NA
HETATM    5  C   UNL     1      43.139 -18.340   5.654  1.00  0.00     0.199 A 
HETATM    6  C   UNL     1      43.238 -17.192   4.864  1.00  0.00     0.035 A 
HETATM    7  C   UNL     1      43.496 -15.863   5.487  1.00  0.00     0.107 A 
HETATM    8  C   UNL     1      43.705 -16.000   6.994  1.00  0.00     0.081 A 
HETATM    9  C   UNL     1      44.067 -14.814   7.696  1.00  0.00     0.100 C 
HETATM   10  N   UNL     1      44.345 -13.846   8.275  1.00  0.00    -0.191 NA
HETATM   11  C   UNL     1      43.592 -17.185   7.652  1.00  0.00     0.140 A 
HETATM   12  O   UNL     1      43.266 -18.377   6.991  1.00  0.00    -0.277 OA
ENDROOT
BRANCH   7  13
HETATM   13  C   UNL     1      42.294 -14.989   5.134  1.00  0.00    -0.022 A 
HETATM   14  C   UNL     1      42.373 -13.959   4.177  1.00  0.00     0.041 A 
HETATM   15 CL   UNL     1      43.825 -13.613   3.306  1.00  0.00    -0.084 Cl
HETATM   16  C   UNL     1      41.262 -13.157   3.892  1.00  0.00     0.024 A 
HETATM   17  C   UNL     1      40.055 -13.359   4.558  1.00  0.00     0.002 A 
HETATM   18  C   UNL     1      39.955 -14.362   5.515  1.00  0.00     0.001 A 
HETATM   19  C   UNL     1      41.060 -15.164   5.805  1.00  0.00     0.010 A 
ENDBRANCH   7  13
BRANCH  11  20
HETATM   20  N   UNL     1      43.772 -17.360   9.006  1.00  0.00    -0.282 NA
HETATM   21  H   UNL     1      42.926 -17.396   9.569  1.00  0.00     0.126 HD
HETATM   22  H   UNL     1      44.427 -18.113   9.210  1.00  0.00     0.126 HD
ENDBRANCH  11  20
BRANCH   1  23
HETATM   23  C   UNL     1      43.131 -16.967   2.241  1.00  0.00     0.029 C 
HETATM   24  C   UNL     1      41.722 -16.674   1.728  1.00  0.00     0.016 C 
HETATM   25  C   UNL     1      43.931 -17.772   1.216  1.00  0.00     0.016 C 
ENDBRANCH   1  23
TORSDOF 3
ENDMDL
MODEL 4
REMARK VINA RESULT:      -6.7      3.360      5.347
REMARK  3 active torsions:
REMARK  status: ('A' for Active; 'I' for Inactive)
REMARK    1  A    between atoms: C_2  and  C_3 
REMARK    2  A    between atoms: C_9  and  C_10 
REMARK    3  A    between atoms: C_20  and  N_21 
ROOT
HETATM    1  C   UNL     1      42.053 -16.436   2.707  1.00  0.00     0.043 A 
HETATM    2  N   UNL     1      41.985 -17.573   3.484  1.00  0.00    -0.279 N 
HETATM    3  H   UNL     1      42.335 -18.501   3.265  1.00  0.00     0.189 HD
HETATM    4  N   UNL     1      41.385 -17.385   4.675  1.00  0.00    -0.148 NA
HETATM    5  C   UNL     1      41.075 -16.096   4.640  1.00  0.00     0.199 A 
HETATM    6  C   UNL     1      41.426 -15.453   3.450  1.00  0.00     0.035 A 
HETATM    7  C   UNL     1      41.135 -14.003   3.258  1.00  0.00     0.107 A 
HETATM    8  C   UNL     1      40.528 -13.398   4.522  1.00  0.00     0.081 A 
HETATM    9  C   UNL     1      40.301 -11.991   4.508  1.00  0.00     0.100 C 
HETATM   10  N   UNL     1      40.098 -10.848   4.494  1.00  0.00    -0.191 NA
HETATM   11  C   UNL     1      40.241 -14.133   5.630  1.00  0.00     0.140 A 
HETATM   12  O   UNL     1      40.476 -15.513   5.693  1.00  0.00    -0.277 OA
ENDROOT
BRANCH   7  13
HETATM   13  C   UNL     1      40.200 -13.915   2.053  1.00  0.00    -0.022 A 
HETATM   14  C   UNL     1      40.561 -13.232   0.876  1.00  0.00     0.041 A 
HETATM   15 CL   UNL     1      42.095 -12.460   0.685  1.00  0.00    -0.084 Cl
HETATM   16  C   UNL     1      39.673 -13.146  -0.204  1.00  0.00     0.024 A 
HETATM   17  C   UNL     1      38.411 -13.728  -0.129  1.00  0.00     0.002 A 
HETATM   18  C   UNL     1      38.028 -14.398   1.027  1.00  0.00     0.001 A 
HETATM   19  C   UNL     1      38.907 -14.487   2.107  1.00  0.00     0.010 A 
ENDBRANCH   7  13
BRANCH  11  20
HETATM   20  N   UNL     1      39.696 -13.635   6.793  1.00  0.00    -0.282 NA
HETATM   21  H   UNL     1      40.288 -13.679   7.619  1.00  0.00     0.126 HD
HETATM   22  H   UNL     1      39.263 -12.724   6.654  1.00  0.00     0.126 HD
ENDBRANCH  11  20
BRANCH   1  23
HETATM   23  C   UNL     1      42.699 -16.416   1.354  1.00  0.00     0.029 C 
HETATM   24  C   UNL     1      41.680 -16.693   0.249  1.00  0.00     0.016 C 
HETATM   25  C   UNL     1      43.869 -17.397   1.280  1.00  0.00     0.016 C 
ENDBRANCH   1  23
TORSDOF 3
ENDMDL
MODEL 5
REMARK VINA RESULT:      -6.6      2.560      4.645
REMARK  3 active torsions:
REMARK  status: ('A' for Active; 'I' for Inactive)
REMARK    1  A    between atoms: C_2  and  C_3 
REMARK    2  A    between atoms: C_9  and  C_10 
REMARK    3  A    between atoms: C_20  and  N_21 
ROOT
HETATM    1  C   UNL     1      42.536 -14.457   5.547  1.00  0.00     0.043 A 
HETATM    2  N   UNL     1      41.586 -13.848   6.338  1.00  0.00    -0.279 N 
HETATM    3  H   UNL     1      41.712 -13.429   7.255  1.00  0.00     0.189 HD
HETATM    4  N   UNL     1      40.357 -13.814   5.788  1.00  0.00    -0.148 NA
HETATM    5  C   UNL     1      40.548 -14.414   4.621  1.00  0.00     0.199 A 
HETATM    6  C   UNL     1      41.855 -14.865   4.414  1.00  0.00     0.035 A 
HETATM    7  C   UNL     1      42.223 -15.567   3.151  1.00  0.00     0.107 A 
HETATM    8  C   UNL     1      41.040 -15.608   2.187  1.00  0.00     0.081 A 
HETATM    9  C   UNL     1      41.290 -16.158   0.896  1.00  0.00     0.100 C 
HETATM   10  N   UNL     1      41.485 -16.622  -0.150  1.00  0.00    -0.191 NA
HETATM   11  C   UNL     1      39.810 -15.121   2.503  1.00  0.00     0.140 A 
HETATM   12  O   UNL     1      39.533 -14.546   3.751  1.00  0.00    -0.277 OA
ENDROOT
BRANCH   7  13
HETATM   13  C   UNL     1      42.698 -16.959   3.563  1.00  0.00    -0.022 A 
HETATM   14  C   UNL     1      43.713 -17.640   2.864  1.00  0.00     0.041 A 
HETATM   15 CL   UNL     1      44.522 -16.951   1.501  1.00  0.00    -0.084 Cl
HETATM   16  C   UNL     1      44.111 -18.926   3.249  1.00  0.00     0.024 A 
HETATM   17  C   UNL     1      43.502 -19.561   4.328  1.00  0.00     0.002 A 
HETATM   18  C   UNL     1      42.490 -18.914   5.027  1.00  0.00     0.001 A 
HETATM   19  C   UNL     1      42.088 -17.631   4.648  1.00  0.00     0.010 A 
ENDBRANCH   7  13
BRANCH  11  20
HETATM   20  N   UNL     1      38.713 -15.133   1.669  1.00  0.00    -0.282 NA
HETATM   21  H   UNL     1      38.640 -15.926   1.037  1.00  0.00     0.126 HD
HETATM   22  H   UNL     1      37.850 -14.933   2.170  1.00  0.00     0.126 HD
ENDBRANCH  11  20
BRANCH   1  23
HETATM   23  C   UNL     1      43.973 -14.585   5.956  1.00  0.00     0.029 C 
HETATM   24  C   UNL     1      44.233 -15.915   6.661  1.00  0.00     0.016 C 
HETATM   25  C   UNL     1      44.410 -13.407   6.827  1.00  0.00     0.016 C 
ENDBRANCH   1  23
TORSDOF 3
ENDMDL
MODEL 6
REMARK VINA RESULT:      -6.5      2.197      3.329
REMARK  3 active torsions:
REMARK  status: ('A' for Active; 'I' for Inactive)
REMARK    1  A    between atoms: C_2  and  C_3 
REMARK    2  A    between atoms: C_9  and  C_10 
REMARK    3  A    between atoms: C_20  and  N_21 
ROOT
HETATM    1  C   UNL     1      42.296 -16.841   2.399  1.00  0.00     0.043 A 
HETATM    2  N   UNL     1      42.539 -16.618   1.060  1.00  0.00    -0.279 N 
HETATM    3  H   UNL     1      42.998 -17.236   0.397  1.00  0.00     0.189 HD
HETATM    4  N   UNL     1      42.089 -15.429   0.613  1.00  0.00    -0.148 NA
HETATM    5  C   UNL     1      41.547 -14.901   1.702  1.00  0.00     0.199 A 
HETATM    6  C   UNL     1      41.662 -15.695   2.846  1.00  0.00     0.035 A 
HETATM    7  C   UNL     1      41.108 -15.232   4.150  1.00  0.00     0.107 A 
HETATM    8  C   UNL     1      40.379 -13.899   3.988  1.00  0.00     0.081 A 
HETATM    9  C   UNL     1      39.709 -13.396   5.141  1.00  0.00     0.100 C 
HETATM   10  N   UNL     1      39.177 -12.975   6.083  1.00  0.00    -0.191 NA
HETATM   11  C   UNL     1      40.327 -13.223   2.809  1.00  0.00     0.140 A 
HETATM   12  O   UNL     1      40.948 -13.699   1.647  1.00  0.00    -0.277 OA
ENDROOT
BRANCH   7  13
HETATM   13  C   UNL     1      42.295 -15.143   5.107  1.00  0.00    -0.022 A 
HETATM   14  C   UNL     1      42.400 -15.966   6.245  1.00  0.00     0.041 A 
HETATM   15 CL   UNL     1      41.212 -17.158   6.640  1.00  0.00    -0.084 Cl
HETATM   16  C   UNL     1      43.487 -15.845   7.120  1.00  0.00     0.024 A 
HETATM   17  C   UNL     1      44.482 -14.901   6.883  1.00  0.00     0.002 A 
HETATM   18  C   UNL     1      44.395 -14.070   5.773  1.00  0.00     0.001 A 
HETATM   19  C   UNL     1      43.314 -14.184   4.898  1.00  0.00     0.010 A 
ENDBRANCH   7  13
BRANCH  11  20
HETATM   20  N   UNL     1      39.682 -12.022   2.612  1.00  0.00    -0.282 NA
HETATM   21  H   UNL     1      39.750 -11.347   3.370  1.00  0.00     0.126 HD
HETATM   22  H   UNL     1      39.885 -11.624   1.697  1.00  0.00     0.126 HD
ENDBRANCH  11  20
BRANCH   1  23
HETATM   23  C   UNL     1      42.694 -18.107   3.096  1.00  0.00     0.029 C 
HETATM   24  C   UNL     1      44.001 -17.928   3.866  1.00  0.00     0.016 C 
HETATM   25  C   UNL     1      42.790 -19.276   2.116  1.00  0.00     0.016 C 
ENDBRANCH   1  23
TORSDOF 3
ENDMDL
MODEL 7
REMARK VINA RESULT:      -6.2      4.699      6.900
REMARK  3 active torsions:
REMARK  status: ('A' for Active; 'I' for Inactive)
REMARK    1  A    between atoms: C_2  and  C_3 
REMARK    2  A    between atoms: C_9  and  C_10 
REMARK    3  A    between atoms: C_20  and  N_21 
ROOT
HETATM    1  C   UNL     1      38.390 -13.925  -0.793  1.00  0.00     0.043 A 
HETATM    2  N   UNL     1      37.814 -14.550  -1.878  1.00  0.00    -0.279 N 
HETATM    3  H   UNL     1      36.924 -15.038  -1.917  1.00  0.00     0.189 HD
HETATM    4  N   UNL     1      38.546 -14.472  -3.006  1.00  0.00    -0.148 NA
HETATM    5  C   UNL     1      39.603 -13.776  -2.614  1.00  0.00     0.199 A 
HETATM    6  C   UNL     1      39.595 -13.431  -1.260  1.00  0.00     0.035 A 
HETATM    7  C   UNL     1      40.721 -12.654  -0.668  1.00  0.00     0.107 A 
HETATM    8  C   UNL     1      41.737 -12.266  -1.741  1.00  0.00     0.081 A 
HETATM    9  C   UNL     1      42.812 -11.426  -1.326  1.00  0.00     0.100 C 
HETATM   10  N   UNL     1      43.698 -10.757  -0.989  1.00  0.00    -0.191 NA
HETATM   11  C   UNL     1      41.628 -12.657  -3.039  1.00  0.00     0.140 A 
HETATM   12  O   UNL     1      40.570 -13.458  -3.491  1.00  0.00    -0.277 OA
ENDROOT
BRANCH   7  13
HETATM   13  C   UNL     1      41.323 -13.541   0.420  1.00  0.00    -0.022 A 
HETATM   14  C   UNL     1      41.542 -13.072   1.730  1.00  0.00     0.041 A 
HETATM   15 CL   UNL     1      41.130 -11.467   2.221  1.00  0.00    -0.084 Cl
HETATM   16  C   UNL     1      42.119 -13.899   2.701  1.00  0.00     0.024 A 
HETATM   17  C   UNL     1      42.494 -15.203   2.386  1.00  0.00     0.002 A 
HETATM   18  C   UNL     1      42.297 -15.685   1.098  1.00  0.00     0.001 A 
HETATM   19  C   UNL     1      41.724 -14.865   0.124  1.00  0.00     0.010 A 
ENDBRANCH   7  13
BRANCH  11  20
HETATM   20  N   UNL     1      42.514 -12.332  -4.043  1.00  0.00    -0.282 NA
HETATM   21  H   UNL     1      42.775 -13.088  -4.671  1.00  0.00     0.126 HD
HETATM   22  H   UNL     1      42.248 -11.477  -4.526  1.00  0.00     0.126 HD
ENDBRANCH  11  20
BRANCH   1  23
HETATM   23  C   UNL     1      37.737 -13.872   0.555  1.00  0.00     0.029 C 
HETATM   24  C   UNL     1      37.724 -12.449   1.111  1.00  0.00     0.016 C 
HETATM   25  C   UNL     1      38.404 -14.838   1.536  1.00  0.00     0.016 C 
ENDBRANCH   1  23
TORSDOF 3
ENDMDL
MODEL 8
REMARK VINA RESULT:      -6.1      3.216      5.159
REMARK  3 active torsions:
REMARK  status: ('A' for Active; 'I' for Inactive)
REMARK    1  A    between atoms: C_2  and  C_3 
REMARK    2  A    between atoms: C_9  and  C_10 
REMARK    3  A    between atoms: C_20  and  N_21 
ROOT
HETATM    1  C   UNL     1      43.170 -13.407   6.138  1.00  0.00     0.043 A 
HETATM    2  N   UNL     1      42.651 -12.473   7.010  1.00  0.00    -0.279 N 
HETATM    3  H   UNL     1      43.030 -12.175   7.904  1.00  0.00     0.189 HD
HETATM    4  N   UNL     1      41.509 -11.902   6.582  1.00  0.00    -0.148 NA
HETATM    5  C   UNL     1      41.314 -12.492   5.411  1.00  0.00     0.199 A 
HETATM    6  C   UNL     1      42.276 -13.452   5.084  1.00  0.00     0.035 A 
HETATM    7  C   UNL     1      42.188 -14.207   3.802  1.00  0.00     0.107 A 
HETATM    8  C   UNL     1      41.015 -13.711   2.958  1.00  0.00     0.081 A 
HETATM    9  C   UNL     1      40.882 -14.278   1.657  1.00  0.00     0.100 C 
HETATM   10  N   UNL     1      40.760 -14.751   0.603  1.00  0.00    -0.191 NA
HETATM   11  C   UNL     1      40.148 -12.755   3.386  1.00  0.00     0.140 A 
HETATM   12  O   UNL     1      40.262 -12.153   4.646  1.00  0.00    -0.277 OA
ENDROOT
BRANCH   7  13
HETATM   13  C   UNL     1      42.057 -15.680   4.185  1.00  0.00    -0.022 A 
HETATM   14  C   UNL     1      42.810 -16.687   3.551  1.00  0.00     0.041 A 
HETATM   15 CL   UNL     1      43.958 -16.341   2.306  1.00  0.00    -0.084 Cl
HETATM   16  C   UNL     1      42.651 -18.032   3.905  1.00  0.00     0.024 A 
HETATM   17  C   UNL     1      41.738 -18.400   4.890  1.00  0.00     0.002 A 
HETATM   18  C   UNL     1      40.976 -17.426   5.523  1.00  0.00     0.001 A 
HETATM   19  C   UNL     1      41.128 -16.083   5.173  1.00  0.00     0.010 A 
ENDBRANCH   7  13
BRANCH  11  20
HETATM   20  N   UNL     1      39.078 -12.273   2.663  1.00  0.00    -0.282 NA
HETATM   21  H   UNL     1      38.684 -11.392   2.982  1.00  0.00     0.126 HD
HETATM   22  H   UNL     1      39.251 -12.300   1.660  1.00  0.00     0.126 HD
ENDBRANCH  11  20
BRANCH   1  23
HETATM   23  C   UNL     1      44.445 -14.148   6.407  1.00  0.00     0.029 C 
HETATM   24  C   UNL     1      44.169 -15.540   6.972  1.00  0.00     0.016 C 
HETATM   25  C   UNL     1      45.367 -13.353   7.333  1.00  0.00     0.016 C 
ENDBRANCH   1  23
TORSDOF 3
ENDMDL
MODEL 9
REMARK VINA RESULT:      -6.0      3.436      5.908
REMARK  3 active torsions:
REMARK  status: ('A' for Active; 'I' for Inactive)
REMARK    1  A    between atoms: C_2  and  C_3 
REMARK    2  A    between atoms: C_9  and  C_10 
REMARK    3  A    between atoms: C_20  and  N_21 
ROOT
HETATM    1  C   UNL     1      41.726 -14.860   0.072  1.00  0.00     0.043 A 
HETATM    2  N   UNL     1      42.151 -16.130  -0.254  1.00  0.00    -0.279 N 
HETATM    3  H   UNL     1      42.548 -16.450  -1.132  1.00  0.00     0.189 HD
HETATM    4  N   UNL     1      42.018 -17.024   0.745  1.00  0.00    -0.148 NA
HETATM    5  C   UNL     1      41.501 -16.289   1.720  1.00  0.00     0.199 A 
HETATM    6  C   UNL     1      41.264 -14.957   1.372  1.00  0.00     0.035 A 
HETATM    7  C   UNL     1      40.676 -14.008   2.361  1.00  0.00     0.107 A 
HETATM    8  C   UNL     1      40.492 -14.683   3.719  1.00  0.00     0.081 A 
HETATM    9  C   UNL     1      40.038 -13.854   4.786  1.00  0.00     0.100 C 
HETATM   10  N   UNL     1      39.650 -13.186   5.652  1.00  0.00    -0.191 NA
HETATM   11  C   UNL     1      40.772 -15.996   3.937  1.00  0.00     0.140 A 
HETATM   12  O   UNL     1      41.249 -16.837   2.922  1.00  0.00    -0.277 OA
ENDROOT
BRANCH   7  13
HETATM   13  C   UNL     1      39.358 -13.529   1.757  1.00  0.00    -0.022 A 
HETATM   14  C   UNL     1      39.009 -12.165   1.712  1.00  0.00     0.041 A 
HETATM   15 CL   UNL     1      40.049 -10.922   2.313  1.00  0.00    -0.084 Cl
HETATM   16  C   UNL     1      37.782 -11.756   1.176  1.00  0.00     0.024 A 
HETATM   17  C   UNL     1      36.879 -12.693   0.682  1.00  0.00     0.002 A 
HETATM   18  C   UNL     1      37.196 -14.046   0.725  1.00  0.00     0.001 A 
HETATM   19  C   UNL     1      38.417 -14.461   1.260  1.00  0.00     0.010 A 
ENDBRANCH   7  13
BRANCH  11  20
HETATM   20  N   UNL     1      40.626 -16.649   5.141  1.00  0.00    -0.282 NA
HETATM   21  H   UNL     1      41.451 -17.128   5.493  1.00  0.00     0.126 HD
HETATM   22  H   UNL     1      40.166 -16.068   5.839  1.00  0.00     0.126 HD
ENDBRANCH  11  20
BRANCH   1  23
HETATM   23  C   UNL     1      41.804 -13.708  -0.883  1.00  0.00     0.029 C 
HETATM   24  C   UNL     1      42.240 -12.427  -0.174  1.00  0.00     0.016 C 
HETATM   25  C   UNL     1      40.479 -13.503  -1.618  1.00  0.00     0.016 C 
ENDBRANCH   1  23
TORSDOF 3
ENDMDL
MODEL 10
REMARK VINA RESULT:      -5.9      4.890      7.229
REMARK  3 active torsions:
REMARK  status: ('A' for Active; 'I' for Inactive)
REMARK    1  A    between atoms: C_2  and  C_3 
REMARK    2  A    between atoms: C_9  and  C_10 
REMARK    3  A    between atoms: C_20  and  N_21 
ROOT
HETATM    1  C   UNL     1      40.579 -14.048  -2.602  1.00  0.00     0.043 A 
HETATM    2  N   UNL     1      41.558 -13.977  -3.570  1.00  0.00    -0.279 N 
HETATM    3  H   UNL     1      41.611 -14.492  -4.443  1.00  0.00     0.189 HD
HETATM    4  N   UNL     1      42.539 -13.097  -3.290  1.00  0.00    -0.148 NA
HETATM    5  C   UNL     1      42.158 -12.605  -2.120  1.00  0.00     0.199 A 
HETATM    6  C   UNL     1      40.980 -13.163  -1.617  1.00  0.00     0.035 A 
HETATM    7  C   UNL     1      40.429 -12.717  -0.306  1.00  0.00     0.107 A 
HETATM    8  C   UNL     1      41.265 -11.580   0.277  1.00  0.00     0.081 A 
HETATM    9  C   UNL     1      40.783 -10.987   1.481  1.00  0.00     0.100 C 
HETATM   10  N   UNL     1      40.404 -10.514   2.470  1.00  0.00    -0.191 NA
HETATM   11  C   UNL     1      42.396 -11.113  -0.318  1.00  0.00     0.140 A 
HETATM   12  O   UNL     1      42.885 -11.649  -1.516  1.00  0.00    -0.277 OA
ENDROOT
BRANCH   7  13
HETATM   13  C   UNL     1      40.410 -13.955   0.589  1.00  0.00    -0.022 A 
HETATM   14  C   UNL     1      39.217 -14.460   1.140  1.00  0.00     0.041 A 
HETATM   15 CL   UNL     1      37.676 -13.741   0.833  1.00  0.00    -0.084 Cl
HETATM   16  C   UNL     1      39.233 -15.582   1.978  1.00  0.00     0.024 A 
HETATM   17  C   UNL     1      40.434 -16.215   2.289  1.00  0.00     0.002 A 
HETATM   18  C   UNL     1      41.626 -15.728   1.766  1.00  0.00     0.001 A 
HETATM   19  C   UNL     1      41.617 -14.609   0.930  1.00  0.00     0.010 A 
ENDBRANCH   7  13
BRANCH  11  20
HETATM   20  N   UNL     1      43.182 -10.090   0.166  1.00  0.00    -0.282 NA
HETATM   21  H   UNL     1      44.137 -10.058  -0.181  1.00  0.00     0.126 HD
HETATM   22  H   UNL     1      42.706  -9.191   0.127  1.00  0.00     0.126 HD
ENDBRANCH  11  20
BRANCH   1  23
HETATM   23  C   UNL     1      39.385 -14.947  -2.720  1.00  0.00     0.029 C 
HETATM   24  C   UNL     1      39.506 -15.874  -3.929  1.00  0.00     0.016 C 
HETATM   25  C   UNL     1      38.086 -14.142  -2.774  1.00  0.00     0.016 C 
ENDBRANCH   1  23
TORSDOF 3
ENDMDL
