MODEL 1
REMARK VINA RESULT:      -8.5      0.000      0.000
REMARK  4 active torsions:
REMARK  status: ('A' for Active; 'I' for Inactive)
REMARK    1  A    between atoms: C_9  and  N_10 
REMARK       I    between atoms: N_10  and  C_11 
REMARK    2  A    between atoms: C_11  and  C_12 
REMARK    3  A    between atoms: C_14  and  C_15 
REMARK    4  A    between atoms: C_22  and  O_23 
ROOT
HETATM    1  N   UNL     1      44.307 -14.321   6.653  1.00  0.00    -0.322 N 
HETATM    2  C   UNL     1      43.986 -15.649   6.908  1.00  0.00     0.265 C 
HETATM    3  O   UNL     1      43.759 -16.091   8.032  1.00  0.00    -0.267 OA
HETATM    4  H   UNL     1      44.315 -14.058   5.675  1.00  0.00     0.169 HD
ENDROOT
BRANCH   2   5
HETATM    5  C   UNL     1      43.915 -16.474   5.711  1.00  0.00     0.107 A 
HETATM    6  S   UNL     1      44.539 -18.070   5.735  1.00  0.00    -0.081 SA
HETATM    7  C   UNL     1      43.969 -18.400   4.155  1.00  0.00     0.018 A 
HETATM    8  C   UNL     1      43.368 -17.286   3.600  1.00  0.00     0.058 A 
HETATM    9  C   UNL     1      43.341 -16.171   4.492  1.00  0.00     0.092 A 
BRANCH   7  10
HETATM   10  C   UNL     1      44.113 -19.741   3.580  1.00  0.00    -0.019 A 
HETATM   11  C   UNL     1      44.663 -20.774   4.355  1.00  0.00     0.013 A 
HETATM   12  C   UNL     1      44.811 -22.059   3.828  1.00  0.00     0.001 A 
HETATM   13  C   UNL     1      44.404 -22.326   2.522  1.00  0.00     0.000 A 
HETATM   14  C   UNL     1      43.850 -21.312   1.745  1.00  0.00     0.001 A 
HETATM   15  C   UNL     1      43.704 -20.025   2.270  1.00  0.00     0.013 A 
ENDBRANCH   7  10
BRANCH   9  16
HETATM   16  O   UNL     1      42.845 -14.926   4.275  1.00  0.00    -0.354 OA
HETATM   17  C   UNL     1      43.454 -14.214   3.206  1.00  0.00     0.210 C 
ENDBRANCH   9  16
ENDBRANCH   2   5
BRANCH   1  18
HETATM   18  C   UNL     1      44.566 -13.309   7.597  1.00  0.00     0.035 A 
HETATM   19  C   UNL     1      43.560 -12.657   8.316  1.00  0.00     0.039 A 
HETATM   20  C   UNL     1      43.917 -11.700   9.255  1.00  0.00    -0.022 A 
HETATM   21  C   UNL     1      43.016 -10.940  10.162  1.00  0.00     0.274 C 
HETATM   22  C   UNL     1      45.253 -11.373   9.485  1.00  0.00    -0.025 A 
HETATM   23  N   UNL     1      43.926  -9.957  10.893  1.00  0.00    -0.067 N 
HETATM   24  C   UNL     1      43.650  -9.847  12.351  1.00  0.00     0.270 C 
HETATM   25  H   UNL     1      43.764  -9.043  10.455  1.00  0.00     0.280 HD
HETATM   26  C   UNL     1      45.363 -10.346  10.557  1.00  0.00     0.273 C 
HETATM   27  C   UNL     1      46.265 -12.006   8.784  1.00  0.00     0.012 A 
HETATM   28  C   UNL     1      45.914 -12.983   7.846  1.00  0.00     0.030 A 
ENDBRANCH   1  18
TORSDOF 4
ENDMDL
MODEL 2
REMARK VINA RESULT:      -8.1      5.411      8.957
REMARK  4 active torsions:
REMARK  status: ('A' for Active; 'I' for Inactive)
REMARK    1  A    between atoms: C_9  and  N_10 
REMARK       I    between atoms: N_10  and  C_11 
REMARK    2  A    between atoms: C_11  and  C_12 
REMARK    3  A    between atoms: C_14  and  C_15 
REMARK    4  A    between atoms: C_22  and  O_23 
ROOT
HETATM    1  N   UNL     1      41.826 -15.113  -0.303  1.00  0.00    -0.322 N 
HETATM    2  C   UNL     1      41.527 -15.130   1.055  1.00  0.00     0.265 C 
HETATM    3  O   UNL     1      40.663 -14.425   1.570  1.00  0.00    -0.267 OA
HETATM    4  H   UNL     1      42.445 -15.850  -0.619  1.00  0.00     0.169 HD
ENDROOT
BRANCH   2   5
HETATM    5  C   UNL     1      42.318 -16.086   1.816  1.00  0.00     0.107 A 
HETATM    6  S   UNL     1      42.056 -17.767   1.609  1.00  0.00    -0.081 SA
HETATM    7  C   UNL     1      43.371 -18.175   2.627  1.00  0.00     0.018 A 
HETATM    8  C   UNL     1      43.957 -17.043   3.161  1.00  0.00     0.058 A 
HETATM    9  C   UNL     1      43.347 -15.836   2.702  1.00  0.00     0.092 A 
BRANCH   7  10
HETATM   10  C   UNL     1      43.767 -19.576   2.801  1.00  0.00    -0.019 A 
HETATM   11  C   UNL     1      43.491 -20.507   1.787  1.00  0.00     0.013 A 
HETATM   12  C   UNL     1      43.858 -21.847   1.931  1.00  0.00     0.001 A 
HETATM   13  C   UNL     1      44.511 -22.269   3.088  1.00  0.00     0.000 A 
HETATM   14  C   UNL     1      44.797 -21.354   4.098  1.00  0.00     0.001 A 
HETATM   15  C   UNL     1      44.428 -20.014   3.957  1.00  0.00     0.013 A 
ENDBRANCH   7  10
BRANCH   9  16
HETATM   16  O   UNL     1      43.655 -14.555   3.029  1.00  0.00    -0.354 OA
HETATM   17  C   UNL     1      43.226 -14.144   4.321  1.00  0.00     0.210 C 
ENDBRANCH   9  16
ENDBRANCH   2   5
BRANCH   1  18
HETATM   18  C   UNL     1      41.326 -14.227  -1.276  1.00  0.00     0.035 A 
HETATM   19  C   UNL     1      40.035 -14.319  -1.804  1.00  0.00     0.039 A 
HETATM   20  C   UNL     1      39.618 -13.374  -2.730  1.00  0.00    -0.022 A 
HETATM   21  C   UNL     1      38.277 -13.254  -3.363  1.00  0.00     0.274 C 
HETATM   22  C   UNL     1      40.463 -12.347  -3.149  1.00  0.00    -0.025 A 
HETATM   23  N   UNL     1      38.414 -12.117  -4.371  1.00  0.00    -0.067 N 
HETATM   24  C   UNL     1      37.266 -11.170  -4.374  1.00  0.00     0.270 C 
HETATM   25  H   UNL     1      38.478 -12.563  -5.293  1.00  0.00     0.280 HD
HETATM   26  C   UNL     1      39.767 -11.457  -4.118  1.00  0.00     0.273 C 
HETATM   27  C   UNL     1      41.746 -12.238  -2.640  1.00  0.00     0.012 A 
HETATM   28  C   UNL     1      42.169 -13.179  -1.693  1.00  0.00     0.030 A 
ENDBRANCH   1  18
TORSDOF 4
ENDMDL
MODEL 3
REMARK VINA RESULT:      -8.0      6.711     10.167
REMARK  4 active torsions:
REMARK  status: ('A' for Active; 'I' for Inactive)
REMARK    1  A    between atoms: C_9  and  N_10 
REMARK       I    between atoms: N_10  and  C_11 
REMARK    2  A    between atoms: C_11  and  C_12 
REMARK    3  A    between atoms: C_14  and  C_15 
REMARK    4  A    between atoms: C_22  and  O_23 
ROOT
HETATM    1  N   UNL     1      39.310 -14.576  -0.266  1.00  0.00    -0.322 N 
HETATM    2  C   UNL     1      40.672 -14.804  -0.107  1.00  0.00     0.265 C 
HETATM    3  O   UNL     1      41.536 -14.266  -0.795  1.00  0.00    -0.267 OA
HETATM    4  H   UNL     1      38.720 -14.960   0.463  1.00  0.00     0.169 HD
ENDROOT
BRANCH   2   5
HETATM    5  C   UNL     1      40.989 -15.726   0.973  1.00  0.00     0.107 A 
HETATM    6  S   UNL     1      42.164 -16.951   0.734  1.00  0.00    -0.081 SA
HETATM    7  C   UNL     1      42.090 -17.450   2.369  1.00  0.00     0.018 A 
HETATM    8  C   UNL     1      41.138 -16.731   3.067  1.00  0.00     0.058 A 
HETATM    9  C   UNL     1      40.495 -15.741   2.262  1.00  0.00     0.092 A 
BRANCH   7  10
HETATM   10  C   UNL     1      42.999 -18.485   2.871  1.00  0.00    -0.019 A 
HETATM   11  C   UNL     1      43.330 -19.575   2.051  1.00  0.00     0.013 A 
HETATM   12  C   UNL     1      44.193 -20.574   2.507  1.00  0.00     0.001 A 
HETATM   13  C   UNL     1      44.741 -20.489   3.787  1.00  0.00     0.000 A 
HETATM   14  C   UNL     1      44.426 -19.409   4.607  1.00  0.00     0.001 A 
HETATM   15  C   UNL     1      43.560 -18.411   4.153  1.00  0.00     0.013 A 
ENDBRANCH   7  10
BRANCH   9  16
HETATM   16  O   UNL     1      39.511 -14.873   2.614  1.00  0.00    -0.354 OA
HETATM   17  C   UNL     1      39.792 -14.076   3.757  1.00  0.00     0.210 C 
ENDBRANCH   9  16
ENDBRANCH   2   5
BRANCH   1  18
HETATM   18  C   UNL     1      38.681 -13.837  -1.286  1.00  0.00     0.035 A 
HETATM   19  C   UNL     1      38.053 -14.430  -2.385  1.00  0.00     0.039 A 
HETATM   20  C   UNL     1      37.424 -13.620  -3.319  1.00  0.00    -0.022 A 
HETATM   21  C   UNL     1      36.652 -14.046  -4.517  1.00  0.00     0.274 C 
HETATM   22  C   UNL     1      37.417 -12.231  -3.186  1.00  0.00    -0.025 A 
HETATM   23  N   UNL     1      36.285 -12.751  -5.235  1.00  0.00    -0.067 N 
HETATM   24  C   UNL     1      34.881 -12.708  -5.726  1.00  0.00     0.270 C 
HETATM   25  H   UNL     1      36.920 -12.683  -6.038  1.00  0.00     0.280 HD
HETATM   26  C   UNL     1      36.653 -11.603  -4.298  1.00  0.00     0.273 C 
HETATM   27  C   UNL     1      38.033 -11.623  -2.106  1.00  0.00     0.012 A 
HETATM   28  C   UNL     1      38.657 -12.436  -1.151  1.00  0.00     0.030 A 
ENDBRANCH   1  18
TORSDOF 4
ENDMDL
MODEL 4
REMARK VINA RESULT:      -8.0      5.200      8.749
REMARK  4 active torsions:
REMARK  status: ('A' for Active; 'I' for Inactive)
REMARK    1  A    between atoms: C_9  and  N_10 
REMARK       I    between atoms: N_10  and  C_11 
REMARK    2  A    between atoms: C_11  and  C_12 
REMARK    3  A    between atoms: C_14  and  C_15 
REMARK    4  A    between atoms: C_22  and  O_23 
ROOT
HETATM    1  N   UNL     1      42.057 -15.035  -0.312  1.00  0.00    -0.322 N 
HETATM    2  C   UNL     1      41.597 -15.084   0.998  1.00  0.00     0.265 C 
HETATM    3  O   UNL     1      40.685 -14.379   1.426  1.00  0.00    -0.267 OA
HETATM    4  H   UNL     1      42.701 -15.772  -0.572  1.00  0.00     0.169 HD
ENDROOT
BRANCH   2   5
HETATM    5  C   UNL     1      42.279 -16.071   1.822  1.00  0.00     0.107 A 
HETATM    6  S   UNL     1      42.157 -17.737   1.435  1.00  0.00    -0.081 SA
HETATM    7  C   UNL     1      43.273 -18.181   2.655  1.00  0.00     0.018 A 
HETATM    8  C   UNL     1      43.681 -17.078   3.382  1.00  0.00     0.058 A 
HETATM    9  C   UNL     1      43.103 -15.860   2.909  1.00  0.00     0.092 A 
BRANCH   7  10
HETATM   10  C   UNL     1      43.706 -19.575   2.791  1.00  0.00    -0.019 A 
HETATM   11  C   UNL     1      44.398 -19.977   3.944  1.00  0.00     0.013 A 
HETATM   12  C   UNL     1      44.822 -21.300   4.095  1.00  0.00     0.001 A 
HETATM   13  C   UNL     1      44.552 -22.235   3.098  1.00  0.00     0.000 A 
HETATM   14  C   UNL     1      43.859 -21.850   1.952  1.00  0.00     0.001 A 
HETATM   15  C   UNL     1      43.438 -20.527   1.798  1.00  0.00     0.013 A 
ENDBRANCH   7  10
BRANCH   9  16
HETATM   16  O   UNL     1      43.270 -14.602   3.392  1.00  0.00    -0.354 OA
HETATM   17  C   UNL     1      42.564 -14.319   4.592  1.00  0.00     0.210 C 
ENDBRANCH   9  16
ENDBRANCH   2   5
BRANCH   1  18
HETATM   18  C   UNL     1      41.688 -14.116  -1.313  1.00  0.00     0.035 A 
HETATM   19  C   UNL     1      42.296 -12.866  -1.466  1.00  0.00     0.039 A 
HETATM   20  C   UNL     1      41.892 -12.044  -2.508  1.00  0.00    -0.022 A 
HETATM   21  C   UNL     1      42.446 -10.716  -2.883  1.00  0.00     0.274 C 
HETATM   22  C   UNL     1      40.889 -12.438  -3.394  1.00  0.00    -0.025 A 
HETATM   23  N   UNL     1      41.560 -10.224  -4.024  1.00  0.00    -0.067 N 
HETATM   24  C   UNL     1      42.312  -9.610  -5.152  1.00  0.00     0.270 C 
HETATM   25  H   UNL     1      40.939  -9.516  -3.615  1.00  0.00     0.280 HD
HETATM   26  C   UNL     1      40.669 -11.394  -4.432  1.00  0.00     0.273 C 
HETATM   27  C   UNL     1      40.273 -13.670  -3.261  1.00  0.00     0.012 A 
HETATM   28  C   UNL     1      40.686 -14.511  -2.220  1.00  0.00     0.030 A 
ENDBRANCH   1  18
TORSDOF 4
ENDMDL
MODEL 5
REMARK VINA RESULT:      -7.9      6.067      8.925
REMARK  4 active torsions:
REMARK  status: ('A' for Active; 'I' for Inactive)
REMARK    1  A    between atoms: C_9  and  N_10 
REMARK       I    between atoms: N_10  and  C_11 
REMARK    2  A    between atoms: C_11  and  C_12 
REMARK    3  A    between atoms: C_14  and  C_15 
REMARK    4  A    between atoms: C_22  and  O_23 
ROOT
HETATM    1  N   UNL     1      42.181 -13.967  -0.298  1.00  0.00    -0.322 N 
HETATM    2  C   UNL     1      41.023 -14.679  -0.008  1.00  0.00     0.265 C 
HETATM    3  O   UNL     1      39.934 -14.447  -0.528  1.00  0.00    -0.267 OA
HETATM    4  H   UNL     1      43.036 -14.359   0.079  1.00  0.00     0.169 HD
ENDROOT
BRANCH   2   5
HETATM    5  C   UNL     1      41.221 -15.752   0.955  1.00  0.00     0.107 A 
HETATM    6  S   UNL     1      42.450 -16.918   0.694  1.00  0.00    -0.081 SA
HETATM    7  C   UNL     1      42.176 -17.660   2.212  1.00  0.00     0.018 A 
HETATM    8  C   UNL     1      41.122 -17.061   2.876  1.00  0.00     0.058 A 
HETATM    9  C   UNL     1      40.564 -15.965   2.150  1.00  0.00     0.092 A 
BRANCH   7  10
HETATM   10  C   UNL     1      43.040 -18.752   2.670  1.00  0.00    -0.019 A 
HETATM   11  C   UNL     1      43.243 -19.869   1.845  1.00  0.00     0.013 A 
HETATM   12  C   UNL     1      44.060 -20.923   2.260  1.00  0.00     0.001 A 
HETATM   13  C   UNL     1      44.689 -20.867   3.503  1.00  0.00     0.000 A 
HETATM   14  C   UNL     1      44.502 -19.760   4.328  1.00  0.00     0.001 A 
HETATM   15  C   UNL     1      43.682 -18.707   3.915  1.00  0.00     0.013 A 
ENDBRANCH   7  10
BRANCH   9  16
HETATM   16  O   UNL     1      39.519 -15.168   2.493  1.00  0.00    -0.354 OA
HETATM   17  C   UNL     1      39.797 -14.216   3.511  1.00  0.00     0.210 C 
ENDBRANCH   9  16
ENDBRANCH   2   5
BRANCH   1  18
HETATM   18  C   UNL     1      42.296 -12.809  -1.090  1.00  0.00     0.035 A 
HETATM   19  C   UNL     1      42.300 -12.835  -2.488  1.00  0.00     0.039 A 
HETATM   20  C   UNL     1      42.377 -11.637  -3.183  1.00  0.00    -0.022 A 
HETATM   21  C   UNL     1      42.333 -11.438  -4.657  1.00  0.00     0.274 C 
HETATM   22  C   UNL     1      42.459 -10.415  -2.515  1.00  0.00    -0.025 A 
HETATM   23  N   UNL     1      42.568  -9.944  -4.863  1.00  0.00    -0.067 N 
HETATM   24  C   UNL     1      41.670  -9.326  -5.877  1.00  0.00     0.270 C 
HETATM   25  H   UNL     1      43.539  -9.851  -5.180  1.00  0.00     0.280 HD
HETATM   26  C   UNL     1      42.499  -9.288  -3.487  1.00  0.00     0.273 C 
HETATM   27  C   UNL     1      42.457 -10.366  -1.131  1.00  0.00     0.012 A 
HETATM   28  C   UNL     1      42.365 -11.571  -0.423  1.00  0.00     0.030 A 
ENDBRANCH   1  18
TORSDOF 4
ENDMDL
MODEL 6
REMARK VINA RESULT:      -7.8      5.755      9.772
REMARK  4 active torsions:
REMARK  status: ('A' for Active; 'I' for Inactive)
REMARK    1  A    between atoms: C_9  and  N_10 
REMARK       I    between atoms: N_10  and  C_11 
REMARK    2  A    between atoms: C_11  and  C_12 
REMARK    3  A    between atoms: C_14  and  C_15 
REMARK    4  A    between atoms: C_22  and  O_23 
ROOT
HETATM    1  N   UNL     1      42.748 -15.850   0.495  1.00  0.00    -0.322 N 
HETATM    2  C   UNL     1      41.451 -15.469   0.173  1.00  0.00     0.265 C 
HETATM    3  O   UNL     1      40.462 -15.812   0.817  1.00  0.00    -0.267 OA
HETATM    4  H   UNL     1      43.479 -15.374  -0.020  1.00  0.00     0.169 HD
ENDROOT
BRANCH   2   5
HETATM    5  C   UNL     1      41.369 -14.597  -0.989  1.00  0.00     0.107 A 
HETATM    6  S   UNL     1      41.814 -12.947  -0.852  1.00  0.00    -0.081 SA
HETATM    7  C   UNL     1      41.621 -12.676  -2.531  1.00  0.00     0.018 A 
HETATM    8  C   UNL     1      41.165 -13.813  -3.170  1.00  0.00     0.058 A 
HETATM    9  C   UNL     1      41.010 -14.921  -2.282  1.00  0.00     0.092 A 
BRANCH   7  10
HETATM   10  C   UNL     1      41.971 -11.378  -3.118  1.00  0.00    -0.019 A 
HETATM   11  C   UNL     1      42.137 -10.262  -2.284  1.00  0.00     0.013 A 
HETATM   12  C   UNL     1      42.468  -9.015  -2.820  1.00  0.00     0.001 A 
HETATM   13  C   UNL     1      42.643  -8.873  -4.195  1.00  0.00     0.000 A 
HETATM   14  C   UNL     1      42.487  -9.976  -5.033  1.00  0.00     0.001 A 
HETATM   15  C   UNL     1      42.153 -11.222  -4.498  1.00  0.00     0.013 A 
ENDBRANCH   7  10
BRANCH   9  16
HETATM   16  O   UNL     1      40.572 -16.176  -2.563  1.00  0.00    -0.354 OA
HETATM   17  C   UNL     1      39.644 -16.263  -3.635  1.00  0.00     0.210 C 
ENDBRANCH   9  16
ENDBRANCH   2   5
BRANCH   1  18
HETATM   18  C   UNL     1      43.148 -16.773   1.480  1.00  0.00     0.035 A 
HETATM   19  C   UNL     1      43.280 -16.442   2.832  1.00  0.00     0.039 A 
HETATM   20  C   UNL     1      43.640 -17.431   3.735  1.00  0.00    -0.022 A 
HETATM   21  C   UNL     1      43.774 -17.306   5.211  1.00  0.00     0.274 C 
HETATM   22  C   UNL     1      43.881 -18.740   3.319  1.00  0.00    -0.025 A 
HETATM   23  N   UNL     1      44.296 -18.662   5.679  1.00  0.00    -0.067 N 
HETATM   24  C   UNL     1      43.627 -19.178   6.904  1.00  0.00     0.270 C 
HETATM   25  H   UNL     1      45.294 -18.528   5.877  1.00  0.00     0.280 HD
HETATM   26  C   UNL     1      44.218 -19.606   4.482  1.00  0.00     0.273 C 
HETATM   27  C   UNL     1      43.756 -19.091   1.985  1.00  0.00     0.012 A 
HETATM   28  C   UNL     1      43.378 -18.101   1.070  1.00  0.00     0.030 A 
ENDBRANCH   1  18
TORSDOF 4
ENDMDL
MODEL 7
REMARK VINA RESULT:      -7.7      3.912      4.251
REMARK  4 active torsions:
REMARK  status: ('A' for Active; 'I' for Inactive)
REMARK    1  A    between atoms: C_9  and  N_10 
REMARK       I    between atoms: N_10  and  C_11 
REMARK    2  A    between atoms: C_11  and  C_12 
REMARK    3  A    between atoms: C_14  and  C_15 
REMARK    4  A    between atoms: C_22  and  O_23 
ROOT
HETATM    1  N   UNL     1      41.797 -14.031   3.971  1.00  0.00    -0.322 N 
HETATM    2  C   UNL     1      41.090 -15.006   3.277  1.00  0.00     0.265 C 
HETATM    3  O   UNL     1      39.877 -14.961   3.086  1.00  0.00    -0.267 OA
HETATM    4  H   UNL     1      42.805 -14.111   3.922  1.00  0.00     0.169 HD
ENDROOT
BRANCH   2   5
HETATM    5  C   UNL     1      41.925 -16.084   2.769  1.00  0.00     0.107 A 
HETATM    6  S   UNL     1      42.327 -17.405   3.785  1.00  0.00    -0.081 SA
HETATM    7  C   UNL     1      43.110 -18.244   2.514  1.00  0.00     0.018 A 
HETATM    8  C   UNL     1      43.115 -17.496   1.352  1.00  0.00     0.058 A 
HETATM    9  C   UNL     1      42.439 -16.246   1.498  1.00  0.00     0.092 A 
BRANCH   7  10
HETATM   10  C   UNL     1      43.631 -19.597   2.730  1.00  0.00    -0.019 A 
HETATM   11  C   UNL     1      43.441 -20.579   1.745  1.00  0.00     0.013 A 
HETATM   12  C   UNL     1      43.927 -21.876   1.929  1.00  0.00     0.001 A 
HETATM   13  C   UNL     1      44.614 -22.202   3.097  1.00  0.00     0.000 A 
HETATM   14  C   UNL     1      44.815 -21.234   4.079  1.00  0.00     0.001 A 
HETATM   15  C   UNL     1      44.327 -19.938   3.897  1.00  0.00     0.013 A 
ENDBRANCH   7  10
BRANCH   9  16
HETATM   16  O   UNL     1      42.266 -15.265   0.574  1.00  0.00    -0.354 OA
HETATM   17  C   UNL     1      41.234 -15.506  -0.373  1.00  0.00     0.210 C 
ENDBRANCH   9  16
ENDBRANCH   2   5
BRANCH   1  18
HETATM   18  C   UNL     1      41.269 -12.935   4.679  1.00  0.00     0.035 A 
HETATM   19  C   UNL     1      40.600 -13.063   5.901  1.00  0.00     0.039 A 
HETATM   20  C   UNL     1      40.150 -11.919   6.544  1.00  0.00    -0.022 A 
HETATM   21  C   UNL     1      39.477 -11.828   7.868  1.00  0.00     0.274 C 
HETATM   22  C   UNL     1      40.343 -10.653   5.991  1.00  0.00    -0.025 A 
HETATM   23  N   UNL     1      39.109 -10.355   8.025  1.00  0.00    -0.067 N 
HETATM   24  C   UNL     1      39.387  -9.804   9.379  1.00  0.00     0.270 C 
HETATM   25  H   UNL     1      38.100 -10.295   7.844  1.00  0.00     0.280 HD
HETATM   26  C   UNL     1      39.796  -9.600   6.891  1.00  0.00     0.273 C 
HETATM   27  C   UNL     1      41.001 -10.503   4.783  1.00  0.00     0.012 A 
HETATM   28  C   UNL     1      41.472 -11.652   4.135  1.00  0.00     0.030 A 
ENDBRANCH   1  18
TORSDOF 4
ENDMDL
MODEL 8
REMARK VINA RESULT:      -7.7      5.243      8.591
REMARK  4 active torsions:
REMARK  status: ('A' for Active; 'I' for Inactive)
REMARK    1  A    between atoms: C_9  and  N_10 
REMARK       I    between atoms: N_10  and  C_11 
REMARK    2  A    between atoms: C_11  and  C_12 
REMARK    3  A    between atoms: C_14  and  C_15 
REMARK    4  A    between atoms: C_22  and  O_23 
ROOT
HETATM    1  N   UNL     1      40.137 -15.032   1.461  1.00  0.00    -0.322 N 
HETATM    2  C   UNL     1      41.470 -14.847   1.806  1.00  0.00     0.265 C 
HETATM    3  O   UNL     1      42.103 -13.825   1.552  1.00  0.00    -0.267 OA
HETATM    4  H   UNL     1      39.695 -15.849   1.865  1.00  0.00     0.169 HD
ENDROOT
BRANCH   2   5
HETATM    5  C   UNL     1      42.050 -15.971   2.526  1.00  0.00     0.107 A 
HETATM    6  S   UNL     1      42.190 -17.497   1.758  1.00  0.00    -0.081 SA
HETATM    7  C   UNL     1      43.045 -18.171   3.078  1.00  0.00     0.018 A 
HETATM    8  C   UNL     1      43.165 -17.259   4.111  1.00  0.00     0.058 A 
HETATM    9  C   UNL     1      42.585 -15.992   3.798  1.00  0.00     0.092 A 
BRANCH   7  10
HETATM   10  C   UNL     1      43.579 -19.534   2.999  1.00  0.00    -0.019 A 
HETATM   11  C   UNL     1      43.289 -20.329   1.879  1.00  0.00     0.013 A 
HETATM   12  C   UNL     1      43.785 -21.631   1.781  1.00  0.00     0.001 A 
HETATM   13  C   UNL     1      44.582 -22.150   2.800  1.00  0.00     0.000 A 
HETATM   14  C   UNL     1      44.883 -21.368   3.914  1.00  0.00     0.001 A 
HETATM   15  C   UNL     1      44.385 -20.067   4.014  1.00  0.00     0.013 A 
ENDBRANCH   7  10
BRANCH   9  16
HETATM   16  O   UNL     1      42.509 -14.882   4.577  1.00  0.00    -0.354 OA
HETATM   17  C   UNL     1      43.709 -14.125   4.665  1.00  0.00     0.210 C 
ENDBRANCH   9  16
ENDBRANCH   2   5
BRANCH   1  18
HETATM   18  C   UNL     1      39.336 -14.191   0.666  1.00  0.00     0.035 A 
HETATM   19  C   UNL     1      39.457 -14.108  -0.725  1.00  0.00     0.039 A 
HETATM   20  C   UNL     1      38.594 -13.279  -1.427  1.00  0.00    -0.022 A 
HETATM   21  C   UNL     1      38.513 -13.094  -2.901  1.00  0.00     0.274 C 
HETATM   22  C   UNL     1      37.622 -12.523  -0.772  1.00  0.00    -0.025 A 
HETATM   23  N   UNL     1      37.475 -11.995  -3.106  1.00  0.00    -0.067 N 
HETATM   24  C   UNL     1      36.516 -12.269  -4.211  1.00  0.00     0.270 C 
HETATM   25  H   UNL     1      38.003 -11.144  -3.330  1.00  0.00     0.280 HD
HETATM   26  C   UNL     1      36.813 -11.748  -1.753  1.00  0.00     0.273 C 
HETATM   27  C   UNL     1      37.484 -12.590   0.604  1.00  0.00     0.012 A 
HETATM   28  C   UNL     1      38.341 -13.436   1.318  1.00  0.00     0.030 A 
ENDBRANCH   1  18
TORSDOF 4
ENDMDL
MODEL 9
REMARK VINA RESULT:      -7.5      4.152      9.523
REMARK  4 active torsions:
REMARK  status: ('A' for Active; 'I' for Inactive)
REMARK    1  A    between atoms: C_9  and  N_10 
REMARK       I    between atoms: N_10  and  C_11 
REMARK    2  A    between atoms: C_11  and  C_12 
REMARK    3  A    between atoms: C_14  and  C_15 
REMARK    4  A    between atoms: C_22  and  O_23 
ROOT
HETATM    1  N   UNL     1      42.712 -15.721   4.339  1.00  0.00    -0.322 N 
HETATM    2  C   UNL     1      41.395 -15.307   4.181  1.00  0.00     0.265 C 
HETATM    3  O   UNL     1      40.492 -16.045   3.795  1.00  0.00    -0.267 OA
HETATM    4  H   UNL     1      43.319 -15.060   4.810  1.00  0.00     0.169 HD
ENDROOT
BRANCH   2   5
HETATM    5  C   UNL     1      41.171 -13.915   4.541  1.00  0.00     0.107 A 
HETATM    6  S   UNL     1      40.088 -13.525   5.811  1.00  0.00    -0.081 SA
HETATM    7  C   UNL     1      40.478 -11.860   5.736  1.00  0.00     0.018 A 
HETATM    8  C   UNL     1      41.374 -11.603   4.716  1.00  0.00     0.058 A 
HETATM    9  C   UNL     1      41.771 -12.786   4.019  1.00  0.00     0.092 A 
BRANCH   7  10
HETATM   10  C   UNL     1      39.911 -10.921   6.709  1.00  0.00    -0.019 A 
HETATM   11  C   UNL     1      39.708  -9.581   6.345  1.00  0.00     0.013 A 
HETATM   12  C   UNL     1      39.170  -8.669   7.256  1.00  0.00     0.001 A 
HETATM   13  C   UNL     1      38.824  -9.088   8.539  1.00  0.00     0.000 A 
HETATM   14  C   UNL     1      39.015 -10.417   8.911  1.00  0.00     0.001 A 
HETATM   15  C   UNL     1      39.555 -11.330   8.002  1.00  0.00     0.013 A 
ENDBRANCH   7  10
BRANCH   9  16
HETATM   16  O   UNL     1      42.618 -12.902   2.964  1.00  0.00    -0.354 OA
HETATM   17  C   UNL     1      42.034 -12.651   1.693  1.00  0.00     0.210 C 
ENDBRANCH   9  16
ENDBRANCH   2   5
BRANCH   1  18
HETATM   18  C   UNL     1      43.268 -16.959   3.969  1.00  0.00     0.035 A 
HETATM   19  C   UNL     1      43.641 -17.939   4.894  1.00  0.00     0.039 A 
HETATM   20  C   UNL     1      44.144 -19.146   4.430  1.00  0.00    -0.022 A 
HETATM   21  C   UNL     1      44.537 -20.334   5.235  1.00  0.00     0.274 C 
HETATM   22  C   UNL     1      44.293 -19.393   3.066  1.00  0.00    -0.025 A 
HETATM   23  N   UNL     1      45.118 -21.322   4.227  1.00  0.00    -0.067 N 
HETATM   24  C   UNL     1      44.670 -22.726   4.430  1.00  0.00     0.270 C 
HETATM   25  H   UNL     1      46.137 -21.279   4.343  1.00  0.00     0.280 HD
HETATM   26  C   UNL     1      44.820 -20.767   2.837  1.00  0.00     0.273 C 
HETATM   27  C   UNL     1      43.931 -18.438   2.132  1.00  0.00     0.012 A 
HETATM   28  C   UNL     1      43.408 -17.222   2.592  1.00  0.00     0.030 A 
ENDBRANCH   1  18
TORSDOF 4
ENDMDL
MODEL 10
REMARK VINA RESULT:      -7.4      5.460      9.239
REMARK  4 active torsions:
REMARK  status: ('A' for Active; 'I' for Inactive)
REMARK    1  A    between atoms: C_9  and  N_10 
REMARK       I    between atoms: N_10  and  C_11 
REMARK    2  A    between atoms: C_11  and  C_12 
REMARK    3  A    between atoms: C_14  and  C_15 
REMARK    4  A    between atoms: C_22  and  O_23 
ROOT
HETATM    1  N   UNL     1      42.979 -16.087   1.914  1.00  0.00    -0.322 N 
HETATM    2  C   UNL     1      41.797 -15.929   1.199  1.00  0.00     0.265 C 
HETATM    3  O   UNL     1      40.887 -16.755   1.199  1.00  0.00    -0.267 OA
HETATM    4  H   UNL     1      43.573 -15.267   1.952  1.00  0.00     0.169 HD
ENDROOT
BRANCH   2   5
HETATM    5  C   UNL     1      41.720 -14.676   0.464  1.00  0.00     0.107 A 
HETATM    6  S   UNL     1      41.031 -14.647  -1.105  1.00  0.00    -0.081 SA
HETATM    7  C   UNL     1      41.143 -12.941  -1.207  1.00  0.00     0.018 A 
HETATM    8  C   UNL     1      41.752 -12.414  -0.084  1.00  0.00     0.058 A 
HETATM    9  C   UNL     1      42.094 -13.413   0.879  1.00  0.00     0.092 A 
BRANCH   7  10
HETATM   10  C   UNL     1      40.587 -12.230  -2.362  1.00  0.00    -0.019 A 
HETATM   11  C   UNL     1      41.443 -11.515  -3.214  1.00  0.00     0.013 A 
HETATM   12  C   UNL     1      40.936 -10.828  -4.320  1.00  0.00     0.001 A 
HETATM   13  C   UNL     1      39.568 -10.855  -4.589  1.00  0.00     0.000 A 
HETATM   14  C   UNL     1      38.710 -11.567  -3.755  1.00  0.00     0.001 A 
HETATM   15  C   UNL     1      39.215 -12.252  -2.647  1.00  0.00     0.013 A 
ENDBRANCH   7  10
BRANCH   9  16
HETATM   16  O   UNL     1      42.711 -13.255   2.078  1.00  0.00    -0.354 OA
HETATM   17  C   UNL     1      41.889 -12.735   3.114  1.00  0.00     0.210 C 
ENDBRANCH   9  16
ENDBRANCH   2   5
BRANCH   1  18
HETATM   18  C   UNL     1      43.403 -17.227   2.621  1.00  0.00     0.035 A 
HETATM   19  C   UNL     1      43.329 -17.336   4.013  1.00  0.00     0.039 A 
HETATM   20  C   UNL     1      43.735 -18.517   4.618  1.00  0.00    -0.022 A 
HETATM   21  C   UNL     1      43.680 -18.861   6.064  1.00  0.00     0.274 C 
HETATM   22  C   UNL     1      44.223 -19.586   3.866  1.00  0.00    -0.025 A 
HETATM   23  N   UNL     1      44.351 -20.227   6.173  1.00  0.00    -0.067 N 
HETATM   24  C   UNL     1      43.637 -21.182   7.063  1.00  0.00     0.270 C 
HETATM   25  H   UNL     1      45.287 -20.053   6.557  1.00  0.00     0.280 HD
HETATM   26  C   UNL     1      44.557 -20.737   4.749  1.00  0.00     0.273 C 
HETATM   27  C   UNL     1      44.306 -19.499   2.487  1.00  0.00     0.012 A 
HETATM   28  C   UNL     1      43.883 -18.316   1.869  1.00  0.00     0.030 A 
ENDBRANCH   1  18
TORSDOF 4
ENDMDL
