MODEL 1
REMARK VINA RESULT:      -8.0      0.000      0.000
REMARK  4 active torsions:
REMARK  status: ('A' for Active; 'I' for Inactive)
REMARK    1  A    between atoms: C_4  and  C_5 
REMARK    2  A    between atoms: C_7  and  N_8 
REMARK       I    between atoms: N_8  and  C_9 
REMARK    3  A    between atoms: C_9  and  C_10 
REMARK    4  A    between atoms: C_10  and  C_11 
ROOT
HETATM    1  C   UNL     1      43.118 -18.154   5.192  1.00  0.00     0.019 A 
HETATM    2  C   UNL     1      43.907 -17.259   5.939  1.00  0.00     0.045 A 
HETATM    3  C   UNL     1      43.344 -16.124   6.532  1.00  0.00     0.035 A 
HETATM    4  C   UNL     1      41.972 -15.885   6.373  1.00  0.00     0.029 A 
HETATM    5  C   UNL     1      41.176 -16.765   5.639  1.00  0.00     0.003 A 
HETATM    6  C   UNL     1      41.748 -17.891   5.052  1.00  0.00     0.016 A 
ENDROOT
BRANCH   3   7
HETATM    7  N   UNL     1      44.068 -15.179   7.290  1.00  0.00    -0.327 N 
HETATM    8  C   UNL     1      44.494 -13.916   6.898  1.00  0.00     0.227 C 
HETATM    9  O   UNL     1      44.333 -13.418   5.786  1.00  0.00    -0.273 OA
HETATM   10  H   UNL     1      44.313 -15.470   8.228  1.00  0.00     0.169 HD
BRANCH   8  11
HETATM   11  C   UNL     1      45.277 -13.206   8.008  1.00  0.00     0.159 C 
BRANCH  11  12
HETATM   12  C   UNL     1      44.487 -12.172   8.751  1.00  0.00     0.017 A 
HETATM   13  N   UNL     1      43.248 -11.731   8.338  1.00  0.00    -0.369 N 
HETATM   14  H   UNL     1      42.754 -12.094   7.527  1.00  0.00     0.165 HD
HETATM   15  C   UNL     1      42.789 -10.768   9.195  1.00  0.00     0.088 A 
HETATM   16  C   UNL     1      43.739 -10.579  10.171  1.00  0.00     0.019 A 
HETATM   17  C   UNL     1      44.809 -11.462   9.894  1.00  0.00     0.027 A 
ENDBRANCH  11  12
ENDBRANCH   8  11
ENDBRANCH   3   7
BRANCH   1  18
HETATM   18  C   UNL     1      43.683 -19.342   4.555  1.00  0.00     0.180 A 
HETATM   19  N   UNL     1      43.742 -19.647   3.271  1.00  0.00    -0.226 NA
HETATM   20  C   UNL     1      44.375 -20.869   3.241  1.00  0.00     0.063 A 
HETATM   21  C   UNL     1      44.646 -21.560   1.964  1.00  0.00     0.073 C 
HETATM   22  C   UNL     1      44.669 -21.266   4.528  1.00  0.00     0.076 A 
HETATM   23  O   UNL     1      44.233 -20.290   5.378  1.00  0.00    -0.294 OA
HETATM   24  C   UNL     1      45.320 -22.441   5.129  1.00  0.00     0.079 C 
ENDBRANCH   1  18
TORSDOF 4
ENDMDL
MODEL 2
REMARK VINA RESULT:      -7.7      4.607      6.754
REMARK  4 active torsions:
REMARK  status: ('A' for Active; 'I' for Inactive)
REMARK    1  A    between atoms: C_4  and  C_5 
REMARK    2  A    between atoms: C_7  and  N_8 
REMARK       I    between atoms: N_8  and  C_9 
REMARK    3  A    between atoms: C_9  and  C_10 
REMARK    4  A    between atoms: C_10  and  C_11 
ROOT
HETATM    1  C   UNL     1      43.761 -17.758   4.218  1.00  0.00     0.019 A 
HETATM    2  C   UNL     1      43.417 -16.972   3.104  1.00  0.00     0.045 A 
HETATM    3  C   UNL     1      43.060 -15.628   3.252  1.00  0.00     0.035 A 
HETATM    4  C   UNL     1      43.050 -15.066   4.536  1.00  0.00     0.029 A 
HETATM    5  C   UNL     1      43.394 -15.831   5.650  1.00  0.00     0.003 A 
HETATM    6  C   UNL     1      43.745 -17.169   5.491  1.00  0.00     0.016 A 
ENDROOT
BRANCH   3   7
HETATM    7  N   UNL     1      42.698 -14.777   2.185  1.00  0.00    -0.327 N 
HETATM    8  C   UNL     1      41.503 -14.759   1.476  1.00  0.00     0.227 C 
HETATM    9  O   UNL     1      40.556 -15.522   1.647  1.00  0.00    -0.273 OA
HETATM   10  H   UNL     1      43.406 -14.112   1.900  1.00  0.00     0.169 HD
BRANCH   8  11
HETATM   11  C   UNL     1      41.510 -13.698   0.370  1.00  0.00     0.159 C 
BRANCH  11  12
HETATM   12  C   UNL     1      41.338 -14.251  -1.013  1.00  0.00     0.017 A 
HETATM   13  N   UNL     1      40.760 -15.476  -1.266  1.00  0.00    -0.369 N 
HETATM   14  H   UNL     1      40.370 -16.083  -0.550  1.00  0.00     0.165 HD
HETATM   15  C   UNL     1      40.770 -15.723  -2.612  1.00  0.00     0.088 A 
HETATM   16  C   UNL     1      41.361 -14.652  -3.238  1.00  0.00     0.019 A 
HETATM   17  C   UNL     1      41.721 -13.723  -2.233  1.00  0.00     0.027 A 
ENDBRANCH  11  12
ENDBRANCH   8  11
ENDBRANCH   3   7
BRANCH   1  18
HETATM   18  C   UNL     1      44.129 -19.168   4.092  1.00  0.00     0.180 A 
HETATM   19  N   UNL     1      44.555 -20.002   5.024  1.00  0.00    -0.226 NA
HETATM   20  C   UNL     1      44.744 -21.190   4.355  1.00  0.00     0.063 A 
HETATM   21  C   UNL     1      45.216 -22.399   5.061  1.00  0.00     0.073 C 
HETATM   22  C   UNL     1      44.430 -21.023   3.023  1.00  0.00     0.076 A 
HETATM   23  O   UNL     1      44.030 -19.729   2.846  1.00  0.00    -0.294 OA
HETATM   24  C   UNL     1      44.431 -21.896   1.839  1.00  0.00     0.079 C 
ENDBRANCH   1  18
TORSDOF 4
ENDMDL
MODEL 3
REMARK VINA RESULT:      -7.6      6.378      8.088
REMARK  4 active torsions:
REMARK  status: ('A' for Active; 'I' for Inactive)
REMARK    1  A    between atoms: C_4  and  C_5 
REMARK    2  A    between atoms: C_7  and  N_8 
REMARK       I    between atoms: N_8  and  C_9 
REMARK    3  A    between atoms: C_9  and  C_10 
REMARK    4  A    between atoms: C_10  and  C_11 
ROOT
HETATM    1  C   UNL     1      42.102 -17.655   2.186  1.00  0.00     0.019 A 
HETATM    2  C   UNL     1      41.944 -17.268   0.843  1.00  0.00     0.045 A 
HETATM    3  C   UNL     1      41.086 -16.221   0.490  1.00  0.00     0.035 A 
HETATM    4  C   UNL     1      40.377 -15.556   1.500  1.00  0.00     0.029 A 
HETATM    5  C   UNL     1      40.527 -15.924   2.836  1.00  0.00     0.003 A 
HETATM    6  C   UNL     1      41.383 -16.969   3.175  1.00  0.00     0.016 A 
ENDROOT
BRANCH   3   7
HETATM    7  N   UNL     1      40.870 -15.778  -0.833  1.00  0.00    -0.327 N 
HETATM    8  C   UNL     1      41.314 -14.600  -1.421  1.00  0.00     0.227 C 
HETATM    9  O   UNL     1      41.956 -13.715  -0.860  1.00  0.00    -0.273 OA
HETATM   10  H   UNL     1      40.314 -16.394  -1.412  1.00  0.00     0.169 HD
BRANCH   8  11
HETATM   11  C   UNL     1      40.847 -14.476  -2.876  1.00  0.00     0.159 C 
BRANCH  11  12
HETATM   12  C   UNL     1      41.116 -13.138  -3.495  1.00  0.00     0.017 A 
HETATM   13  N   UNL     1      42.382 -12.699  -3.818  1.00  0.00    -0.369 N 
HETATM   14  H   UNL     1      43.226 -13.254  -3.703  1.00  0.00     0.165 HD
HETATM   15  C   UNL     1      42.316 -11.434  -4.335  1.00  0.00     0.088 A 
HETATM   16  C   UNL     1      40.997 -11.046  -4.346  1.00  0.00     0.019 A 
HETATM   17  C   UNL     1      40.239 -12.118  -3.817  1.00  0.00     0.027 A 
ENDBRANCH  11  12
ENDBRANCH   8  11
ENDBRANCH   3   7
BRANCH   1  18
HETATM   18  C   UNL     1      42.986 -18.750   2.580  1.00  0.00     0.180 A 
HETATM   19  N   UNL     1      43.741 -18.862   3.659  1.00  0.00    -0.226 NA
HETATM   20  C   UNL     1      44.352 -20.087   3.520  1.00  0.00     0.063 A 
HETATM   21  C   UNL     1      45.287 -20.597   4.544  1.00  0.00     0.073 C 
HETATM   22  C   UNL     1      43.945 -20.673   2.340  1.00  0.00     0.076 A 
HETATM   23  O   UNL     1      43.065 -19.824   1.733  1.00  0.00    -0.294 OA
HETATM   24  C   UNL     1      44.241 -21.942   1.655  1.00  0.00     0.079 C 
ENDBRANCH   1  18
TORSDOF 4
ENDMDL
MODEL 4
REMARK VINA RESULT:      -7.6      5.530      7.917
REMARK  4 active torsions:
REMARK  status: ('A' for Active; 'I' for Inactive)
REMARK    1  A    between atoms: C_4  and  C_5 
REMARK    2  A    between atoms: C_7  and  N_8 
REMARK       I    between atoms: N_8  and  C_9 
REMARK    3  A    between atoms: C_9  and  C_10 
REMARK    4  A    between atoms: C_10  and  C_11 
ROOT
HETATM    1  C   UNL     1      41.933 -17.467   2.854  1.00  0.00     0.019 A 
HETATM    2  C   UNL     1      41.390 -16.870   1.702  1.00  0.00     0.045 A 
HETATM    3  C   UNL     1      40.601 -15.718   1.791  1.00  0.00     0.035 A 
HETATM    4  C   UNL     1      40.354 -15.160   3.053  1.00  0.00     0.029 A 
HETATM    5  C   UNL     1      40.890 -15.738   4.204  1.00  0.00     0.003 A 
HETATM    6  C   UNL     1      41.672 -16.885   4.104  1.00  0.00     0.016 A 
ENDROOT
BRANCH   3   7
HETATM    7  N   UNL     1      40.018 -15.065   0.684  1.00  0.00    -0.327 N 
HETATM    8  C   UNL     1      40.628 -14.195  -0.212  1.00  0.00     0.227 C 
HETATM    9  O   UNL     1      41.797 -13.820  -0.165  1.00  0.00    -0.273 OA
HETATM   10  H   UNL     1      39.033 -15.247   0.540  1.00  0.00     0.169 HD
BRANCH   8  11
HETATM   11  C   UNL     1      39.643 -13.675  -1.265  1.00  0.00     0.159 C 
BRANCH  11  12
HETATM   12  C   UNL     1      39.364 -14.642  -2.376  1.00  0.00     0.017 A 
HETATM   13  N   UNL     1      38.101 -14.868  -2.877  1.00  0.00    -0.369 N 
HETATM   14  H   UNL     1      37.267 -14.375  -2.568  1.00  0.00     0.165 HD
HETATM   15  C   UNL     1      38.155 -15.821  -3.858  1.00  0.00     0.088 A 
HETATM   16  C   UNL     1      39.464 -16.219  -3.993  1.00  0.00     0.019 A 
HETATM   17  C   UNL     1      40.228 -15.478  -3.060  1.00  0.00     0.027 A 
ENDBRANCH  11  12
ENDBRANCH   8  11
ENDBRANCH   3   7
BRANCH   1  18
HETATM   18  C   UNL     1      42.753 -18.676   2.790  1.00  0.00     0.180 A 
HETATM   19  N   UNL     1      42.774 -19.617   1.864  1.00  0.00    -0.226 NA
HETATM   20  C   UNL     1      43.727 -20.507   2.306  1.00  0.00     0.063 A 
HETATM   21  C   UNL     1      44.063 -21.718   1.529  1.00  0.00     0.073 C 
HETATM   22  C   UNL     1      44.245 -20.067   3.506  1.00  0.00     0.076 A 
HETATM   23  O   UNL     1      43.629 -18.890   3.822  1.00  0.00    -0.294 OA
HETATM   24  C   UNL     1      45.262 -20.570   4.444  1.00  0.00     0.079 C 
ENDBRANCH   1  18
TORSDOF 4
ENDMDL
MODEL 5
REMARK VINA RESULT:      -7.5      6.087      8.395
REMARK  4 active torsions:
REMARK  status: ('A' for Active; 'I' for Inactive)
REMARK    1  A    between atoms: C_4  and  C_5 
REMARK    2  A    between atoms: C_7  and  N_8 
REMARK       I    between atoms: N_8  and  C_9 
REMARK    3  A    between atoms: C_9  and  C_10 
REMARK    4  A    between atoms: C_10  and  C_11 
ROOT
HETATM    1  C   UNL     1      42.112 -17.651   2.187  1.00  0.00     0.019 A 
HETATM    2  C   UNL     1      41.971 -17.339   0.823  1.00  0.00     0.045 A 
HETATM    3  C   UNL     1      41.111 -16.319   0.402  1.00  0.00     0.035 A 
HETATM    4  C   UNL     1      40.384 -15.604   1.363  1.00  0.00     0.029 A 
HETATM    5  C   UNL     1      40.517 -15.899   2.720  1.00  0.00     0.003 A 
HETATM    6  C   UNL     1      41.374 -16.917   3.128  1.00  0.00     0.016 A 
ENDROOT
BRANCH   3   7
HETATM    7  N   UNL     1      40.913 -15.951  -0.946  1.00  0.00    -0.327 N 
HETATM    8  C   UNL     1      41.320 -14.783  -1.581  1.00  0.00     0.227 C 
HETATM    9  O   UNL     1      41.907 -13.844  -1.048  1.00  0.00    -0.273 OA
HETATM   10  H   UNL     1      40.400 -16.618  -1.509  1.00  0.00     0.169 HD
BRANCH   8  11
HETATM   11  C   UNL     1      40.888 -14.750  -3.051  1.00  0.00     0.159 C 
BRANCH  11  12
HETATM   12  C   UNL     1      39.417 -14.546  -3.254  1.00  0.00     0.017 A 
HETATM   13  N   UNL     1      38.537 -15.584  -3.474  1.00  0.00    -0.369 N 
HETATM   14  H   UNL     1      38.800 -16.565  -3.478  1.00  0.00     0.165 HD
HETATM   15  C   UNL     1      37.273 -15.089  -3.654  1.00  0.00     0.088 A 
HETATM   16  C   UNL     1      37.333 -13.720  -3.551  1.00  0.00     0.019 A 
HETATM   17  C   UNL     1      38.683 -13.375  -3.300  1.00  0.00     0.027 A 
ENDBRANCH  11  12
ENDBRANCH   8  11
ENDBRANCH   3   7
BRANCH   1  18
HETATM   18  C   UNL     1      42.996 -18.718   2.654  1.00  0.00     0.180 A 
HETATM   19  N   UNL     1      43.678 -18.798   3.782  1.00  0.00    -0.226 NA
HETATM   20  C   UNL     1      44.331 -20.007   3.699  1.00  0.00     0.063 A 
HETATM   21  C   UNL     1      45.206 -20.480   4.791  1.00  0.00     0.073 C 
HETATM   22  C   UNL     1      44.023 -20.614   2.501  1.00  0.00     0.076 A 
HETATM   23  O   UNL     1      43.164 -19.796   1.825  1.00  0.00    -0.294 OA
HETATM   24  C   UNL     1      44.400 -21.880   1.852  1.00  0.00     0.079 C 
ENDBRANCH   1  18
TORSDOF 4
ENDMDL
MODEL 6
REMARK VINA RESULT:      -7.5      3.272      5.053
REMARK  4 active torsions:
REMARK  status: ('A' for Active; 'I' for Inactive)
REMARK    1  A    between atoms: C_4  and  C_5 
REMARK    2  A    between atoms: C_7  and  N_8 
REMARK       I    between atoms: N_8  and  C_9 
REMARK    3  A    between atoms: C_9  and  C_10 
REMARK    4  A    between atoms: C_10  and  C_11 
ROOT
HETATM    1  C   UNL     1      44.046 -17.933   5.046  1.00  0.00     0.019 A 
HETATM    2  C   UNL     1      43.273 -16.937   4.421  1.00  0.00     0.045 A 
HETATM    3  C   UNL     1      43.077 -15.691   5.024  1.00  0.00     0.035 A 
HETATM    4  C   UNL     1      43.664 -15.441   6.272  1.00  0.00     0.029 A 
HETATM    5  C   UNL     1      44.437 -16.416   6.903  1.00  0.00     0.003 A 
HETATM    6  C   UNL     1      44.624 -17.653   6.294  1.00  0.00     0.016 A 
ENDROOT
BRANCH   3   7
HETATM    7  N   UNL     1      42.313 -14.645   4.462  1.00  0.00    -0.327 N 
HETATM    8  C   UNL     1      40.982 -14.331   4.712  1.00  0.00     0.227 C 
HETATM    9  O   UNL     1      40.227 -14.950   5.459  1.00  0.00    -0.273 OA
HETATM   10  H   UNL     1      42.797 -14.067   3.788  1.00  0.00     0.169 HD
BRANCH   8  11
HETATM   11  C   UNL     1      40.511 -13.133   3.880  1.00  0.00     0.159 C 
BRANCH  11  12
HETATM   12  C   UNL     1      39.519 -13.480   2.812  1.00  0.00     0.017 A 
HETATM   13  N   UNL     1      39.213 -14.778   2.462  1.00  0.00    -0.369 N 
HETATM   14  H   UNL     1      39.598 -15.599   2.920  1.00  0.00     0.165 HD
HETATM   15  C   UNL     1      38.302 -14.780   1.440  1.00  0.00     0.088 A 
HETATM   16  C   UNL     1      38.015 -13.474   1.122  1.00  0.00     0.019 A 
HETATM   17  C   UNL     1      38.781 -12.653   1.984  1.00  0.00     0.027 A 
ENDBRANCH  11  12
ENDBRANCH   8  11
ENDBRANCH   3   7
BRANCH   1  18
HETATM   18  C   UNL     1      44.258 -19.246   4.442  1.00  0.00     0.180 A 
HETATM   19  N   UNL     1      44.074 -19.625   3.190  1.00  0.00    -0.226 NA
HETATM   20  C   UNL     1      44.431 -20.955   3.181  1.00  0.00     0.063 A 
HETATM   21  C   UNL     1      44.374 -21.754   1.940  1.00  0.00     0.073 C 
HETATM   22  C   UNL     1      44.812 -21.337   4.450  1.00  0.00     0.076 A 
HETATM   23  O   UNL     1      44.708 -20.246   5.265  1.00  0.00    -0.294 OA
HETATM   24  C   UNL     1      45.282 -22.591   5.058  1.00  0.00     0.079 C 
ENDBRANCH   1  18
TORSDOF 4
ENDMDL
MODEL 7
REMARK VINA RESULT:      -7.4      4.292      6.381
REMARK  4 active torsions:
REMARK  status: ('A' for Active; 'I' for Inactive)
REMARK    1  A    between atoms: C_4  and  C_5 
REMARK    2  A    between atoms: C_7  and  N_8 
REMARK       I    between atoms: N_8  and  C_9 
REMARK    3  A    between atoms: C_9  and  C_10 
REMARK    4  A    between atoms: C_10  and  C_11 
ROOT
HETATM    1  C   UNL     1      43.241 -18.018   4.529  1.00  0.00     0.019 A 
HETATM    2  C   UNL     1      42.070 -17.600   3.872  1.00  0.00     0.045 A 
HETATM    3  C   UNL     1      41.539 -16.324   4.086  1.00  0.00     0.035 A 
HETATM    4  C   UNL     1      42.192 -15.457   4.972  1.00  0.00     0.029 A 
HETATM    5  C   UNL     1      43.357 -15.855   5.628  1.00  0.00     0.003 A 
HETATM    6  C   UNL     1      43.876 -17.128   5.408  1.00  0.00     0.016 A 
ENDROOT
BRANCH   3   7
HETATM    7  N   UNL     1      40.367 -15.835   3.468  1.00  0.00    -0.327 N 
HETATM    8  C   UNL     1      40.130 -15.655   2.111  1.00  0.00     0.227 C 
HETATM    9  O   UNL     1      40.934 -15.870   1.207  1.00  0.00    -0.273 OA
HETATM   10  H   UNL     1      39.620 -15.573   4.099  1.00  0.00     0.169 HD
BRANCH   8  11
HETATM   11  C   UNL     1      38.735 -15.075   1.846  1.00  0.00     0.159 C 
BRANCH  11  12
HETATM   12  C   UNL     1      38.659 -14.186   0.642  1.00  0.00     0.017 A 
HETATM   13  N   UNL     1      39.236 -14.507  -0.568  1.00  0.00    -0.369 N 
HETATM   14  H   UNL     1      39.721 -15.380  -0.756  1.00  0.00     0.165 HD
HETATM   15  C   UNL     1      39.028 -13.493  -1.464  1.00  0.00     0.088 A 
HETATM   16  C   UNL     1      38.312 -12.505  -0.830  1.00  0.00     0.019 A 
HETATM   17  C   UNL     1      38.079 -12.939   0.496  1.00  0.00     0.027 A 
ENDBRANCH  11  12
ENDBRANCH   8  11
ENDBRANCH   3   7
BRANCH   1  18
HETATM   18  C   UNL     1      43.812 -19.349   4.330  1.00  0.00     0.180 A 
HETATM   19  N   UNL     1      44.334 -20.171   5.222  1.00  0.00    -0.226 NA
HETATM   20  C   UNL     1      44.709 -21.274   4.490  1.00  0.00     0.063 A 
HETATM   21  C   UNL     1      45.336 -22.445   5.136  1.00  0.00     0.073 C 
HETATM   22  C   UNL     1      44.404 -21.069   3.161  1.00  0.00     0.076 A 
HETATM   23  O   UNL     1      43.824 -19.837   3.050  1.00  0.00    -0.294 OA
HETATM   24  C   UNL     1      44.558 -21.856   1.927  1.00  0.00     0.079 C 
ENDBRANCH   1  18
TORSDOF 4
ENDMDL
MODEL 8
REMARK VINA RESULT:      -7.3      3.147      9.080
REMARK  4 active torsions:
REMARK  status: ('A' for Active; 'I' for Inactive)
REMARK    1  A    between atoms: C_4  and  C_5 
REMARK    2  A    between atoms: C_7  and  N_8 
REMARK       I    between atoms: N_8  and  C_9 
REMARK    3  A    between atoms: C_9  and  C_10 
REMARK    4  A    between atoms: C_10  and  C_11 
ROOT
HETATM    1  C   UNL     1      44.708 -11.635   9.938  1.00  0.00     0.019 A 
HETATM    2  C   UNL     1      44.258 -12.683   9.115  1.00  0.00     0.045 A 
HETATM    3  C   UNL     1      45.018 -13.121   8.025  1.00  0.00     0.035 A 
HETATM    4  C   UNL     1      46.245 -12.498   7.759  1.00  0.00     0.029 A 
HETATM    5  C   UNL     1      46.707 -11.460   8.568  1.00  0.00     0.003 A 
HETATM    6  C   UNL     1      45.941 -11.032   9.650  1.00  0.00     0.016 A 
ENDROOT
BRANCH   3   7
HETATM    7  N   UNL     1      44.633 -14.161   7.152  1.00  0.00    -0.327 N 
HETATM    8  C   UNL     1      43.619 -14.146   6.202  1.00  0.00     0.227 C 
HETATM    9  O   UNL     1      42.853 -13.210   5.985  1.00  0.00    -0.273 OA
HETATM   10  H   UNL     1      45.155 -15.023   7.245  1.00  0.00     0.169 HD
BRANCH   8  11
HETATM   11  C   UNL     1      43.499 -15.489   5.471  1.00  0.00     0.159 C 
BRANCH  11  12
HETATM   12  C   UNL     1      43.762 -16.684   6.336  1.00  0.00     0.017 A 
HETATM   13  N   UNL     1      42.974 -17.019   7.415  1.00  0.00    -0.369 N 
HETATM   14  H   UNL     1      42.135 -16.515   7.689  1.00  0.00     0.165 HD
HETATM   15  C   UNL     1      43.476 -18.136   8.027  1.00  0.00     0.088 A 
HETATM   16  C   UNL     1      44.601 -18.528   7.341  1.00  0.00     0.019 A 
HETATM   17  C   UNL     1      44.783 -17.615   6.275  1.00  0.00     0.027 A 
ENDBRANCH  11  12
ENDBRANCH   8  11
ENDBRANCH   3   7
BRANCH   1  18
HETATM   18  C   UNL     1      43.930 -11.152  11.078  1.00  0.00     0.180 A 
HETATM   19  N   UNL     1      44.271 -10.274  12.004  1.00  0.00    -0.226 NA
HETATM   20  C   UNL     1      43.165 -10.196  12.821  1.00  0.00     0.063 A 
HETATM   21  C   UNL     1      43.142  -9.297  13.993  1.00  0.00     0.073 C 
HETATM   22  C   UNL     1      42.189 -11.050  12.355  1.00  0.00     0.076 A 
HETATM   23  O   UNL     1      42.670 -11.665  11.234  1.00  0.00    -0.294 OA
HETATM   24  C   UNL     1      40.827 -11.403  12.787  1.00  0.00     0.079 C 
ENDBRANCH   1  18
TORSDOF 4
ENDMDL
MODEL 9
REMARK VINA RESULT:      -7.3      4.603      6.156
REMARK  4 active torsions:
REMARK  status: ('A' for Active; 'I' for Inactive)
REMARK    1  A    between atoms: C_4  and  C_5 
REMARK    2  A    between atoms: C_7  and  N_8 
REMARK       I    between atoms: N_8  and  C_9 
REMARK    3  A    between atoms: C_9  and  C_10 
REMARK    4  A    between atoms: C_10  and  C_11 
ROOT
HETATM    1  C   UNL     1      43.702 -17.661   4.134  1.00  0.00     0.019 A 
HETATM    2  C   UNL     1      43.505 -16.671   3.155  1.00  0.00     0.045 A 
HETATM    3  C   UNL     1      43.194 -15.355   3.513  1.00  0.00     0.035 A 
HETATM    4  C   UNL     1      43.079 -15.030   4.871  1.00  0.00     0.029 A 
HETATM    5  C   UNL     1      43.276 -16.000   5.854  1.00  0.00     0.003 A 
HETATM    6  C   UNL     1      43.583 -17.307   5.486  1.00  0.00     0.016 A 
ENDROOT
BRANCH   3   7
HETATM    7  N   UNL     1      42.979 -14.308   2.590  1.00  0.00    -0.327 N 
HETATM    8  C   UNL     1      41.812 -14.009   1.898  1.00  0.00     0.227 C 
HETATM    9  O   UNL     1      40.761 -14.643   1.954  1.00  0.00    -0.273 OA
HETATM   10  H   UNL     1      43.780 -13.717   2.408  1.00  0.00     0.169 HD
BRANCH   8  11
HETATM   11  C   UNL     1      41.992 -12.804   0.967  1.00  0.00     0.159 C 
BRANCH  11  12
HETATM   12  C   UNL     1      41.874 -13.131  -0.491  1.00  0.00     0.017 A 
HETATM   13  N   UNL     1      41.170 -14.218  -0.963  1.00  0.00    -0.369 N 
HETATM   14  H   UNL     1      40.644 -14.858  -0.374  1.00  0.00     0.165 HD
HETATM   15  C   UNL     1      41.266 -14.275  -2.327  1.00  0.00     0.088 A 
HETATM   16  C   UNL     1      42.041 -13.219  -2.744  1.00  0.00     0.019 A 
HETATM   17  C   UNL     1      42.426 -12.497  -1.589  1.00  0.00     0.027 A 
ENDBRANCH  11  12
ENDBRANCH   8  11
ENDBRANCH   3   7
BRANCH   1  18
HETATM   18  C   UNL     1      44.019 -19.046   3.788  1.00  0.00     0.180 A 
HETATM   19  N   UNL     1      43.987 -19.634   2.606  1.00  0.00    -0.226 NA
HETATM   20  C   UNL     1      44.380 -20.929   2.860  1.00  0.00     0.063 A 
HETATM   21  C   UNL     1      44.486 -21.924   1.774  1.00  0.00     0.073 C 
HETATM   22  C   UNL     1      44.627 -21.077   4.208  1.00  0.00     0.076 A 
HETATM   23  O   UNL     1      44.402 -19.873   4.811  1.00  0.00    -0.294 OA
HETATM   24  C   UNL     1      45.062 -22.191   5.067  1.00  0.00     0.079 C 
ENDBRANCH   1  18
TORSDOF 4
ENDMDL
MODEL 10
REMARK VINA RESULT:      -7.1      5.110      7.562
REMARK  4 active torsions:
REMARK  status: ('A' for Active; 'I' for Inactive)
REMARK    1  A    between atoms: C_4  and  C_5 
REMARK    2  A    between atoms: C_7  and  N_8 
REMARK       I    between atoms: N_8  and  C_9 
REMARK    3  A    between atoms: C_9  and  C_10 
REMARK    4  A    between atoms: C_10  and  C_11 
ROOT
HETATM    1  C   UNL     1      43.345 -17.876   3.666  1.00  0.00     0.019 A 
HETATM    2  C   UNL     1      42.710 -16.754   3.103  1.00  0.00     0.045 A 
HETATM    3  C   UNL     1      42.667 -16.569   1.717  1.00  0.00     0.035 A 
HETATM    4  C   UNL     1      43.270 -17.523   0.887  1.00  0.00     0.029 A 
HETATM    5  C   UNL     1      43.900 -18.643   1.429  1.00  0.00     0.003 A 
HETATM    6  C   UNL     1      43.938 -18.816   2.810  1.00  0.00     0.016 A 
ENDROOT
BRANCH   3   7
HETATM    7  N   UNL     1      42.054 -15.469   1.079  1.00  0.00    -0.327 N 
HETATM    8  C   UNL     1      40.707 -15.127   1.075  1.00  0.00     0.227 C 
HETATM    9  O   UNL     1      39.804 -15.762   1.615  1.00  0.00    -0.273 OA
HETATM   10  H   UNL     1      42.677 -14.869   0.552  1.00  0.00     0.169 HD
BRANCH   8  11
HETATM   11  C   UNL     1      40.439 -13.869   0.240  1.00  0.00     0.159 C 
BRANCH  11  12
HETATM   12  C   UNL     1      40.438 -14.104  -1.240  1.00  0.00     0.017 A 
HETATM   13  N   UNL     1      39.400 -14.721  -1.904  1.00  0.00    -0.369 N 
HETATM   14  H   UNL     1      38.540 -15.029  -1.459  1.00  0.00     0.165 HD
HETATM   15  C   UNL     1      39.697 -14.821  -3.236  1.00  0.00     0.088 A 
HETATM   16  C   UNL     1      40.938 -14.267  -3.439  1.00  0.00     0.019 A 
HETATM   17  C   UNL     1      41.408 -13.814  -2.183  1.00  0.00     0.027 A 
ENDBRANCH  11  12
ENDBRANCH   8  11
ENDBRANCH   3   7
BRANCH   1  18
HETATM   18  C   UNL     1      43.412 -18.088   5.111  1.00  0.00     0.180 A 
HETATM   19  N   UNL     1      43.373 -17.197   6.084  1.00  0.00    -0.226 NA
HETATM   20  C   UNL     1      43.470 -17.946   7.235  1.00  0.00     0.063 A 
HETATM   21  C   UNL     1      43.452 -17.308   8.567  1.00  0.00     0.073 C 
HETATM   22  C   UNL     1      43.577 -19.280   6.907  1.00  0.00     0.076 A 
HETATM   23  O   UNL     1      43.536 -19.382   5.546  1.00  0.00    -0.294 OA
HETATM   24  C   UNL     1      43.708 -20.530   7.673  1.00  0.00     0.079 C 
ENDBRANCH   1  18
TORSDOF 4
ENDMDL
