MODEL 1
REMARK VINA RESULT:      -8.1      0.000      0.000
REMARK  8 active torsions:
REMARK  status: ('A' for Active; 'I' for Inactive)
REMARK    1  A    between atoms: O_2  and  C_3 
REMARK    2  A    between atoms: C_3  and  C_4 
REMARK    3  A    between atoms: C_4  and  N_5 
REMARK    4  A    between atoms: N_5  and  C_6 
REMARK       I    between atoms: N_5  and  C_15 
REMARK    5  A    between atoms: C_6  and  C_7 
REMARK    6  A    between atoms: C_11  and  O_12 
REMARK    7  A    between atoms: C_15  and  C_17 
REMARK    8  A    between atoms: C_22  and  C_26 
ROOT
HETATM    1  N   UNL     1      40.718 -13.228   3.415  1.00  0.00    -0.340 N 
HETATM    2  C   UNL     1      41.973 -13.578   3.964  1.00  0.00     0.279 C 
HETATM    3  O   UNL     1      42.589 -12.760   4.650  1.00  0.00    -0.265 OA
ENDROOT
BRANCH   2   4
HETATM    4  C   UNL     1      42.531 -14.916   3.714  1.00  0.00     0.166 A 
HETATM    5  N   UNL     1      43.014 -15.343   2.565  1.00  0.00    -0.235 NA
HETATM    6  C   UNL     1      43.409 -16.664   2.675  1.00  0.00     0.075 A 
HETATM    7  C   UNL     1      43.936 -17.462   1.642  1.00  0.00     0.034 A 
HETATM    8  C   UNL     1      43.242 -17.233   3.938  1.00  0.00     0.036 A 
HETATM    9  C   UNL     1      44.264 -18.802   1.894  1.00  0.00     0.014 A 
HETATM   10  C   UNL     1      44.083 -19.365   3.162  1.00  0.00    -0.022 A 
HETATM   11  C   UNL     1      43.573 -18.574   4.203  1.00  0.00     0.033 A 
HETATM   12  S   UNL     1      42.597 -16.050   5.004  1.00  0.00    -0.063 SA
BRANCH  10  13
HETATM   13  C   UNL     1      44.396 -20.762   3.416  1.00  0.00     0.010 A 
HETATM   14  C   UNL     1      44.380 -21.884   2.553  1.00  0.00     0.152 A 
HETATM   15  N   UNL     1      44.721 -23.017   3.170  1.00  0.00    -0.187 NA
HETATM   16  N   UNL     1      44.952 -22.630   4.433  1.00  0.00    -0.289 N 
HETATM   17  H   UNL     1      45.227 -23.334   5.110  1.00  0.00     0.188 HD
HETATM   18  C   UNL     1      44.773 -21.290   4.632  1.00  0.00     0.123 A 
ENDBRANCH  10  13
ENDBRANCH   2   4
BRANCH   1  19
HETATM   19  C   UNL     1      40.125 -11.903   3.665  1.00  0.00     0.152 C 
BRANCH  19  20
HETATM   20  C   UNL     1      38.733 -11.811   4.301  1.00  0.00     0.187 C 
BRANCH  20  21
HETATM   21  O   UNL     1      38.842 -12.148   5.690  1.00  0.00    -0.394 OA
HETATM   22  C   UNL     1      39.771 -11.301   6.357  1.00  0.00     0.201 C 
ENDBRANCH  20  21
ENDBRANCH  19  20
ENDBRANCH   1  19
BRANCH   1  23
HETATM   23  C   UNL     1      39.763 -14.242   2.949  1.00  0.00     0.164 C 
BRANCH  23  24
HETATM   24  C   UNL     1      39.380 -14.162   1.487  1.00  0.00    -0.038 A 
HETATM   25  C   UNL     1      38.084 -13.864   1.049  1.00  0.00     0.009 A 
HETATM   26  C   UNL     1      37.797 -13.789  -0.314  1.00  0.00     0.003 A 
HETATM   27  C   UNL     1      38.807 -13.995  -1.254  1.00  0.00     0.037 A 
HETATM   28  C   UNL     1      40.110 -14.274  -0.842  1.00  0.00     0.068 A 
HETATM   29  C   UNL     1      40.390 -14.356   0.523  1.00  0.00     0.045 A 
BRANCH  28  30
HETATM   30  O   UNL     1      41.009 -14.444  -1.861  1.00  0.00    -0.356 OA
HETATM   31  C   UNL     1      40.776 -15.528  -2.751  1.00  0.00     0.210 C 
ENDBRANCH  28  30
ENDBRANCH  23  24
ENDBRANCH   1  23
TORSDOF 8
ENDMDL
MODEL 2
REMARK VINA RESULT:      -7.8      3.497      7.827
REMARK  8 active torsions:
REMARK  status: ('A' for Active; 'I' for Inactive)
REMARK    1  A    between atoms: O_2  and  C_3 
REMARK    2  A    between atoms: C_3  and  C_4 
REMARK    3  A    between atoms: C_4  and  N_5 
REMARK    4  A    between atoms: N_5  and  C_6 
REMARK       I    between atoms: N_5  and  C_15 
REMARK    5  A    between atoms: C_6  and  C_7 
REMARK    6  A    between atoms: C_11  and  O_12 
REMARK    7  A    between atoms: C_15  and  C_17 
REMARK    8  A    between atoms: C_22  and  C_26 
ROOT
HETATM    1  N   UNL     1      42.267 -16.594   5.401  1.00  0.00    -0.340 N 
HETATM    2  C   UNL     1      41.200 -15.833   4.873  1.00  0.00     0.279 C 
HETATM    3  O   UNL     1      40.285 -15.466   5.615  1.00  0.00    -0.265 OA
ENDROOT
BRANCH   2   4
HETATM    4  C   UNL     1      41.189 -15.483   3.445  1.00  0.00     0.166 A 
HETATM    5  N   UNL     1      40.974 -16.322   2.451  1.00  0.00    -0.235 NA
HETATM    6  C   UNL     1      41.086 -15.664   1.240  1.00  0.00     0.075 A 
HETATM    7  C   UNL     1      40.958 -16.247  -0.035  1.00  0.00     0.034 A 
HETATM    8  C   UNL     1      41.366 -14.301   1.324  1.00  0.00     0.036 A 
HETATM    9  C   UNL     1      41.129 -15.459  -1.183  1.00  0.00     0.014 A 
HETATM   10  C   UNL     1      41.420 -14.093  -1.086  1.00  0.00    -0.022 A 
HETATM   11  C   UNL     1      41.533 -13.500   0.181  1.00  0.00     0.033 A 
HETATM   12  S   UNL     1      41.459 -13.851   2.980  1.00  0.00    -0.063 SA
BRANCH  10  13
HETATM   13  C   UNL     1      41.626 -13.282  -2.274  1.00  0.00     0.010 A 
HETATM   14  C   UNL     1      40.709 -12.822  -3.249  1.00  0.00     0.152 A 
HETATM   15  N   UNL     1      41.292 -12.104  -4.211  1.00  0.00    -0.187 NA
HETATM   16  N   UNL     1      42.587 -12.104  -3.861  1.00  0.00    -0.289 N 
HETATM   17  H   UNL     1      43.247 -11.614  -4.458  1.00  0.00     0.188 HD
HETATM   18  C   UNL     1      42.839 -12.794  -2.709  1.00  0.00     0.123 A 
ENDBRANCH  10  13
ENDBRANCH   2   4
BRANCH   1  19
HETATM   19  C   UNL     1      42.314 -16.942   6.832  1.00  0.00     0.152 C 
BRANCH  19  20
HETATM   20  C   UNL     1      43.495 -16.459   7.684  1.00  0.00     0.187 C 
BRANCH  20  21
HETATM   21  O   UNL     1      43.627 -17.330   8.816  1.00  0.00    -0.394 OA
HETATM   22  C   UNL     1      44.140 -18.601   8.433  1.00  0.00     0.201 C 
ENDBRANCH  20  21
ENDBRANCH  19  20
ENDBRANCH   1  19
BRANCH   1  23
HETATM   23  C   UNL     1      43.554 -16.716   4.705  1.00  0.00     0.164 C 
BRANCH  23  24
HETATM   24  C   UNL     1      43.814 -18.045   4.030  1.00  0.00    -0.038 A 
HETATM   25  C   UNL     1      43.522 -18.291   2.682  1.00  0.00     0.009 A 
HETATM   26  C   UNL     1      43.800 -19.534   2.113  1.00  0.00     0.003 A 
HETATM   27  C   UNL     1      44.387 -20.539   2.881  1.00  0.00     0.037 A 
HETATM   28  C   UNL     1      44.705 -20.313   4.219  1.00  0.00     0.068 A 
HETATM   29  C   UNL     1      44.417 -19.070   4.787  1.00  0.00     0.045 A 
BRANCH  28  30
HETATM   30  O   UNL     1      45.287 -21.374   4.858  1.00  0.00    -0.356 OA
HETATM   31  C   UNL     1      44.700 -22.653   4.649  1.00  0.00     0.210 C 
ENDBRANCH  28  30
ENDBRANCH  23  24
ENDBRANCH   1  23
TORSDOF 8
ENDMDL
MODEL 3
REMARK VINA RESULT:      -7.7      1.160      1.515
REMARK  8 active torsions:
REMARK  status: ('A' for Active; 'I' for Inactive)
REMARK    1  A    between atoms: O_2  and  C_3 
REMARK    2  A    between atoms: C_3  and  C_4 
REMARK    3  A    between atoms: C_4  and  N_5 
REMARK    4  A    between atoms: N_5  and  C_6 
REMARK       I    between atoms: N_5  and  C_15 
REMARK    5  A    between atoms: C_6  and  C_7 
REMARK    6  A    between atoms: C_11  and  O_12 
REMARK    7  A    between atoms: C_15  and  C_17 
REMARK    8  A    between atoms: C_22  and  C_26 
ROOT
HETATM    1  N   UNL     1      39.942 -13.379   3.198  1.00  0.00    -0.340 N 
HETATM    2  C   UNL     1      41.129 -13.683   3.902  1.00  0.00     0.279 C 
HETATM    3  O   UNL     1      41.556 -12.894   4.750  1.00  0.00    -0.265 OA
ENDROOT
BRANCH   2   4
HETATM    4  C   UNL     1      41.844 -14.937   3.622  1.00  0.00     0.166 A 
HETATM    5  N   UNL     1      42.616 -15.163   2.578  1.00  0.00    -0.235 NA
HETATM    6  C   UNL     1      43.087 -16.463   2.605  1.00  0.00     0.075 A 
HETATM    7  C   UNL     1      43.906 -17.069   1.635  1.00  0.00     0.034 A 
HETATM    8  C   UNL     1      42.682 -17.221   3.704  1.00  0.00     0.036 A 
HETATM    9  C   UNL     1      44.282 -18.413   1.780  1.00  0.00     0.014 A 
HETATM   10  C   UNL     1      43.861 -19.167   2.881  1.00  0.00    -0.022 A 
HETATM   11  C   UNL     1      43.057 -18.567   3.862  1.00  0.00     0.033 A 
HETATM   12  S   UNL     1      41.707 -16.245   4.728  1.00  0.00    -0.063 SA
BRANCH  10  13
HETATM   13  C   UNL     1      44.226 -20.567   3.017  1.00  0.00     0.010 A 
HETATM   14  C   UNL     1      44.217 -21.620   2.071  1.00  0.00     0.152 A 
HETATM   15  N   UNL     1      44.614 -22.785   2.588  1.00  0.00    -0.187 NA
HETATM   16  N   UNL     1      44.874 -22.487   3.869  1.00  0.00    -0.289 N 
HETATM   17  H   UNL     1      45.194 -23.231   4.481  1.00  0.00     0.188 HD
HETATM   18  C   UNL     1      44.659 -21.173   4.176  1.00  0.00     0.123 A 
ENDBRANCH  10  13
ENDBRANCH   2   4
BRANCH   1  19
HETATM   19  C   UNL     1      39.194 -12.140   3.473  1.00  0.00     0.152 C 
BRANCH  19  20
HETATM   20  C   UNL     1      39.288 -10.970   2.485  1.00  0.00     0.187 C 
BRANCH  20  21
HETATM   21  O   UNL     1      40.658 -10.816   2.090  1.00  0.00    -0.394 OA
HETATM   22  C   UNL     1      40.803 -10.920   0.678  1.00  0.00     0.201 C 
ENDBRANCH  20  21
ENDBRANCH  19  20
ENDBRANCH   1  19
BRANCH   1  23
HETATM   23  C   UNL     1      39.168 -14.412   2.498  1.00  0.00     0.164 C 
BRANCH  23  24
HETATM   24  C   UNL     1      39.077 -14.259   0.994  1.00  0.00    -0.038 A 
HETATM   25  C   UNL     1      37.934 -13.786   0.339  1.00  0.00     0.009 A 
HETATM   26  C   UNL     1      37.918 -13.652  -1.050  1.00  0.00     0.003 A 
HETATM   27  C   UNL     1      39.051 -13.975  -1.796  1.00  0.00     0.037 A 
HETATM   28  C   UNL     1      40.208 -14.430  -1.165  1.00  0.00     0.068 A 
HETATM   29  C   UNL     1      40.217 -14.570   0.224  1.00  0.00     0.045 A 
BRANCH  28  30
HETATM   30  O   UNL     1      41.253 -14.701  -2.008  1.00  0.00    -0.356 OA
HETATM   31  C   UNL     1      41.161 -14.189  -3.332  1.00  0.00     0.210 C 
ENDBRANCH  28  30
ENDBRANCH  23  24
ENDBRANCH   1  23
TORSDOF 8
ENDMDL
MODEL 4
REMARK VINA RESULT:      -7.6      3.412      8.082
REMARK  8 active torsions:
REMARK  status: ('A' for Active; 'I' for Inactive)
REMARK    1  A    between atoms: O_2  and  C_3 
REMARK    2  A    between atoms: C_3  and  C_4 
REMARK    3  A    between atoms: C_4  and  N_5 
REMARK    4  A    between atoms: N_5  and  C_6 
REMARK       I    between atoms: N_5  and  C_15 
REMARK    5  A    between atoms: C_6  and  C_7 
REMARK    6  A    between atoms: C_11  and  O_12 
REMARK    7  A    between atoms: C_15  and  C_17 
REMARK    8  A    between atoms: C_22  and  C_26 
ROOT
HETATM    1  N   UNL     1      42.438 -15.382   3.830  1.00  0.00    -0.340 N 
HETATM    2  C   UNL     1      42.623 -14.443   2.790  1.00  0.00     0.279 C 
HETATM    3  O   UNL     1      43.488 -13.570   2.901  1.00  0.00    -0.265 OA
ENDROOT
BRANCH   2   4
HETATM    4  C   UNL     1      41.785 -14.516   1.584  1.00  0.00     0.166 A 
HETATM    5  N   UNL     1      42.087 -15.168   0.479  1.00  0.00    -0.235 NA
HETATM    6  C   UNL     1      41.097 -14.982  -0.470  1.00  0.00     0.075 A 
HETATM    7  C   UNL     1      41.098 -15.495  -1.780  1.00  0.00     0.034 A 
HETATM    8  C   UNL     1      40.020 -14.196  -0.062  1.00  0.00     0.036 A 
HETATM    9  C   UNL     1      40.036 -15.197  -2.647  1.00  0.00     0.014 A 
HETATM   10  C   UNL     1      38.964 -14.399  -2.229  1.00  0.00    -0.022 A 
HETATM   11  C   UNL     1      38.947 -13.896  -0.919  1.00  0.00     0.033 A 
HETATM   12  S   UNL     1      40.266 -13.712   1.569  1.00  0.00    -0.063 SA
BRANCH  10  13
HETATM   13  C   UNL     1      37.878 -14.066  -3.135  1.00  0.00     0.010 A 
HETATM   14  C   UNL     1      37.282 -12.819  -3.444  1.00  0.00     0.152 A 
HETATM   15  N   UNL     1      36.287 -12.925  -4.328  1.00  0.00    -0.187 NA
HETATM   16  N   UNL     1      36.235 -14.240  -4.586  1.00  0.00    -0.289 N 
HETATM   17  H   UNL     1      35.536 -14.574  -5.241  1.00  0.00     0.188 HD
HETATM   18  C   UNL     1      37.167 -14.966  -3.899  1.00  0.00     0.123 A 
ENDBRANCH  10  13
ENDBRANCH   2   4
BRANCH   1  19
HETATM   19  C   UNL     1      43.277 -15.345   5.041  1.00  0.00     0.152 C 
BRANCH  19  20
HETATM   20  C   UNL     1      42.627 -15.563   6.413  1.00  0.00     0.187 C 
BRANCH  20  21
HETATM   21  O   UNL     1      43.631 -16.027   7.325  1.00  0.00    -0.394 OA
HETATM   22  C   UNL     1      43.209 -17.205   8.003  1.00  0.00     0.201 C 
ENDBRANCH  20  21
ENDBRANCH  19  20
ENDBRANCH   1  19
BRANCH   1  23
HETATM   23  C   UNL     1      41.743 -16.656   3.613  1.00  0.00     0.164 C 
BRANCH  23  24
HETATM   24  C   UNL     1      42.630 -17.847   3.317  1.00  0.00    -0.038 A 
HETATM   25  C   UNL     1      42.998 -18.225   2.020  1.00  0.00     0.009 A 
HETATM   26  C   UNL     1      43.833 -19.324   1.813  1.00  0.00     0.003 A 
HETATM   27  C   UNL     1      44.320 -20.047   2.902  1.00  0.00     0.037 A 
HETATM   28  C   UNL     1      43.983 -19.678   4.204  1.00  0.00     0.068 A 
HETATM   29  C   UNL     1      43.141 -18.583   4.406  1.00  0.00     0.045 A 
BRANCH  28  30
HETATM   30  O   UNL     1      44.535 -20.460   5.183  1.00  0.00    -0.356 OA
HETATM   31  C   UNL     1      44.949 -21.768   4.805  1.00  0.00     0.210 C 
ENDBRANCH  28  30
ENDBRANCH  23  24
ENDBRANCH   1  23
TORSDOF 8
ENDMDL
MODEL 5
REMARK VINA RESULT:      -7.3      3.372      7.660
REMARK  8 active torsions:
REMARK  status: ('A' for Active; 'I' for Inactive)
REMARK    1  A    between atoms: O_2  and  C_3 
REMARK    2  A    between atoms: C_3  and  C_4 
REMARK    3  A    between atoms: C_4  and  N_5 
REMARK    4  A    between atoms: N_5  and  C_6 
REMARK       I    between atoms: N_5  and  C_15 
REMARK    5  A    between atoms: C_6  and  C_7 
REMARK    6  A    between atoms: C_11  and  O_12 
REMARK    7  A    between atoms: C_15  and  C_17 
REMARK    8  A    between atoms: C_22  and  C_26 
ROOT
HETATM    1  N   UNL     1      42.479 -17.059   5.866  1.00  0.00    -0.340 N 
HETATM    2  C   UNL     1      41.430 -16.218   5.430  1.00  0.00     0.279 C 
HETATM    3  O   UNL     1      40.532 -15.903   6.216  1.00  0.00    -0.265 OA
ENDROOT
BRANCH   2   4
HETATM    4  C   UNL     1      41.418 -15.722   4.046  1.00  0.00     0.166 A 
HETATM    5  N   UNL     1      41.865 -14.548   3.647  1.00  0.00    -0.235 NA
HETATM    6  C   UNL     1      41.653 -14.393   2.289  1.00  0.00     0.075 A 
HETATM    7  C   UNL     1      41.967 -13.253   1.526  1.00  0.00     0.034 A 
HETATM    8  C   UNL     1      41.060 -15.481   1.650  1.00  0.00     0.036 A 
HETATM    9  C   UNL     1      41.665 -13.226   0.156  1.00  0.00     0.014 A 
HETATM   10  C   UNL     1      41.060 -14.320  -0.473  1.00  0.00    -0.022 A 
HETATM   11  C   UNL     1      40.758 -15.467   0.277  1.00  0.00     0.033 A 
HETATM   12  S   UNL     1      40.795 -16.730   2.800  1.00  0.00    -0.063 SA
BRANCH  10  13
HETATM   13  C   UNL     1      40.720 -14.281  -1.885  1.00  0.00     0.010 A 
HETATM   14  C   UNL     1      40.721 -15.304  -2.864  1.00  0.00     0.152 A 
HETATM   15  N   UNL     1      40.355 -14.867  -4.071  1.00  0.00    -0.187 NA
HETATM   16  N   UNL     1      40.123 -13.561  -3.874  1.00  0.00    -0.289 N 
HETATM   17  H   UNL     1      39.830 -12.999  -4.668  1.00  0.00     0.188 HD
HETATM   18  C   UNL     1      40.326 -13.161  -2.584  1.00  0.00     0.123 A 
ENDBRANCH  10  13
ENDBRANCH   2   4
BRANCH   1  19
HETATM   19  C   UNL     1      42.526 -17.553   7.253  1.00  0.00     0.152 C 
BRANCH  19  20
HETATM   20  C   UNL     1      43.451 -16.864   8.264  1.00  0.00     0.187 C 
BRANCH  20  21
HETATM   21  O   UNL     1      44.179 -17.873   8.978  1.00  0.00    -0.394 OA
HETATM   22  C   UNL     1      44.040 -19.146   8.359  1.00  0.00     0.201 C 
ENDBRANCH  20  21
ENDBRANCH  19  20
ENDBRANCH   1  19
BRANCH   1  23
HETATM   23  C   UNL     1      43.756 -17.144   5.147  1.00  0.00     0.164 C 
BRANCH  23  24
HETATM   24  C   UNL     1      44.129 -18.517   4.631  1.00  0.00    -0.038 A 
HETATM   25  C   UNL     1      45.017 -19.372   5.295  1.00  0.00     0.009 A 
HETATM   26  C   UNL     1      45.309 -20.633   4.776  1.00  0.00     0.003 A 
HETATM   27  C   UNL     1      44.703 -21.060   3.594  1.00  0.00     0.037 A 
HETATM   28  C   UNL     1      43.800 -20.235   2.924  1.00  0.00     0.068 A 
HETATM   29  C   UNL     1      43.518 -18.970   3.443  1.00  0.00     0.045 A 
BRANCH  28  30
HETATM   30  O   UNL     1      43.267 -20.775   1.785  1.00  0.00    -0.356 OA
HETATM   31  C   UNL     1      43.937 -21.901   1.231  1.00  0.00     0.210 C 
ENDBRANCH  28  30
ENDBRANCH  23  24
ENDBRANCH   1  23
TORSDOF 8
ENDMDL
MODEL 6
REMARK VINA RESULT:      -7.0      3.201      7.813
REMARK  8 active torsions:
REMARK  status: ('A' for Active; 'I' for Inactive)
REMARK    1  A    between atoms: O_2  and  C_3 
REMARK    2  A    between atoms: C_3  and  C_4 
REMARK    3  A    between atoms: C_4  and  N_5 
REMARK    4  A    between atoms: N_5  and  C_6 
REMARK       I    between atoms: N_5  and  C_15 
REMARK    5  A    between atoms: C_6  and  C_7 
REMARK    6  A    between atoms: C_11  and  O_12 
REMARK    7  A    between atoms: C_15  and  C_17 
REMARK    8  A    between atoms: C_22  and  C_26 
ROOT
HETATM    1  N   UNL     1      43.991 -19.010   3.534  1.00  0.00    -0.340 N 
HETATM    2  C   UNL     1      43.577 -18.684   4.845  1.00  0.00     0.279 C 
HETATM    3  O   UNL     1      43.682 -19.520   5.745  1.00  0.00    -0.265 OA
ENDROOT
BRANCH   2   4
HETATM    4  C   UNL     1      43.026 -17.349   5.126  1.00  0.00     0.166 A 
HETATM    5  N   UNL     1      41.776 -16.978   4.930  1.00  0.00    -0.235 NA
HETATM    6  C   UNL     1      41.619 -15.643   5.255  1.00  0.00     0.075 A 
HETATM    7  C   UNL     1      40.432 -14.895   5.137  1.00  0.00     0.034 A 
HETATM    8  C   UNL     1      42.766 -15.004   5.726  1.00  0.00     0.036 A 
HETATM    9  C   UNL     1      40.430 -13.534   5.476  1.00  0.00     0.014 A 
HETATM   10  C   UNL     1      41.589 -12.901   5.938  1.00  0.00    -0.022 A 
HETATM   11  C   UNL     1      42.773 -13.642   6.074  1.00  0.00     0.033 A 
HETATM   12  S   UNL     1      44.056 -16.139   5.780  1.00  0.00    -0.063 SA
BRANCH  10  13
HETATM   13  C   UNL     1      41.594 -11.484   6.262  1.00  0.00     0.010 A 
HETATM   14  C   UNL     1      41.861 -10.815   7.480  1.00  0.00     0.152 A 
HETATM   15  N   UNL     1      41.751  -9.489   7.379  1.00  0.00    -0.187 NA
HETATM   16  N   UNL     1      41.407  -9.300   6.097  1.00  0.00    -0.289 N 
HETATM   17  H   UNL     1      41.257  -8.349   5.773  1.00  0.00     0.188 HD
HETATM   18  C   UNL     1      41.301 -10.462   5.385  1.00  0.00     0.123 A 
ENDBRANCH  10  13
ENDBRANCH   2   4
BRANCH   1  19
HETATM   19  C   UNL     1      44.565 -20.332   3.228  1.00  0.00     0.152 C 
BRANCH  19  20
HETATM   20  C   UNL     1      43.880 -21.227   2.188  1.00  0.00     0.187 C 
BRANCH  20  21
HETATM   21  O   UNL     1      44.301 -22.580   2.401  1.00  0.00    -0.394 OA
HETATM   22  C   UNL     1      44.690 -22.794   3.754  1.00  0.00     0.201 C 
ENDBRANCH  20  21
ENDBRANCH  19  20
ENDBRANCH   1  19
BRANCH   1  23
HETATM   23  C   UNL     1      44.276 -17.978   2.529  1.00  0.00     0.164 C 
BRANCH  23  24
HETATM   24  C   UNL     1      43.068 -17.279   1.943  1.00  0.00    -0.038 A 
HETATM   25  C   UNL     1      41.893 -17.950   1.583  1.00  0.00     0.009 A 
HETATM   26  C   UNL     1      40.806 -17.246   1.064  1.00  0.00     0.003 A 
HETATM   27  C   UNL     1      40.878 -15.861   0.912  1.00  0.00     0.037 A 
HETATM   28  C   UNL     1      42.030 -15.168   1.281  1.00  0.00     0.068 A 
HETATM   29  C   UNL     1      43.118 -15.878   1.793  1.00  0.00     0.045 A 
BRANCH  28  30
HETATM   30  O   UNL     1      41.969 -13.813   1.094  1.00  0.00    -0.356 OA
HETATM   31  C   UNL     1      42.219 -12.994   2.230  1.00  0.00     0.210 C 
ENDBRANCH  28  30
ENDBRANCH  23  24
ENDBRANCH   1  23
TORSDOF 8
ENDMDL
MODEL 7
REMARK VINA RESULT:      -7.0      3.099      8.961
REMARK  8 active torsions:
REMARK  status: ('A' for Active; 'I' for Inactive)
REMARK    1  A    between atoms: O_2  and  C_3 
REMARK    2  A    between atoms: C_3  and  C_4 
REMARK    3  A    between atoms: C_4  and  N_5 
REMARK    4  A    between atoms: N_5  and  C_6 
REMARK       I    between atoms: N_5  and  C_15 
REMARK    5  A    between atoms: C_6  and  C_7 
REMARK    6  A    between atoms: C_11  and  O_12 
REMARK    7  A    between atoms: C_15  and  C_17 
REMARK    8  A    between atoms: C_22  and  C_26 
ROOT
HETATM    1  N   UNL     1      43.686 -18.587   3.044  1.00  0.00    -0.340 N 
HETATM    2  C   UNL     1      43.710 -17.557   2.077  1.00  0.00     0.279 C 
HETATM    3  O   UNL     1      44.365 -17.705   1.042  1.00  0.00    -0.265 OA
ENDROOT
BRANCH   2   4
HETATM    4  C   UNL     1      42.952 -16.319   2.311  1.00  0.00     0.166 A 
HETATM    5  N   UNL     1      43.374 -15.279   3.003  1.00  0.00    -0.235 NA
HETATM    6  C   UNL     1      42.387 -14.312   3.061  1.00  0.00     0.075 A 
HETATM    7  C   UNL     1      42.468 -13.085   3.745  1.00  0.00     0.034 A 
HETATM    8  C   UNL     1      41.210 -14.619   2.379  1.00  0.00     0.036 A 
HETATM    9  C   UNL     1      41.370 -12.211   3.743  1.00  0.00     0.014 A 
HETATM   10  C   UNL     1      40.190 -12.534   3.063  1.00  0.00    -0.022 A 
HETATM   11  C   UNL     1      40.106 -13.749   2.365  1.00  0.00     0.033 A 
HETATM   12  S   UNL     1      41.381 -16.156   1.630  1.00  0.00    -0.063 SA
BRANCH  10  13
HETATM   13  C   UNL     1      39.042 -11.643   3.085  1.00  0.00     0.010 A 
HETATM   14  C   UNL     1      38.193 -11.205   2.041  1.00  0.00     0.152 A 
HETATM   15  N   UNL     1      37.244 -10.366   2.462  1.00  0.00    -0.187 NA
HETATM   16  N   UNL     1      37.483 -10.257   3.777  1.00  0.00    -0.289 N 
HETATM   17  H   UNL     1      36.880  -9.653   4.327  1.00  0.00     0.188 HD
HETATM   18  C   UNL     1      38.547 -11.002   4.200  1.00  0.00     0.123 A 
ENDBRANCH  10  13
ENDBRANCH   2   4
BRANCH   1  19
HETATM   19  C   UNL     1      44.419 -19.846   2.828  1.00  0.00     0.152 C 
BRANCH  19  20
HETATM   20  C   UNL     1      43.862 -20.880   1.841  1.00  0.00     0.187 C 
BRANCH  20  21
HETATM   21  O   UNL     1      43.833 -22.159   2.488  1.00  0.00    -0.394 OA
HETATM   22  C   UNL     1      44.655 -22.170   3.649  1.00  0.00     0.201 C 
ENDBRANCH  20  21
ENDBRANCH  19  20
ENDBRANCH   1  19
BRANCH   1  23
HETATM   23  C   UNL     1      42.642 -18.663   4.074  1.00  0.00     0.164 C 
BRANCH  23  24
HETATM   24  C   UNL     1      43.111 -18.479   5.501  1.00  0.00    -0.038 A 
HETATM   25  C   UNL     1      43.421 -19.547   6.351  1.00  0.00     0.009 A 
HETATM   26  C   UNL     1      43.865 -19.312   7.652  1.00  0.00     0.003 A 
HETATM   27  C   UNL     1      44.017 -18.004   8.113  1.00  0.00     0.037 A 
HETATM   28  C   UNL     1      43.734 -16.923   7.280  1.00  0.00     0.068 A 
HETATM   29  C   UNL     1      43.282 -17.164   5.981  1.00  0.00     0.045 A 
BRANCH  28  30
HETATM   30  O   UNL     1      43.935 -15.693   7.847  1.00  0.00    -0.356 OA
HETATM   31  C   UNL     1      44.314 -14.635   6.975  1.00  0.00     0.210 C 
ENDBRANCH  28  30
ENDBRANCH  23  24
ENDBRANCH   1  23
TORSDOF 8
ENDMDL
MODEL 8
REMARK VINA RESULT:      -6.7      1.758      2.645
REMARK  8 active torsions:
REMARK  status: ('A' for Active; 'I' for Inactive)
REMARK    1  A    between atoms: O_2  and  C_3 
REMARK    2  A    between atoms: C_3  and  C_4 
REMARK    3  A    between atoms: C_4  and  N_5 
REMARK    4  A    between atoms: N_5  and  C_6 
REMARK       I    between atoms: N_5  and  C_15 
REMARK    5  A    between atoms: C_6  and  C_7 
REMARK    6  A    between atoms: C_11  and  O_12 
REMARK    7  A    between atoms: C_15  and  C_17 
REMARK    8  A    between atoms: C_22  and  C_26 
ROOT
HETATM    1  N   UNL     1      41.378 -13.513   1.028  1.00  0.00    -0.340 N 
HETATM    2  C   UNL     1      42.307 -13.729   2.071  1.00  0.00     0.279 C 
HETATM    3  O   UNL     1      42.876 -12.766   2.592  1.00  0.00    -0.265 OA
ENDROOT
BRANCH   2   4
HETATM    4  C   UNL     1      42.586 -15.098   2.529  1.00  0.00     0.166 A 
HETATM    5  N   UNL     1      42.440 -15.539   3.763  1.00  0.00    -0.235 NA
HETATM    6  C   UNL     1      42.841 -16.860   3.847  1.00  0.00     0.075 A 
HETATM    7  C   UNL     1      42.861 -17.648   5.013  1.00  0.00     0.034 A 
HETATM    8  C   UNL     1      43.273 -17.430   2.650  1.00  0.00     0.036 A 
HETATM    9  C   UNL     1      43.325 -18.971   4.953  1.00  0.00     0.014 A 
HETATM   10  C   UNL     1      43.765 -19.529   3.748  1.00  0.00    -0.022 A 
HETATM   11  C   UNL     1      43.734 -18.757   2.577  1.00  0.00     0.033 A 
HETATM   12  S   UNL     1      43.137 -16.265   1.394  1.00  0.00    -0.063 SA
BRANCH  10  13
HETATM   13  C   UNL     1      44.273 -20.890   3.691  1.00  0.00     0.010 A 
HETATM   14  C   UNL     1      44.323 -21.813   2.620  1.00  0.00     0.152 A 
HETATM   15  N   UNL     1      44.859 -22.985   2.970  1.00  0.00    -0.187 NA
HETATM   16  N   UNL     1      45.151 -22.821   4.269  1.00  0.00    -0.289 N 
HETATM   17  H   UNL     1      45.573 -23.597   4.769  1.00  0.00     0.188 HD
HETATM   18  C   UNL     1      44.821 -21.584   4.748  1.00  0.00     0.123 A 
ENDBRANCH  10  13
ENDBRANCH   2   4
BRANCH   1  19
HETATM   19  C   UNL     1      41.063 -12.151   0.564  1.00  0.00     0.152 C 
BRANCH  19  20
HETATM   20  C   UNL     1      40.254 -11.215   1.472  1.00  0.00     0.187 C 
BRANCH  20  21
HETATM   21  O   UNL     1      39.099 -11.923   1.942  1.00  0.00    -0.394 OA
HETATM   22  C   UNL     1      39.082 -11.997   3.363  1.00  0.00     0.201 C 
ENDBRANCH  20  21
ENDBRANCH  19  20
ENDBRANCH   1  19
BRANCH   1  23
HETATM   23  C   UNL     1      40.386 -14.527   0.649  1.00  0.00     0.164 C 
BRANCH  23  24
HETATM   24  C   UNL     1      40.189 -14.731  -0.838  1.00  0.00    -0.038 A 
HETATM   25  C   UNL     1      41.080 -15.457  -1.637  1.00  0.00     0.009 A 
HETATM   26  C   UNL     1      40.835 -15.624  -3.000  1.00  0.00     0.003 A 
HETATM   27  C   UNL     1      39.687 -15.078  -3.576  1.00  0.00     0.037 A 
HETATM   28  C   UNL     1      38.775 -14.367  -2.797  1.00  0.00     0.068 A 
HETATM   29  C   UNL     1      39.029 -14.196  -1.435  1.00  0.00     0.045 A 
BRANCH  28  30
HETATM   30  O   UNL     1      37.686 -13.894  -3.479  1.00  0.00    -0.356 OA
HETATM   31  C   UNL     1      37.473 -12.488  -3.457  1.00  0.00     0.210 C 
ENDBRANCH  28  30
ENDBRANCH  23  24
ENDBRANCH   1  23
TORSDOF 8
ENDMDL
MODEL 9
REMARK VINA RESULT:      -6.7      3.271      7.766
REMARK  8 active torsions:
REMARK  status: ('A' for Active; 'I' for Inactive)
REMARK    1  A    between atoms: O_2  and  C_3 
REMARK    2  A    between atoms: C_3  and  C_4 
REMARK    3  A    between atoms: C_4  and  N_5 
REMARK    4  A    between atoms: N_5  and  C_6 
REMARK       I    between atoms: N_5  and  C_15 
REMARK    5  A    between atoms: C_6  and  C_7 
REMARK    6  A    between atoms: C_11  and  O_12 
REMARK    7  A    between atoms: C_15  and  C_17 
REMARK    8  A    between atoms: C_22  and  C_26 
ROOT
HETATM    1  N   UNL     1      42.650 -17.421   5.928  1.00  0.00    -0.340 N 
HETATM    2  C   UNL     1      41.504 -16.605   5.790  1.00  0.00     0.279 C 
HETATM    3  O   UNL     1      40.673 -16.558   6.700  1.00  0.00    -0.265 OA
ENDROOT
BRANCH   2   4
HETATM    4  C   UNL     1      41.314 -15.816   4.563  1.00  0.00     0.166 A 
HETATM    5  N   UNL     1      40.665 -16.215   3.487  1.00  0.00    -0.235 NA
HETATM    6  C   UNL     1      40.724 -15.242   2.506  1.00  0.00     0.075 A 
HETATM    7  C   UNL     1      40.176 -15.333   1.213  1.00  0.00     0.034 A 
HETATM    8  C   UNL     1      41.409 -14.079   2.860  1.00  0.00     0.036 A 
HETATM    9  C   UNL     1      40.343 -14.274   0.308  1.00  0.00     0.014 A 
HETATM   10  C   UNL     1      41.041 -13.116   0.671  1.00  0.00    -0.022 A 
HETATM   11  C   UNL     1      41.577 -13.009   1.964  1.00  0.00     0.033 A 
HETATM   12  S   UNL     1      41.961 -14.226   4.481  1.00  0.00    -0.063 SA
BRANCH  10  13
HETATM   13  C   UNL     1      41.238 -12.031  -0.275  1.00  0.00     0.010 A 
HETATM   14  C   UNL     1      40.587 -11.740  -1.497  1.00  0.00     0.152 A 
HETATM   15  N   UNL     1      41.066 -10.647  -2.094  1.00  0.00    -0.187 NA
HETATM   16  N   UNL     1      42.032 -10.233  -1.260  1.00  0.00    -0.289 N 
HETATM   17  H   UNL     1      42.558  -9.401  -1.508  1.00  0.00     0.188 HD
HETATM   18  C   UNL     1      42.174 -11.026  -0.157  1.00  0.00     0.123 A 
ENDBRANCH  10  13
ENDBRANCH   2   4
BRANCH   1  19
HETATM   19  C   UNL     1      42.876 -18.206   7.154  1.00  0.00     0.152 C 
BRANCH  19  20
HETATM   20  C   UNL     1      43.965 -19.286   7.165  1.00  0.00     0.187 C 
BRANCH  20  21
HETATM   21  O   UNL     1      43.397 -20.512   6.684  1.00  0.00    -0.394 OA
HETATM   22  C   UNL     1      44.384 -21.335   6.073  1.00  0.00     0.201 C 
ENDBRANCH  20  21
ENDBRANCH  19  20
ENDBRANCH   1  19
BRANCH   1  23
HETATM   23  C   UNL     1      43.849 -17.225   5.103  1.00  0.00     0.164 C 
BRANCH  23  24
HETATM   24  C   UNL     1      43.750 -17.711   3.673  1.00  0.00    -0.038 A 
HETATM   25  C   UNL     1      43.991 -16.890   2.566  1.00  0.00     0.009 A 
HETATM   26  C   UNL     1      43.901 -17.401   1.271  1.00  0.00     0.003 A 
HETATM   27  C   UNL     1      43.581 -18.745   1.071  1.00  0.00     0.037 A 
HETATM   28  C   UNL     1      43.355 -19.588   2.158  1.00  0.00     0.068 A 
HETATM   29  C   UNL     1      43.439 -19.069   3.452  1.00  0.00     0.045 A 
BRANCH  28  30
HETATM   30  O   UNL     1      43.063 -20.884   1.828  1.00  0.00    -0.356 OA
HETATM   31  C   UNL     1      44.147 -21.805   1.812  1.00  0.00     0.210 C 
ENDBRANCH  28  30
ENDBRANCH  23  24
ENDBRANCH   1  23
TORSDOF 8
ENDMDL
MODEL 10
REMARK VINA RESULT:      -6.4      3.310      4.953
REMARK  8 active torsions:
REMARK  status: ('A' for Active; 'I' for Inactive)
REMARK    1  A    between atoms: O_2  and  C_3 
REMARK    2  A    between atoms: C_3  and  C_4 
REMARK    3  A    between atoms: C_4  and  N_5 
REMARK    4  A    between atoms: N_5  and  C_6 
REMARK       I    between atoms: N_5  and  C_15 
REMARK    5  A    between atoms: C_6  and  C_7 
REMARK    6  A    between atoms: C_11  and  O_12 
REMARK    7  A    between atoms: C_15  and  C_17 
REMARK    8  A    between atoms: C_22  and  C_26 
ROOT
HETATM    1  N   UNL     1      40.334 -12.098  -0.361  1.00  0.00    -0.340 N 
HETATM    2  C   UNL     1      41.241 -11.751   0.666  1.00  0.00     0.279 C 
HETATM    3  O   UNL     1      41.634 -10.586   0.767  1.00  0.00    -0.265 OA
ENDROOT
BRANCH   2   4
HETATM    4  C   UNL     1      41.707 -12.781   1.606  1.00  0.00     0.166 A 
HETATM    5  N   UNL     1      42.310 -13.906   1.275  1.00  0.00    -0.235 NA
HETATM    6  C   UNL     1      42.564 -14.661   2.406  1.00  0.00     0.075 A 
HETATM    7  C   UNL     1      43.160 -15.936   2.435  1.00  0.00     0.034 A 
HETATM    8  C   UNL     1      42.166 -14.084   3.611  1.00  0.00     0.036 A 
HETATM    9  C   UNL     1      43.326 -16.600   3.659  1.00  0.00     0.014 A 
HETATM   10  C   UNL     1      42.915 -16.015   4.862  1.00  0.00    -0.022 A 
HETATM   11  C   UNL     1      42.333 -14.737   4.845  1.00  0.00     0.033 A 
HETATM   12  S   UNL     1      41.483 -12.539   3.293  1.00  0.00    -0.063 SA
BRANCH  10  13
HETATM   13  C   UNL     1      43.060 -16.715   6.127  1.00  0.00     0.010 A 
HETATM   14  C   UNL     1      43.353 -16.229   7.423  1.00  0.00     0.152 A 
HETATM   15  N   UNL     1      43.417 -17.198   8.339  1.00  0.00    -0.187 NA
HETATM   16  N   UNL     1      43.170 -18.312   7.634  1.00  0.00    -0.289 N 
HETATM   17  H   UNL     1      43.171 -19.202   8.123  1.00  0.00     0.188 HD
HETATM   18  C   UNL     1      42.949 -18.077   6.306  1.00  0.00     0.123 A 
ENDBRANCH  10  13
ENDBRANCH   2   4
BRANCH   1  19
HETATM   19  C   UNL     1      39.835 -11.082  -1.305  1.00  0.00     0.152 C 
BRANCH  19  20
HETATM   20  C   UNL     1      40.722 -10.644  -2.477  1.00  0.00     0.187 C 
BRANCH  20  21
HETATM   21  O   UNL     1      40.815 -11.729  -3.409  1.00  0.00    -0.394 OA
HETATM   22  C   UNL     1      42.163 -12.154  -3.576  1.00  0.00     0.201 C 
ENDBRANCH  20  21
ENDBRANCH  19  20
ENDBRANCH   1  19
BRANCH   1  23
HETATM   23  C   UNL     1      39.525 -13.322  -0.305  1.00  0.00     0.164 C 
BRANCH  23  24
HETATM   24  C   UNL     1      39.615 -14.226  -1.515  1.00  0.00    -0.038 A 
HETATM   25  C   UNL     1      40.732 -15.021  -1.798  1.00  0.00     0.009 A 
HETATM   26  C   UNL     1      40.748 -15.847  -2.922  1.00  0.00     0.003 A 
HETATM   27  C   UNL     1      39.639 -15.898  -3.767  1.00  0.00     0.037 A 
HETATM   28  C   UNL     1      38.507 -15.130  -3.497  1.00  0.00     0.068 A 
HETATM   29  C   UNL     1      38.500 -14.299  -2.375  1.00  0.00     0.045 A 
BRANCH  28  30
HETATM   30  O   UNL     1      37.485 -15.279  -4.396  1.00  0.00    -0.356 OA
HETATM   31  C   UNL     1      36.464 -14.289  -4.380  1.00  0.00     0.210 C 
ENDBRANCH  28  30
ENDBRANCH  23  24
ENDBRANCH   1  23
TORSDOF 8
ENDMDL
