MODEL 1
REMARK VINA RESULT:     -10.6      0.000      0.000
REMARK  5 active torsions:
REMARK  status: ('A' for Active; 'I' for Inactive)
REMARK    1  A    between atoms: C_4  and  N_5 
REMARK    2  A    between atoms: C_7  and  C_8 
REMARK       I    between atoms: C_8  and  N_9 
REMARK    3  A    between atoms: N_9  and  N_10 
REMARK       I    between atoms: N_10  and  C_11 
REMARK    4  A    between atoms: C_11  and  C_12 
REMARK    5  A    between atoms: C_16  and  C_17 
ROOT
HETATM    1  C   UNL     1      42.414 -14.307   5.476  1.00  0.00     0.286 C 
HETATM    2  N   UNL     1      43.598 -14.157   6.160  1.00  0.00    -0.262 N 
HETATM    3  O   UNL     1      41.358 -13.779   5.797  1.00  0.00    -0.264 OA
HETATM    4  H   UNL     1      44.460 -14.629   5.886  1.00  0.00     0.190 HD
ENDROOT
BRANCH   2   5
HETATM    5  N   UNL     1      43.592 -13.365   7.309  1.00  0.00    -0.262 N 
HETATM    6  C   UNL     1      44.778 -12.984   7.901  1.00  0.00     0.288 C 
HETATM    7  O   UNL     1      45.873 -13.273   7.423  1.00  0.00    -0.264 OA
HETATM    8  H   UNL     1      42.682 -13.165   7.716  1.00  0.00     0.190 HD
BRANCH   6   9
HETATM    9  C   UNL     1      44.628 -12.223   9.112  1.00  0.00     0.121 A 
HETATM   10  N   UNL     1      45.632 -11.444   9.614  1.00  0.00    -0.272 N 
HETATM   11  H   UNL     1      46.560 -11.315   9.221  1.00  0.00     0.189 HD
HETATM   12  N   UNL     1      45.308 -10.786  10.739  1.00  0.00    -0.174 NA
HETATM   13  C   UNL     1      44.049 -11.167  11.006  1.00  0.00     0.089 A 
HETATM   14  C   UNL     1      43.587 -12.065  10.005  1.00  0.00     0.071 A 
BRANCH  13  15
HETATM   15  C   UNL     1      43.316 -10.671  12.176  1.00  0.00    -0.006 A 
HETATM   16  C   UNL     1      42.082 -11.236  12.535  1.00  0.00     0.014 A 
HETATM   17  C   UNL     1      41.389 -10.783  13.661  1.00  0.00     0.001 A 
HETATM   18  C   UNL     1      41.918  -9.756  14.440  1.00  0.00     0.000 A 
HETATM   19  C   UNL     1      43.137  -9.178  14.092  1.00  0.00     0.001 A 
HETATM   20  C   UNL     1      43.832  -9.633  12.967  1.00  0.00     0.014 A 
ENDBRANCH  13  15
ENDBRANCH   6   9
ENDBRANCH   2   5
BRANCH   1  21
HETATM   21  C   UNL     1      42.488 -15.200   4.247  1.00  0.00     0.125 C 
HETATM   22  N   UNL     1      43.144 -16.318   4.316  1.00  0.00    -0.164 NA
HETATM   23  N   UNL     1      43.184 -17.141   3.191  1.00  0.00    -0.201 N 
HETATM   24  C   UNL     1      42.757 -16.705   1.922  1.00  0.00     0.245 C 
HETATM   25  C   UNL     1      42.501 -15.222   1.832  1.00  0.00     0.111 C 
HETATM   26  O   UNL     1      42.625 -17.386   0.905  1.00  0.00    -0.271 OA
HETATM   27  C   UNL     1      41.734 -14.753   3.037  1.00  0.00     0.076 C 
BRANCH  23  28
HETATM   28  C   UNL     1      43.725 -18.452   3.446  1.00  0.00     0.062 A 
HETATM   29  C   UNL     1      43.733 -19.471   2.479  1.00  0.00     0.038 A 
HETATM   30  C   UNL     1      44.267 -20.746   2.744  1.00  0.00    -0.060 A 
HETATM   31  C   UNL     1      44.286 -21.801   1.676  1.00  0.00     0.048 C 
HETATM   32  C   UNL     1      44.823 -21.007   3.997  1.00  0.00     0.007 A 
HETATM   33  C   UNL     1      44.836 -20.015   4.971  1.00  0.00     0.003 A 
HETATM   34  C   UNL     1      44.296 -18.754   4.697  1.00  0.00     0.032 A 
ENDBRANCH  23  28
ENDBRANCH   1  21
TORSDOF 5
ENDMDL
MODEL 2
REMARK VINA RESULT:      -9.8      2.777     10.797
REMARK  5 active torsions:
REMARK  status: ('A' for Active; 'I' for Inactive)
REMARK    1  A    between atoms: C_4  and  N_5 
REMARK    2  A    between atoms: C_7  and  C_8 
REMARK       I    between atoms: C_8  and  N_9 
REMARK    3  A    between atoms: N_9  and  N_10 
REMARK       I    between atoms: N_10  and  C_11 
REMARK    4  A    between atoms: C_11  and  C_12 
REMARK    5  A    between atoms: C_16  and  C_17 
ROOT
HETATM    1  C   UNL     1      41.734 -11.701   6.026  1.00  0.00     0.286 C 
HETATM    2  N   UNL     1      42.121 -12.891   6.598  1.00  0.00    -0.262 N 
HETATM    3  O   UNL     1      41.735 -11.479   4.822  1.00  0.00    -0.264 OA
HETATM    4  H   UNL     1      42.134 -13.042   7.607  1.00  0.00     0.190 HD
ENDROOT
BRANCH   2   5
HETATM    5  N   UNL     1      42.566 -13.907   5.752  1.00  0.00    -0.262 N 
HETATM    6  C   UNL     1      41.830 -15.063   5.603  1.00  0.00     0.288 C 
HETATM    7  O   UNL     1      40.744 -15.226   6.154  1.00  0.00    -0.264 OA
HETATM    8  H   UNL     1      43.483 -13.777   5.332  1.00  0.00     0.190 HD
BRANCH   6   9
HETATM    9  C   UNL     1      42.433 -16.054   4.752  1.00  0.00     0.121 A 
HETATM   10  N   UNL     1      43.057 -15.728   3.580  1.00  0.00    -0.272 N 
HETATM   11  H   UNL     1      43.162 -14.800   3.181  1.00  0.00     0.189 HD
HETATM   12  N   UNL     1      43.582 -16.777   2.927  1.00  0.00    -0.174 NA
HETATM   13  C   UNL     1      43.270 -17.841   3.683  1.00  0.00     0.089 A 
HETATM   14  C   UNL     1      42.553 -17.427   4.839  1.00  0.00     0.071 A 
BRANCH  13  15
HETATM   15  C   UNL     1      43.662 -19.205   3.310  1.00  0.00    -0.006 A 
HETATM   16  C   UNL     1      44.428 -19.990   4.186  1.00  0.00     0.014 A 
HETATM   17  C   UNL     1      44.786 -21.298   3.846  1.00  0.00     0.001 A 
HETATM   18  C   UNL     1      44.388 -21.835   2.624  1.00  0.00     0.000 A 
HETATM   19  C   UNL     1      43.635 -21.065   1.739  1.00  0.00     0.001 A 
HETATM   20  C   UNL     1      43.275 -19.759   2.080  1.00  0.00     0.014 A 
ENDBRANCH  13  15
ENDBRANCH   6   9
ENDBRANCH   2   5
BRANCH   1  21
HETATM   21  C   UNL     1      41.280 -10.631   7.008  1.00  0.00     0.125 C 
HETATM   22  N   UNL     1      41.241 -10.911   8.275  1.00  0.00    -0.164 NA
HETATM   23  N   UNL     1      40.849  -9.916   9.169  1.00  0.00    -0.201 N 
HETATM   24  C   UNL     1      40.265  -8.707   8.743  1.00  0.00     0.245 C 
HETATM   25  C   UNL     1      39.870  -8.691   7.288  1.00  0.00     0.111 C 
HETATM   26  O   UNL     1      40.011  -7.718   9.431  1.00  0.00    -0.271 OA
HETATM   27  C   UNL     1      40.966  -9.283   6.446  1.00  0.00     0.076 C 
BRANCH  23  28
HETATM   28  C   UNL     1      41.071 -10.253  10.552  1.00  0.00     0.062 A 
HETATM   29  C   UNL     1      42.128  -9.715  11.304  1.00  0.00     0.038 A 
HETATM   30  C   UNL     1      42.329 -10.054  12.655  1.00  0.00    -0.060 A 
HETATM   31  C   UNL     1      43.452  -9.434  13.437  1.00  0.00     0.048 C 
HETATM   32  C   UNL     1      41.445 -10.935  13.278  1.00  0.00     0.007 A 
HETATM   33  C   UNL     1      40.386 -11.478  12.560  1.00  0.00     0.003 A 
HETATM   34  C   UNL     1      40.200 -11.139  11.216  1.00  0.00     0.032 A 
ENDBRANCH  23  28
ENDBRANCH   1  21
TORSDOF 5
ENDMDL
MODEL 3
REMARK VINA RESULT:      -9.7      2.004      2.327
REMARK  5 active torsions:
REMARK  status: ('A' for Active; 'I' for Inactive)
REMARK    1  A    between atoms: C_4  and  N_5 
REMARK    2  A    between atoms: C_7  and  C_8 
REMARK       I    between atoms: C_8  and  N_9 
REMARK    3  A    between atoms: N_9  and  N_10 
REMARK       I    between atoms: N_10  and  C_11 
REMARK    4  A    between atoms: C_11  and  C_12 
REMARK    5  A    between atoms: C_16  and  C_17 
ROOT
HETATM    1  C   UNL     1      41.802 -14.623   5.343  1.00  0.00     0.286 C 
HETATM    2  N   UNL     1      42.479 -13.430   5.448  1.00  0.00    -0.262 N 
HETATM    3  O   UNL     1      41.016 -15.048   6.180  1.00  0.00    -0.264 OA
HETATM    4  H   UNL     1      43.148 -13.109   4.747  1.00  0.00     0.190 HD
ENDROOT
BRANCH   2   5
HETATM    5  N   UNL     1      42.273 -12.661   6.595  1.00  0.00    -0.262 N 
HETATM    6  C   UNL     1      41.668 -11.426   6.508  1.00  0.00     0.288 C 
HETATM    7  O   UNL     1      41.240 -10.977   5.447  1.00  0.00    -0.264 OA
HETATM    8  H   UNL     1      42.665 -13.026   7.459  1.00  0.00     0.190 HD
BRANCH   6   9
HETATM    9  C   UNL     1      41.575 -10.713   7.754  1.00  0.00     0.121 A 
HETATM   10  N   UNL     1      40.533  -9.878   8.041  1.00  0.00    -0.272 N 
HETATM   11  H   UNL     1      39.740  -9.661   7.444  1.00  0.00     0.189 HD
HETATM   12  N   UNL     1      40.598  -9.316   9.259  1.00  0.00    -0.174 NA
HETATM   13  C   UNL     1      41.742  -9.777   9.787  1.00  0.00     0.089 A 
HETATM   14  C   UNL     1      42.381 -10.661   8.874  1.00  0.00     0.071 A 
BRANCH  13  15
HETATM   15  C   UNL     1      42.195  -9.391  11.128  1.00  0.00    -0.006 A 
HETATM   16  C   UNL     1      41.733  -8.206  11.722  1.00  0.00     0.014 A 
HETATM   17  C   UNL     1      42.144  -7.844  13.008  1.00  0.00     0.001 A 
HETATM   18  C   UNL     1      43.025  -8.658  13.714  1.00  0.00     0.000 A 
HETATM   19  C   UNL     1      43.501  -9.833  13.135  1.00  0.00     0.001 A 
HETATM   20  C   UNL     1      43.088 -10.197  11.851  1.00  0.00     0.014 A 
ENDBRANCH  13  15
ENDBRANCH   6   9
ENDBRANCH   2   5
BRANCH   1  21
HETATM   21  C   UNL     1      42.088 -15.418   4.078  1.00  0.00     0.125 C 
HETATM   22  N   UNL     1      42.792 -16.506   4.161  1.00  0.00    -0.164 NA
HETATM   23  N   UNL     1      43.027 -17.241   3.000  1.00  0.00    -0.201 N 
HETATM   24  C   UNL     1      42.747 -16.734   1.716  1.00  0.00     0.245 C 
HETATM   25  C   UNL     1      42.420 -15.262   1.691  1.00  0.00     0.111 C 
HETATM   26  O   UNL     1      42.789 -17.344   0.648  1.00  0.00    -0.271 OA
HETATM   27  C   UNL     1      41.475 -14.920   2.810  1.00  0.00     0.076 C 
BRANCH  23  28
HETATM   28  C   UNL     1      43.603 -18.540   3.238  1.00  0.00     0.062 A 
HETATM   29  C   UNL     1      43.549 -19.579   2.295  1.00  0.00     0.038 A 
HETATM   30  C   UNL     1      44.118 -20.841   2.543  1.00  0.00    -0.060 A 
HETATM   31  C   UNL     1      44.067 -21.919   1.498  1.00  0.00     0.048 C 
HETATM   32  C   UNL     1      44.776 -21.069   3.752  1.00  0.00     0.007 A 
HETATM   33  C   UNL     1      44.852 -20.056   4.702  1.00  0.00     0.003 A 
HETATM   34  C   UNL     1      44.275 -18.808   4.446  1.00  0.00     0.032 A 
ENDBRANCH  23  28
ENDBRANCH   1  21
TORSDOF 5
ENDMDL
MODEL 4
REMARK VINA RESULT:      -9.3      3.100     10.583
REMARK  5 active torsions:
REMARK  status: ('A' for Active; 'I' for Inactive)
REMARK    1  A    between atoms: C_4  and  N_5 
REMARK    2  A    between atoms: C_7  and  C_8 
REMARK       I    between atoms: C_8  and  N_9 
REMARK    3  A    between atoms: N_9  and  N_10 
REMARK       I    between atoms: N_10  and  C_11 
REMARK    4  A    between atoms: C_11  and  C_12 
REMARK    5  A    between atoms: C_16  and  C_17 
ROOT
HETATM    1  C   UNL     1      40.802 -13.055   6.034  1.00  0.00     0.286 C 
HETATM    2  N   UNL     1      42.055 -13.474   6.418  1.00  0.00    -0.262 N 
HETATM    3  O   UNL     1      39.996 -13.749   5.428  1.00  0.00    -0.264 OA
HETATM    4  H   UNL     1      42.718 -12.866   6.902  1.00  0.00     0.190 HD
ENDROOT
BRANCH   2   5
HETATM    5  N   UNL     1      42.443 -14.770   6.078  1.00  0.00    -0.262 N 
HETATM    6  C   UNL     1      43.629 -15.290   6.549  1.00  0.00     0.288 C 
HETATM    7  O   UNL     1      44.360 -14.669   7.318  1.00  0.00    -0.264 OA
HETATM    8  H   UNL     1      41.850 -15.259   5.411  1.00  0.00     0.190 HD
BRANCH   6   9
HETATM    9  C   UNL     1      43.938 -16.612   6.071  1.00  0.00     0.121 A 
HETATM   10  N   UNL     1      44.636 -17.515   6.822  1.00  0.00    -0.272 N 
HETATM   11  H   UNL     1      45.011 -17.374   7.756  1.00  0.00     0.189 HD
HETATM   12  N   UNL     1      44.812 -18.705   6.228  1.00  0.00    -0.174 NA
HETATM   13  C   UNL     1      44.229 -18.576   5.026  1.00  0.00     0.089 A 
HETATM   14  C   UNL     1      43.666 -17.277   4.893  1.00  0.00     0.071 A 
BRANCH  13  15
HETATM   15  C   UNL     1      44.205 -19.670   4.048  1.00  0.00    -0.006 A 
HETATM   16  C   UNL     1      44.707 -20.936   4.384  1.00  0.00     0.014 A 
HETATM   17  C   UNL     1      44.667 -21.988   3.463  1.00  0.00     0.001 A 
HETATM   18  C   UNL     1      44.130 -21.785   2.195  1.00  0.00     0.000 A 
HETATM   19  C   UNL     1      43.636 -20.531   1.843  1.00  0.00     0.001 A 
HETATM   20  C   UNL     1      43.673 -19.480   2.763  1.00  0.00     0.014 A 
ENDBRANCH  13  15
ENDBRANCH   6   9
ENDBRANCH   2   5
BRANCH   1  21
HETATM   21  C   UNL     1      40.454 -11.626   6.420  1.00  0.00     0.125 C 
HETATM   22  N   UNL     1      40.329 -11.321   7.676  1.00  0.00    -0.164 NA
HETATM   23  N   UNL     1      40.034 -10.003   8.020  1.00  0.00    -0.201 N 
HETATM   24  C   UNL     1      39.629  -9.047   7.067  1.00  0.00     0.245 C 
HETATM   25  C   UNL     1      39.298  -9.625   5.715  1.00  0.00     0.111 C 
HETATM   26  O   UNL     1      39.479  -7.838   7.242  1.00  0.00    -0.271 OA
HETATM   27  C   UNL     1      40.339 -10.631   5.310  1.00  0.00     0.076 C 
BRANCH  23  28
HETATM   28  C   UNL     1      40.156  -9.726   9.429  1.00  0.00     0.062 A 
HETATM   29  C   UNL     1      41.382  -9.412  10.037  1.00  0.00     0.038 A 
HETATM   30  C   UNL     1      41.483  -9.143  11.414  1.00  0.00    -0.060 A 
HETATM   31  C   UNL     1      42.806  -8.780  12.025  1.00  0.00     0.048 C 
HETATM   32  C   UNL     1      40.332  -9.167  12.202  1.00  0.00     0.007 A 
HETATM   33  C   UNL     1      39.103  -9.468  11.625  1.00  0.00     0.003 A 
HETATM   34  C   UNL     1      39.017  -9.741  10.256  1.00  0.00     0.032 A 
ENDBRANCH  23  28
ENDBRANCH   1  21
TORSDOF 5
ENDMDL
MODEL 5
REMARK VINA RESULT:      -9.3      2.804      3.318
REMARK  5 active torsions:
REMARK  status: ('A' for Active; 'I' for Inactive)
REMARK    1  A    between atoms: C_4  and  N_5 
REMARK    2  A    between atoms: C_7  and  C_8 
REMARK       I    between atoms: C_8  and  N_9 
REMARK    3  A    between atoms: N_9  and  N_10 
REMARK       I    between atoms: N_10  and  C_11 
REMARK    4  A    between atoms: C_11  and  C_12 
REMARK    5  A    between atoms: C_16  and  C_17 
ROOT
HETATM    1  C   UNL     1      41.076 -14.135   5.571  1.00  0.00     0.286 C 
HETATM    2  N   UNL     1      39.861 -13.987   6.199  1.00  0.00    -0.262 N 
HETATM    3  O   UNL     1      42.103 -13.559   5.907  1.00  0.00    -0.264 OA
HETATM    4  H   UNL     1      39.013 -14.459   5.884  1.00  0.00     0.190 HD
ENDROOT
BRANCH   2   5
HETATM    5  N   UNL     1      39.788 -13.107   7.280  1.00  0.00    -0.262 N 
HETATM    6  C   UNL     1      39.400 -11.798   7.090  1.00  0.00     0.288 C 
HETATM    7  O   UNL     1      39.055 -11.368   5.991  1.00  0.00    -0.264 OA
HETATM    8  H   UNL     1      40.112 -13.463   8.176  1.00  0.00     0.190 HD
BRANCH   6   9
HETATM    9  C   UNL     1      39.429 -10.984   8.276  1.00  0.00     0.121 A 
HETATM   10  N   UNL     1      38.697  -9.836   8.391  1.00  0.00    -0.272 N 
HETATM   11  H   UNL     1      38.082  -9.430   7.692  1.00  0.00     0.189 HD
HETATM   12  N   UNL     1      38.827  -9.217   9.575  1.00  0.00    -0.174 NA
HETATM   13  C   UNL     1      39.700  -9.972  10.261  1.00  0.00     0.089 A 
HETATM   14  C   UNL     1      40.096 -11.093   9.480  1.00  0.00     0.071 A 
BRANCH  13  15
HETATM   15  C   UNL     1      40.124  -9.633  11.624  1.00  0.00    -0.006 A 
HETATM   16  C   UNL     1      40.783 -10.581  12.422  1.00  0.00     0.014 A 
HETATM   17  C   UNL     1      41.209 -10.256  13.713  1.00  0.00     0.001 A 
HETATM   18  C   UNL     1      40.976  -8.982  14.225  1.00  0.00     0.000 A 
HETATM   19  C   UNL     1      40.315  -8.032  13.449  1.00  0.00     0.001 A 
HETATM   20  C   UNL     1      39.892  -8.355  12.157  1.00  0.00     0.014 A 
ENDBRANCH  13  15
ENDBRANCH   6   9
ENDBRANCH   2   5
BRANCH   1  21
HETATM   21  C   UNL     1      41.078 -15.092   4.390  1.00  0.00     0.125 C 
HETATM   22  N   UNL     1      41.974 -16.031   4.338  1.00  0.00    -0.164 NA
HETATM   23  N   UNL     1      41.952 -16.919   3.264  1.00  0.00    -0.201 N 
HETATM   24  C   UNL     1      41.162 -16.699   2.119  1.00  0.00     0.245 C 
HETATM   25  C   UNL     1      40.555 -15.321   2.043  1.00  0.00     0.111 C 
HETATM   26  O   UNL     1      40.967 -17.478   1.186  1.00  0.00    -0.271 OA
HETATM   27  C   UNL     1      39.989 -14.928   3.380  1.00  0.00     0.076 C 
BRANCH  23  28
HETATM   28  C   UNL     1      42.826 -18.054   3.427  1.00  0.00     0.062 A 
HETATM   29  C   UNL     1      42.906 -19.091   2.483  1.00  0.00     0.038 A 
HETATM   30  C   UNL     1      43.766 -20.191   2.656  1.00  0.00    -0.060 A 
HETATM   31  C   UNL     1      43.848 -21.267   1.612  1.00  0.00     0.048 C 
HETATM   32  C   UNL     1      44.580 -20.251   3.788  1.00  0.00     0.007 A 
HETATM   33  C   UNL     1      44.527 -19.234   4.735  1.00  0.00     0.003 A 
HETATM   34  C   UNL     1      43.663 -18.149   4.554  1.00  0.00     0.032 A 
ENDBRANCH  23  28
ENDBRANCH   1  21
TORSDOF 5
ENDMDL
MODEL 6
REMARK VINA RESULT:      -9.3      3.171     11.201
REMARK  5 active torsions:
REMARK  status: ('A' for Active; 'I' for Inactive)
REMARK    1  A    between atoms: C_4  and  N_5 
REMARK    2  A    between atoms: C_7  and  C_8 
REMARK       I    between atoms: C_8  and  N_9 
REMARK    3  A    between atoms: N_9  and  N_10 
REMARK       I    between atoms: N_10  and  C_11 
REMARK    4  A    between atoms: C_11  and  C_12 
REMARK    5  A    between atoms: C_16  and  C_17 
ROOT
HETATM    1  C   UNL     1      40.250 -11.499   8.017  1.00  0.00     0.286 C 
HETATM    2  N   UNL     1      41.577 -11.512   7.655  1.00  0.00    -0.262 N 
HETATM    3  O   UNL     1      39.389 -12.212   7.517  1.00  0.00    -0.264 OA
HETATM    4  H   UNL     1      42.271 -10.890   8.071  1.00  0.00     0.190 HD
ENDROOT
BRANCH   2   5
HETATM    5  N   UNL     1      41.967 -12.382   6.635  1.00  0.00    -0.262 N 
HETATM    6  C   UNL     1      41.914 -11.981   5.318  1.00  0.00     0.288 C 
HETATM    7  O   UNL     1      41.579 -10.845   4.989  1.00  0.00    -0.264 OA
HETATM    8  H   UNL     1      42.205 -13.330   6.916  1.00  0.00     0.190 HD
BRANCH   6   9
HETATM    9  C   UNL     1      42.283 -12.994   4.366  1.00  0.00     0.121 A 
HETATM   10  N   UNL     1      42.480 -12.716   3.042  1.00  0.00    -0.272 N 
HETATM   11  H   UNL     1      42.388 -11.812   2.588  1.00  0.00     0.189 HD
HETATM   12  N   UNL     1      42.843 -13.777   2.305  1.00  0.00    -0.174 NA
HETATM   13  C   UNL     1      42.863 -14.803   3.170  1.00  0.00     0.089 A 
HETATM   14  C   UNL     1      42.521 -14.350   4.474  1.00  0.00     0.071 A 
BRANCH  13  15
HETATM   15  C   UNL     1      43.211 -16.167   2.757  1.00  0.00    -0.006 A 
HETATM   16  C   UNL     1      43.443 -17.165   3.715  1.00  0.00     0.014 A 
HETATM   17  C   UNL     1      43.755 -18.471   3.327  1.00  0.00     0.001 A 
HETATM   18  C   UNL     1      43.842 -18.795   1.975  1.00  0.00     0.000 A 
HETATM   19  C   UNL     1      43.624 -17.814   1.011  1.00  0.00     0.001 A 
HETATM   20  C   UNL     1      43.310 -16.508   1.399  1.00  0.00     0.014 A 
ENDBRANCH  13  15
ENDBRANCH   6   9
ENDBRANCH   2   5
BRANCH   1  21
HETATM   21  C   UNL     1      39.892 -10.515   9.119  1.00  0.00     0.125 C 
HETATM   22  N   UNL     1      40.585 -10.514  10.217  1.00  0.00    -0.164 NA
HETATM   23  N   UNL     1      40.265  -9.591  11.211  1.00  0.00    -0.201 N 
HETATM   24  C   UNL     1      39.080  -8.828  11.179  1.00  0.00     0.245 C 
HETATM   25  C   UNL     1      38.086  -9.275  10.137  1.00  0.00     0.111 C 
HETATM   26  O   UNL     1      38.771  -7.899  11.925  1.00  0.00    -0.271 OA
HETATM   27  C   UNL     1      38.786  -9.550   8.835  1.00  0.00     0.076 C 
BRANCH  23  28
HETATM   28  C   UNL     1      41.237  -9.514  12.272  1.00  0.00     0.062 A 
HETATM   29  C   UNL     1      40.880  -9.531  13.630  1.00  0.00     0.038 A 
HETATM   30  C   UNL     1      41.843  -9.456  14.654  1.00  0.00    -0.060 A 
HETATM   31  C   UNL     1      41.427  -9.508  16.096  1.00  0.00     0.048 C 
HETATM   32  C   UNL     1      43.195  -9.384  14.318  1.00  0.00     0.007 A 
HETATM   33  C   UNL     1      43.577  -9.374  12.981  1.00  0.00     0.003 A 
HETATM   34  C   UNL     1      42.610  -9.441  11.972  1.00  0.00     0.032 A 
ENDBRANCH  23  28
ENDBRANCH   1  21
TORSDOF 5
ENDMDL
MODEL 7
REMARK VINA RESULT:      -9.3      5.391      9.884
REMARK  5 active torsions:
REMARK  status: ('A' for Active; 'I' for Inactive)
REMARK    1  A    between atoms: C_4  and  N_5 
REMARK    2  A    between atoms: C_7  and  C_8 
REMARK       I    between atoms: C_8  and  N_9 
REMARK    3  A    between atoms: N_9  and  N_10 
REMARK       I    between atoms: N_10  and  C_11 
REMARK    4  A    between atoms: C_11  and  C_12 
REMARK    5  A    between atoms: C_16  and  C_17 
ROOT
HETATM    1  C   UNL     1      43.272 -15.108   3.111  1.00  0.00     0.286 C 
HETATM    2  N   UNL     1      42.496 -15.518   2.052  1.00  0.00    -0.262 N 
HETATM    3  O   UNL     1      43.885 -14.049   3.150  1.00  0.00    -0.264 OA
HETATM    4  H   UNL     1      42.014 -16.418   2.035  1.00  0.00     0.190 HD
ENDROOT
BRANCH   2   5
HETATM    5  N   UNL     1      42.417 -14.683   0.937  1.00  0.00    -0.262 N 
HETATM    6  C   UNL     1      41.747 -15.092  -0.195  1.00  0.00     0.288 C 
HETATM    7  O   UNL     1      41.153 -16.166  -0.256  1.00  0.00    -0.264 OA
HETATM    8  H   UNL     1      42.944 -13.814   0.986  1.00  0.00     0.190 HD
BRANCH   6   9
HETATM    9  C   UNL     1      41.796 -14.162  -1.292  1.00  0.00     0.121 A 
HETATM   10  N   UNL     1      41.511 -14.531  -2.576  1.00  0.00    -0.272 N 
HETATM   11  H   UNL     1      41.250 -15.457  -2.902  1.00  0.00     0.189 HD
HETATM   12  N   UNL     1      41.585 -13.528  -3.466  1.00  0.00    -0.174 NA
HETATM   13  C   UNL     1      41.958 -12.459  -2.746  1.00  0.00     0.089 A 
HETATM   14  C   UNL     1      42.097 -12.816  -1.376  1.00  0.00     0.071 A 
BRANCH  13  15
HETATM   15  C   UNL     1      42.161 -11.140  -3.354  1.00  0.00    -0.006 A 
HETATM   16  C   UNL     1      42.234 -11.002  -4.748  1.00  0.00     0.014 A 
HETATM   17  C   UNL     1      42.405  -9.744  -5.334  1.00  0.00     0.001 A 
HETATM   18  C   UNL     1      42.510  -8.610  -4.534  1.00  0.00     0.000 A 
HETATM   19  C   UNL     1      42.449  -8.730  -3.147  1.00  0.00     0.001 A 
HETATM   20  C   UNL     1      42.275  -9.987  -2.561  1.00  0.00     0.014 A 
ENDBRANCH  13  15
ENDBRANCH   6   9
ENDBRANCH   2   5
BRANCH   1  21
HETATM   21  C   UNL     1      43.328 -16.075   4.283  1.00  0.00     0.125 C 
HETATM   22  N   UNL     1      43.470 -17.345   4.049  1.00  0.00    -0.164 NA
HETATM   23  N   UNL     1      43.546 -18.221   5.130  1.00  0.00    -0.201 N 
HETATM   24  C   UNL     1      43.236 -17.824   6.446  1.00  0.00     0.245 C 
HETATM   25  C   UNL     1      42.578 -16.471   6.544  1.00  0.00     0.111 C 
HETATM   26  O   UNL     1      43.400 -18.473   7.479  1.00  0.00    -0.271 OA
HETATM   27  C   UNL     1      43.282 -15.485   5.655  1.00  0.00     0.076 C 
BRANCH  23  28
HETATM   28  C   UNL     1      43.941 -19.559   4.771  1.00  0.00     0.062 A 
HETATM   29  C   UNL     1      43.986 -20.006   3.440  1.00  0.00     0.038 A 
HETATM   30  C   UNL     1      44.375 -21.316   3.106  1.00  0.00    -0.060 A 
HETATM   31  C   UNL     1      44.441 -21.749   1.670  1.00  0.00     0.048 C 
HETATM   32  C   UNL     1      44.749 -22.198   4.121  1.00  0.00     0.007 A 
HETATM   33  C   UNL     1      44.721 -21.780   5.447  1.00  0.00     0.003 A 
HETATM   34  C   UNL     1      44.325 -20.477   5.766  1.00  0.00     0.032 A 
ENDBRANCH  23  28
ENDBRANCH   1  21
TORSDOF 5
ENDMDL
MODEL 8
REMARK VINA RESULT:      -9.3      5.519     10.816
REMARK  5 active torsions:
REMARK  status: ('A' for Active; 'I' for Inactive)
REMARK    1  A    between atoms: C_4  and  N_5 
REMARK    2  A    between atoms: C_7  and  C_8 
REMARK       I    between atoms: C_8  and  N_9 
REMARK    3  A    between atoms: N_9  and  N_10 
REMARK       I    between atoms: N_10  and  C_11 
REMARK    4  A    between atoms: C_11  and  C_12 
REMARK    5  A    between atoms: C_16  and  C_17 
ROOT
HETATM    1  C   UNL     1      41.175 -15.943   2.299  1.00  0.00     0.286 C 
HETATM    2  N   UNL     1      41.481 -16.475   1.067  1.00  0.00    -0.262 N 
HETATM    3  O   UNL     1      40.207 -15.227   2.522  1.00  0.00    -0.264 OA
HETATM    4  H   UNL     1      42.308 -17.049   0.902  1.00  0.00     0.190 HD
ENDROOT
BRANCH   2   5
HETATM    5  N   UNL     1      40.644 -16.163  -0.005  1.00  0.00    -0.262 N 
HETATM    6  C   UNL     1      40.919 -15.080  -0.812  1.00  0.00     0.288 C 
HETATM    7  O   UNL     1      41.922 -14.386  -0.663  1.00  0.00    -0.264 OA
HETATM    8  H   UNL     1      39.798 -16.720  -0.095  1.00  0.00     0.190 HD
BRANCH   6   9
HETATM    9  C   UNL     1      39.943 -14.834  -1.840  1.00  0.00     0.121 A 
HETATM   10  N   UNL     1      39.944 -15.513  -3.026  1.00  0.00    -0.272 N 
HETATM   11  H   UNL     1      40.600 -16.231  -3.319  1.00  0.00     0.189 HD
HETATM   12  N   UNL     1      38.946 -15.171  -3.857  1.00  0.00    -0.174 NA
HETATM   13  C   UNL     1      38.274 -14.209  -3.206  1.00  0.00     0.089 A 
HETATM   14  C   UNL     1      38.867 -13.973  -1.934  1.00  0.00     0.071 A 
BRANCH  13  15
HETATM   15  C   UNL     1      37.097 -13.551  -3.783  1.00  0.00    -0.006 A 
HETATM   16  C   UNL     1      36.186 -14.279  -4.564  1.00  0.00     0.014 A 
HETATM   17  C   UNL     1      35.050 -13.663  -5.098  1.00  0.00     0.001 A 
HETATM   18  C   UNL     1      34.814 -12.311  -4.863  1.00  0.00     0.000 A 
HETATM   19  C   UNL     1      35.713 -11.572  -4.097  1.00  0.00     0.001 A 
HETATM   20  C   UNL     1      36.847 -12.188  -3.560  1.00  0.00     0.014 A 
ENDBRANCH  13  15
ENDBRANCH   6   9
ENDBRANCH   2   5
BRANCH   1  21
HETATM   21  C   UNL     1      42.140 -16.308   3.416  1.00  0.00     0.125 C 
HETATM   22  N   UNL     1      42.461 -17.553   3.594  1.00  0.00    -0.164 NA
HETATM   23  N   UNL     1      43.366 -17.874   4.604  1.00  0.00    -0.201 N 
HETATM   24  C   UNL     1      43.757 -16.946   5.590  1.00  0.00     0.245 C 
HETATM   25  C   UNL     1      42.932 -15.684   5.611  1.00  0.00     0.111 C 
HETATM   26  O   UNL     1      44.641 -17.084   6.434  1.00  0.00    -0.271 OA
HETATM   27  C   UNL     1      42.716 -15.181   4.210  1.00  0.00     0.076 C 
BRANCH  23  28
HETATM   28  C   UNL     1      43.833 -19.236   4.558  1.00  0.00     0.062 A 
HETATM   29  C   UNL     1      44.036 -19.929   3.353  1.00  0.00     0.038 A 
HETATM   30  C   UNL     1      44.494 -21.259   3.327  1.00  0.00    -0.060 A 
HETATM   31  C   UNL     1      44.729 -21.958   2.018  1.00  0.00     0.048 C 
HETATM   32  C   UNL     1      44.778 -21.909   4.528  1.00  0.00     0.007 A 
HETATM   33  C   UNL     1      44.593 -21.245   5.736  1.00  0.00     0.003 A 
HETATM   34  C   UNL     1      44.130 -19.926   5.750  1.00  0.00     0.032 A 
ENDBRANCH  23  28
ENDBRANCH   1  21
TORSDOF 5
ENDMDL
MODEL 9
REMARK VINA RESULT:      -9.1      1.859      4.045
REMARK  5 active torsions:
REMARK  status: ('A' for Active; 'I' for Inactive)
REMARK    1  A    between atoms: C_4  and  N_5 
REMARK    2  A    between atoms: C_7  and  C_8 
REMARK       I    between atoms: C_8  and  N_9 
REMARK    3  A    between atoms: N_9  and  N_10 
REMARK       I    between atoms: N_10  and  C_11 
REMARK    4  A    between atoms: C_11  and  C_12 
REMARK    5  A    between atoms: C_16  and  C_17 
ROOT
HETATM    1  C   UNL     1      42.647 -15.261   5.821  1.00  0.00     0.286 C 
HETATM    2  N   UNL     1      43.266 -14.033   5.809  1.00  0.00    -0.262 N 
HETATM    3  O   UNL     1      42.163 -15.782   6.818  1.00  0.00    -0.264 OA
HETATM    4  H   UNL     1      43.684 -13.632   4.968  1.00  0.00     0.190 HD
ENDROOT
BRANCH   2   5
HETATM    5  N   UNL     1      43.369 -13.341   7.016  1.00  0.00    -0.262 N 
HETATM    6  C   UNL     1      44.603 -13.100   7.580  1.00  0.00     0.288 C 
HETATM    7  O   UNL     1      45.652 -13.428   7.031  1.00  0.00    -0.264 OA
HETATM    8  H   UNL     1      42.494 -13.109   7.480  1.00  0.00     0.190 HD
BRANCH   6   9
HETATM    9  C   UNL     1      44.562 -12.433   8.855  1.00  0.00     0.121 A 
HETATM   10  N   UNL     1      45.655 -12.349   9.670  1.00  0.00    -0.272 N 
HETATM   11  H   UNL     1      46.580 -12.730   9.494  1.00  0.00     0.189 HD
HETATM   12  N   UNL     1      45.440 -11.671  10.809  1.00  0.00    -0.174 NA
HETATM   13  C   UNL     1      44.147 -11.315  10.756  1.00  0.00     0.089 A 
HETATM   14  C   UNL     1      43.563 -11.772   9.542  1.00  0.00     0.071 A 
BRANCH  13  15
HETATM   15  C   UNL     1      43.503 -10.552  11.830  1.00  0.00    -0.006 A 
HETATM   16  C   UNL     1      43.044 -11.198  12.988  1.00  0.00     0.014 A 
HETATM   17  C   UNL     1      42.448 -10.473  14.024  1.00  0.00     0.001 A 
HETATM   18  C   UNL     1      42.300  -9.093  13.914  1.00  0.00     0.000 A 
HETATM   19  C   UNL     1      42.742  -8.436  12.767  1.00  0.00     0.001 A 
HETATM   20  C   UNL     1      43.340  -9.161  11.732  1.00  0.00     0.014 A 
ENDBRANCH  13  15
ENDBRANCH   6   9
ENDBRANCH   2   5
BRANCH   1  21
HETATM   21  C   UNL     1      42.589 -15.968   4.476  1.00  0.00     0.125 C 
HETATM   22  N   UNL     1      41.775 -15.529   3.565  1.00  0.00    -0.164 NA
HETATM   23  N   UNL     1      41.747 -16.168   2.327  1.00  0.00    -0.201 N 
HETATM   24  C   UNL     1      42.381 -17.407   2.103  1.00  0.00     0.245 C 
HETATM   25  C   UNL     1      42.858 -18.092   3.358  1.00  0.00     0.111 C 
HETATM   26  O   UNL     1      42.531 -17.983   1.026  1.00  0.00    -0.271 OA
HETATM   27  C   UNL     1      43.538 -17.103   4.264  1.00  0.00     0.076 C 
BRANCH  23  28
HETATM   28  C   UNL     1      40.996 -15.461   1.321  1.00  0.00     0.062 A 
HETATM   29  C   UNL     1      39.652 -15.091   1.499  1.00  0.00     0.038 A 
HETATM   30  C   UNL     1      38.933 -14.399   0.506  1.00  0.00    -0.060 A 
HETATM   31  C   UNL     1      37.507 -13.992   0.743  1.00  0.00     0.048 C 
HETATM   32  C   UNL     1      39.572 -14.050  -0.684  1.00  0.00     0.007 A 
HETATM   33  C   UNL     1      40.904 -14.397  -0.883  1.00  0.00     0.003 A 
HETATM   34  C   UNL     1      41.606 -15.091   0.108  1.00  0.00     0.032 A 
ENDBRANCH  23  28
ENDBRANCH   1  21
TORSDOF 5
ENDMDL
MODEL 10
REMARK VINA RESULT:      -9.1      5.466     10.341
REMARK  5 active torsions:
REMARK  status: ('A' for Active; 'I' for Inactive)
REMARK    1  A    between atoms: C_4  and  N_5 
REMARK    2  A    between atoms: C_7  and  C_8 
REMARK       I    between atoms: C_8  and  N_9 
REMARK    3  A    between atoms: N_9  and  N_10 
REMARK       I    between atoms: N_10  and  C_11 
REMARK    4  A    between atoms: C_11  and  C_12 
REMARK    5  A    between atoms: C_16  and  C_17 
ROOT
HETATM    1  C   UNL     1      41.747 -15.697   3.309  1.00  0.00     0.286 C 
HETATM    2  N   UNL     1      42.221 -15.303   2.079  1.00  0.00    -0.262 N 
HETATM    3  O   UNL     1      40.599 -15.524   3.696  1.00  0.00    -0.264 OA
HETATM    4  H   UNL     1      43.190 -15.437   1.790  1.00  0.00     0.190 HD
ENDROOT
BRANCH   2   5
HETATM    5  N   UNL     1      41.340 -14.643   1.221  1.00  0.00    -0.262 N 
HETATM    6  C   UNL     1      41.050 -15.168  -0.020  1.00  0.00     0.288 C 
HETATM    7  O   UNL     1      41.502 -16.246  -0.399  1.00  0.00    -0.264 OA
HETATM    8  H   UNL     1      41.003 -13.735   1.530  1.00  0.00     0.190 HD
BRANCH   6   9
HETATM    9  C   UNL     1      40.178 -14.357  -0.827  1.00  0.00     0.121 A 
HETATM   10  N   UNL     1      40.149 -12.995  -0.728  1.00  0.00    -0.272 N 
HETATM   11  H   UNL     1      40.703 -12.415  -0.104  1.00  0.00     0.189 HD
HETATM   12  N   UNL     1      39.293 -12.400  -1.574  1.00  0.00    -0.174 NA
HETATM   13  C   UNL     1      38.713 -13.411  -2.240  1.00  0.00     0.089 A 
HETATM   14  C   UNL     1      39.246 -14.654  -1.802  1.00  0.00     0.071 A 
BRANCH  13  15
HETATM   15  C   UNL     1      37.694 -13.184  -3.270  1.00  0.00    -0.006 A 
HETATM   16  C   UNL     1      37.069 -14.268  -3.904  1.00  0.00     0.014 A 
HETATM   17  C   UNL     1      36.081 -14.059  -4.871  1.00  0.00     0.001 A 
HETATM   18  C   UNL     1      35.710 -12.763  -5.220  1.00  0.00     0.000 A 
HETATM   19  C   UNL     1      36.327 -11.675  -4.606  1.00  0.00     0.001 A 
HETATM   20  C   UNL     1      37.313 -11.884  -3.638  1.00  0.00     0.014 A 
ENDBRANCH  13  15
ENDBRANCH   6   9
ENDBRANCH   2   5
BRANCH   1  21
HETATM   21  C   UNL     1      42.766 -16.391   4.200  1.00  0.00     0.125 C 
HETATM   22  N   UNL     1      42.928 -17.675   4.095  1.00  0.00    -0.164 NA
HETATM   23  N   UNL     1      43.882 -18.297   4.898  1.00  0.00    -0.201 N 
HETATM   24  C   UNL     1      44.501 -17.642   5.980  1.00  0.00     0.245 C 
HETATM   25  C   UNL     1      43.867 -16.324   6.349  1.00  0.00     0.111 C 
HETATM   26  O   UNL     1      45.443 -18.050   6.659  1.00  0.00    -0.271 OA
HETATM   27  C   UNL     1      43.575 -15.524   5.110  1.00  0.00     0.076 C 
BRANCH  23  28
HETATM   28  C   UNL     1      44.149 -19.666   4.534  1.00  0.00     0.062 A 
HETATM   29  C   UNL     1      44.083 -20.125   3.208  1.00  0.00     0.038 A 
HETATM   30  C   UNL     1      44.348 -21.465   2.869  1.00  0.00    -0.060 A 
HETATM   31  C   UNL     1      44.299 -21.913   1.437  1.00  0.00     0.048 C 
HETATM   32  C   UNL     1      44.706 -22.366   3.873  1.00  0.00     0.007 A 
HETATM   33  C   UNL     1      44.786 -21.937   5.193  1.00  0.00     0.003 A 
HETATM   34  C   UNL     1      44.513 -20.604   5.518  1.00  0.00     0.032 A 
ENDBRANCH  23  28
ENDBRANCH   1  21
TORSDOF 5
ENDMDL
