MODEL 1
REMARK VINA RESULT:      -8.4      0.000      0.000
REMARK  5 active torsions:
REMARK  status: ('A' for Active; 'I' for Inactive)
REMARK    1  A    between atoms: C_4  and  O_5 
REMARK    2  A    between atoms: O_5  and  C_6 
REMARK    3  A    between atoms: C_6  and  C_7 
REMARK       I    between atoms: C_7  and  N_8 
REMARK    4  A    between atoms: N_8  and  C_9 
REMARK    5  A    between atoms: C_15  and  C_16 
ROOT
HETATM    1  C   UNL     1      41.345 -15.226   0.666  1.00  0.00     0.137 A 
HETATM    2  N   UNL     1      40.281 -15.041  -0.179  1.00  0.00    -0.262 N 
HETATM    3  H   UNL     1      40.143 -15.436  -1.105  1.00  0.00     0.191 HD
HETATM    4  N   UNL     1      39.300 -14.281   0.336  1.00  0.00    -0.177 NA
HETATM    5  C   UNL     1      39.724 -14.000   1.574  1.00  0.00     0.065 A 
HETATM    6  C   UNL     1      38.898 -13.145   2.462  1.00  0.00     0.073 C 
HETATM    7  C   UNL     1      40.989 -14.593   1.845  1.00  0.00     0.046 A 
ENDROOT
BRANCH   1   8
HETATM    8  N   UNL     1      42.477 -15.970   0.390  1.00  0.00    -0.309 N 
HETATM    9  C   UNL     1      42.880 -17.161   0.933  1.00  0.00     0.247 C 
HETATM   10  O   UNL     1      43.984 -17.611   0.612  1.00  0.00    -0.271 OA
HETATM   11  H   UNL     1      43.089 -15.629  -0.345  1.00  0.00     0.170 HD
BRANCH   9  12
HETATM   12  C   UNL     1      41.944 -17.963   1.829  1.00  0.00     0.278 C 
BRANCH  12  13
HETATM   13  O   UNL     1      42.363 -19.320   1.948  1.00  0.00    -0.342 OA
BRANCH  13  14
HETATM   14  C   UNL     1      43.270 -19.522   2.959  1.00  0.00     0.075 A 
HETATM   15  C   UNL     1      43.340 -18.676   4.071  1.00  0.00     0.044 A 
HETATM   16  C   UNL     1      44.289 -18.899   5.078  1.00  0.00    -0.059 A 
HETATM   17  C   UNL     1      44.366 -17.991   6.269  1.00  0.00     0.048 C 
HETATM   18  C   UNL     1      45.124 -20.016   4.984  1.00  0.00     0.007 A 
HETATM   19  C   UNL     1      45.025 -20.887   3.897  1.00  0.00     0.010 A 
HETATM   20  C   UNL     1      44.099 -20.650   2.872  1.00  0.00    -0.029 A 
HETATM   21  C   UNL     1      43.991 -21.607   1.720  1.00  0.00     0.051 C 
ENDBRANCH  13  14
ENDBRANCH  12  13
ENDBRANCH   9  12
ENDBRANCH   1   8
BRANCH   7  22
HETATM   22  C   UNL     1      41.820 -14.518   3.035  1.00  0.00    -0.020 A 
HETATM   23  C   UNL     1      43.028 -13.812   3.009  1.00  0.00     0.014 A 
HETATM   24  C   UNL     1      43.832 -13.748   4.151  1.00  0.00     0.020 A 
HETATM   25  C   UNL     1      43.428 -14.389   5.321  1.00  0.00     0.011 A 
HETATM   26 BR   UNL     1      44.513 -14.299   6.865  1.00  0.00    -0.051 Br
HETATM   27  C   UNL     1      42.230 -15.099   5.359  1.00  0.00     0.020 A 
HETATM   28  C   UNL     1      41.430 -15.166   4.216  1.00  0.00     0.014 A 
ENDBRANCH   7  22
TORSDOF 5
ENDMDL
MODEL 2
REMARK VINA RESULT:      -8.2      2.968      3.992
REMARK  5 active torsions:
REMARK  status: ('A' for Active; 'I' for Inactive)
REMARK    1  A    between atoms: C_4  and  O_5 
REMARK    2  A    between atoms: O_5  and  C_6 
REMARK    3  A    between atoms: C_6  and  C_7 
REMARK       I    between atoms: C_7  and  N_8 
REMARK    4  A    between atoms: N_8  and  C_9 
REMARK    5  A    between atoms: C_15  and  C_16 
ROOT
HETATM    1  C   UNL     1      41.189 -16.524   5.148  1.00  0.00     0.137 A 
HETATM    2  N   UNL     1      40.972 -17.438   4.149  1.00  0.00    -0.262 N 
HETATM    3  H   UNL     1      41.031 -18.451   4.205  1.00  0.00     0.191 HD
HETATM    4  N   UNL     1      40.589 -16.893   2.983  1.00  0.00    -0.177 NA
HETATM    5  C   UNL     1      40.512 -15.583   3.247  1.00  0.00     0.065 A 
HETATM    6  C   UNL     1      40.131 -14.632   2.174  1.00  0.00     0.073 C 
HETATM    7  C   UNL     1      40.850 -15.298   4.601  1.00  0.00     0.046 A 
ENDROOT
BRANCH   1   8
HETATM    8  N   UNL     1      41.578 -16.818   6.442  1.00  0.00    -0.309 N 
HETATM    9  C   UNL     1      42.790 -17.261   6.899  1.00  0.00     0.247 C 
HETATM   10  O   UNL     1      42.897 -17.557   8.093  1.00  0.00    -0.271 OA
HETATM   11  H   UNL     1      40.901 -16.648   7.180  1.00  0.00     0.170 HD
BRANCH   9  12
HETATM   12  C   UNL     1      44.005 -17.287   5.979  1.00  0.00     0.278 C 
BRANCH  12  13
HETATM   13  O   UNL     1      44.455 -18.618   5.738  1.00  0.00    -0.342 OA
BRANCH  13  14
HETATM   14  C   UNL     1      44.296 -19.019   4.435  1.00  0.00     0.075 A 
HETATM   15  C   UNL     1      44.039 -18.106   3.405  1.00  0.00     0.044 A 
HETATM   16  C   UNL     1      43.865 -18.548   2.088  1.00  0.00    -0.059 A 
HETATM   17  C   UNL     1      43.587 -17.571   0.985  1.00  0.00     0.048 C 
HETATM   18  C   UNL     1      44.011 -19.910   1.806  1.00  0.00     0.007 A 
HETATM   19  C   UNL     1      44.311 -20.816   2.826  1.00  0.00     0.010 A 
HETATM   20  C   UNL     1      44.456 -20.382   4.151  1.00  0.00    -0.029 A 
HETATM   21  C   UNL     1      44.800 -21.367   5.230  1.00  0.00     0.051 C 
ENDBRANCH  13  14
ENDBRANCH  12  13
ENDBRANCH   9  12
ENDBRANCH   1   8
BRANCH   7  22
HETATM   22  C   UNL     1      40.930 -14.025   5.296  1.00  0.00    -0.020 A 
HETATM   23  C   UNL     1      42.169 -13.404   5.491  1.00  0.00     0.014 A 
HETATM   24  C   UNL     1      42.246 -12.183   6.168  1.00  0.00     0.020 A 
HETATM   25  C   UNL     1      41.085 -11.580   6.648  1.00  0.00     0.011 A 
HETATM   26 BR   UNL     1      41.189  -9.928   7.559  1.00  0.00    -0.051 Br
HETATM   27  C   UNL     1      39.845 -12.189   6.464  1.00  0.00     0.020 A 
HETATM   28  C   UNL     1      39.770 -13.412   5.792  1.00  0.00     0.014 A 
ENDBRANCH   7  22
TORSDOF 5
ENDMDL
MODEL 3
REMARK VINA RESULT:      -8.2      1.943      3.098
REMARK  5 active torsions:
REMARK  status: ('A' for Active; 'I' for Inactive)
REMARK    1  A    between atoms: C_4  and  O_5 
REMARK    2  A    between atoms: O_5  and  C_6 
REMARK    3  A    between atoms: C_6  and  C_7 
REMARK       I    between atoms: C_7  and  N_8 
REMARK    4  A    between atoms: N_8  and  C_9 
REMARK    5  A    between atoms: C_15  and  C_16 
ROOT
HETATM    1  C   UNL     1      41.279 -14.822  -0.352  1.00  0.00     0.137 A 
HETATM    2  N   UNL     1      41.507 -14.760  -1.703  1.00  0.00    -0.262 N 
HETATM    3  H   UNL     1      41.264 -15.448  -2.410  1.00  0.00     0.191 HD
HETATM    4  N   UNL     1      42.077 -13.614  -2.110  1.00  0.00    -0.177 NA
HETATM    5  C   UNL     1      42.182 -12.888  -0.989  1.00  0.00     0.065 A 
HETATM    6  C   UNL     1      42.797 -11.538  -1.036  1.00  0.00     0.073 C 
HETATM    7  C   UNL     1      41.669 -13.587   0.140  1.00  0.00     0.046 A 
ENDROOT
BRANCH   1   8
HETATM    8  N   UNL     1      40.697 -15.879   0.322  1.00  0.00    -0.309 N 
HETATM    9  C   UNL     1      41.293 -16.977   0.882  1.00  0.00     0.247 C 
HETATM   10  O   UNL     1      40.572 -17.860   1.357  1.00  0.00    -0.271 OA
HETATM   11  H   UNL     1      39.694 -15.837   0.473  1.00  0.00     0.170 HD
BRANCH   9  12
HETATM   12  C   UNL     1      42.809 -17.058   1.010  1.00  0.00     0.278 C 
BRANCH  12  13
HETATM   13  O   UNL     1      43.226 -17.006   2.373  1.00  0.00    -0.342 OA
BRANCH  13  14
HETATM   14  C   UNL     1      43.635 -18.221   2.864  1.00  0.00     0.075 A 
HETATM   15  C   UNL     1      43.785 -19.341   2.037  1.00  0.00     0.044 A 
HETATM   16  C   UNL     1      44.187 -20.571   2.572  1.00  0.00    -0.059 A 
HETATM   17  C   UNL     1      44.345 -21.772   1.688  1.00  0.00     0.048 C 
HETATM   18  C   UNL     1      44.496 -20.650   3.933  1.00  0.00     0.007 A 
HETATM   19  C   UNL     1      44.390 -19.522   4.750  1.00  0.00     0.010 A 
HETATM   20  C   UNL     1      43.957 -18.296   4.226  1.00  0.00    -0.029 A 
HETATM   21  C   UNL     1      43.869 -17.088   5.114  1.00  0.00     0.051 C 
ENDBRANCH  13  14
ENDBRANCH  12  13
ENDBRANCH   9  12
ENDBRANCH   1   8
BRANCH   7  22
HETATM   22  C   UNL     1      41.616 -13.193   1.537  1.00  0.00    -0.020 A 
HETATM   23  C   UNL     1      42.633 -13.577   2.418  1.00  0.00     0.014 A 
HETATM   24  C   UNL     1      42.578 -13.205   3.765  1.00  0.00     0.020 A 
HETATM   25  C   UNL     1      41.505 -12.447   4.232  1.00  0.00     0.011 A 
HETATM   26 BR   UNL     1      41.432 -11.942   6.051  1.00  0.00    -0.051 Br
HETATM   27  C   UNL     1      40.483 -12.062   3.367  1.00  0.00     0.020 A 
HETATM   28  C   UNL     1      40.538 -12.439   2.023  1.00  0.00     0.014 A 
ENDBRANCH   7  22
TORSDOF 5
ENDMDL
MODEL 4
REMARK VINA RESULT:      -8.2      3.344      4.555
REMARK  5 active torsions:
REMARK  status: ('A' for Active; 'I' for Inactive)
REMARK    1  A    between atoms: C_4  and  O_5 
REMARK    2  A    between atoms: O_5  and  C_6 
REMARK    3  A    between atoms: C_6  and  C_7 
REMARK       I    between atoms: C_7  and  N_8 
REMARK    4  A    between atoms: N_8  and  C_9 
REMARK    5  A    between atoms: C_15  and  C_16 
ROOT
HETATM    1  C   UNL     1      39.987 -14.184   5.762  1.00  0.00     0.137 A 
HETATM    2  N   UNL     1      39.851 -13.318   6.816  1.00  0.00    -0.262 N 
HETATM    3  H   UNL     1      39.742 -13.545   7.800  1.00  0.00     0.191 HD
HETATM    4  N   UNL     1      39.926 -12.023   6.473  1.00  0.00    -0.177 NA
HETATM    5  C   UNL     1      40.164 -12.049   5.156  1.00  0.00     0.065 A 
HETATM    6  C   UNL     1      40.292 -10.778   4.400  1.00  0.00     0.073 C 
HETATM    7  C   UNL     1      40.241 -13.382   4.662  1.00  0.00     0.046 A 
ENDROOT
BRANCH   1   8
HETATM    8  N   UNL     1      39.959 -15.564   5.840  1.00  0.00    -0.309 N 
HETATM    9  C   UNL     1      40.987 -16.457   5.696  1.00  0.00     0.247 C 
HETATM   10  O   UNL     1      40.724 -17.664   5.706  1.00  0.00    -0.271 OA
HETATM   11  H   UNL     1      39.072 -15.998   6.078  1.00  0.00     0.170 HD
BRANCH   9  12
HETATM   12  C   UNL     1      42.431 -15.976   5.630  1.00  0.00     0.278 C 
BRANCH  12  13
HETATM   13  O   UNL     1      43.352 -17.038   5.868  1.00  0.00    -0.342 OA
BRANCH  13  14
HETATM   14  C   UNL     1      43.615 -17.791   4.751  1.00  0.00     0.075 A 
HETATM   15  C   UNL     1      43.573 -17.244   3.463  1.00  0.00     0.044 A 
HETATM   16  C   UNL     1      43.831 -18.043   2.341  1.00  0.00    -0.059 A 
HETATM   17  C   UNL     1      43.783 -17.458   0.961  1.00  0.00     0.048 C 
HETATM   18  C   UNL     1      44.189 -19.381   2.531  1.00  0.00     0.007 A 
HETATM   19  C   UNL     1      44.275 -19.916   3.819  1.00  0.00     0.010 A 
HETATM   20  C   UNL     1      43.988 -19.129   4.942  1.00  0.00    -0.029 A 
HETATM   21  C   UNL     1      44.105 -19.715   6.320  1.00  0.00     0.051 C 
ENDBRANCH  13  14
ENDBRANCH  12  13
ENDBRANCH   9  12
ENDBRANCH   1   8
BRANCH   7  22
HETATM   22  C   UNL     1      40.448 -13.866   3.308  1.00  0.00    -0.020 A 
HETATM   23  C   UNL     1      41.724 -13.831   2.733  1.00  0.00     0.014 A 
HETATM   24  C   UNL     1      41.922 -14.289   1.427  1.00  0.00     0.020 A 
HETATM   25  C   UNL     1      40.844 -14.783   0.694  1.00  0.00     0.011 A 
HETATM   26 BR   UNL     1      41.112 -15.405  -1.070  1.00  0.00    -0.051 Br
HETATM   27  C   UNL     1      39.568 -14.820   1.252  1.00  0.00     0.020 A 
HETATM   28  C   UNL     1      39.371 -14.358   2.556  1.00  0.00     0.014 A 
ENDBRANCH   7  22
TORSDOF 5
ENDMDL
MODEL 5
REMARK VINA RESULT:      -7.9      3.200      4.313
REMARK  5 active torsions:
REMARK  status: ('A' for Active; 'I' for Inactive)
REMARK    1  A    between atoms: C_4  and  O_5 
REMARK    2  A    between atoms: O_5  and  C_6 
REMARK    3  A    between atoms: C_6  and  C_7 
REMARK       I    between atoms: C_7  and  N_8 
REMARK    4  A    between atoms: N_8  and  C_9 
REMARK    5  A    between atoms: C_15  and  C_16 
ROOT
HETATM    1  C   UNL     1      40.574 -14.515   5.128  1.00  0.00     0.137 A 
HETATM    2  N   UNL     1      40.730 -13.828   6.305  1.00  0.00    -0.262 N 
HETATM    3  H   UNL     1      40.749 -14.203   7.249  1.00  0.00     0.191 HD
HETATM    4  N   UNL     1      40.930 -12.510   6.147  1.00  0.00    -0.177 NA
HETATM    5  C   UNL     1      40.949 -12.342   4.819  1.00  0.00     0.065 A 
HETATM    6  C   UNL     1      41.132 -10.985   4.246  1.00  0.00     0.073 C 
HETATM    7  C   UNL     1      40.759 -13.573   4.130  1.00  0.00     0.046 A 
ENDROOT
BRANCH   1   8
HETATM    8  N   UNL     1      40.366 -15.876   5.008  1.00  0.00    -0.309 N 
HETATM    9  C   UNL     1      41.287 -16.880   4.874  1.00  0.00     0.247 C 
HETATM   10  O   UNL     1      40.880 -18.031   4.682  1.00  0.00    -0.271 OA
HETATM   11  H   UNL     1      39.408 -16.206   5.067  1.00  0.00     0.170 HD
BRANCH   9  12
HETATM   12  C   UNL     1      42.773 -16.603   5.063  1.00  0.00     0.278 C 
BRANCH  12  13
HETATM   13  O   UNL     1      43.493 -16.733   3.839  1.00  0.00    -0.342 OA
BRANCH  13  14
HETATM   14  C   UNL     1      43.753 -18.037   3.497  1.00  0.00     0.075 A 
HETATM   15  C   UNL     1      44.234 -18.965   4.428  1.00  0.00     0.044 A 
HETATM   16  C   UNL     1      44.506 -20.284   4.043  1.00  0.00    -0.059 A 
HETATM   17  C   UNL     1      45.023 -21.278   5.039  1.00  0.00     0.048 C 
HETATM   18  C   UNL     1      44.233 -20.675   2.729  1.00  0.00     0.007 A 
HETATM   19  C   UNL     1      43.712 -19.761   1.810  1.00  0.00     0.010 A 
HETATM   20  C   UNL     1      43.468 -18.432   2.183  1.00  0.00    -0.029 A 
HETATM   21  C   UNL     1      42.888 -17.468   1.188  1.00  0.00     0.051 C 
ENDBRANCH  13  14
ENDBRANCH  12  13
ENDBRANCH   9  12
ENDBRANCH   1   8
BRANCH   7  22
HETATM   22  C   UNL     1      40.678 -13.844   2.705  1.00  0.00    -0.020 A 
HETATM   23  C   UNL     1      41.840 -13.871   1.924  1.00  0.00     0.014 A 
HETATM   24  C   UNL     1      41.761 -14.122   0.551  1.00  0.00     0.020 A 
HETATM   25  C   UNL     1      40.520 -14.348  -0.043  1.00  0.00     0.011 A 
HETATM   26 BR   UNL     1      40.414 -14.691  -1.898  1.00  0.00    -0.051 Br
HETATM   27  C   UNL     1      39.355 -14.320   0.721  1.00  0.00     0.020 A 
HETATM   28  C   UNL     1      39.436 -14.064   2.092  1.00  0.00     0.014 A 
ENDBRANCH   7  22
TORSDOF 5
ENDMDL
MODEL 6
REMARK VINA RESULT:      -7.9      1.972      2.601
REMARK  5 active torsions:
REMARK  status: ('A' for Active; 'I' for Inactive)
REMARK    1  A    between atoms: C_4  and  O_5 
REMARK    2  A    between atoms: O_5  and  C_6 
REMARK    3  A    between atoms: C_6  and  C_7 
REMARK       I    between atoms: C_7  and  N_8 
REMARK    4  A    between atoms: N_8  and  C_9 
REMARK    5  A    between atoms: C_15  and  C_16 
ROOT
HETATM    1  C   UNL     1      41.338 -14.774  -0.514  1.00  0.00     0.137 A 
HETATM    2  N   UNL     1      41.610 -14.623  -1.849  1.00  0.00    -0.262 N 
HETATM    3  H   UNL     1      41.414 -15.275  -2.604  1.00  0.00     0.191 HD
HETATM    4  N   UNL     1      42.155 -13.438  -2.166  1.00  0.00    -0.177 NA
HETATM    5  C   UNL     1      42.197 -12.779  -1.002  1.00  0.00     0.065 A 
HETATM    6  C   UNL     1      42.768 -11.410  -0.946  1.00  0.00     0.073 C 
HETATM    7  C   UNL     1      41.669 -13.560   0.065  1.00  0.00     0.046 A 
ENDROOT
BRANCH   1   8
HETATM    8  N   UNL     1      40.769 -15.887   0.075  1.00  0.00    -0.309 N 
HETATM    9  C   UNL     1      41.382 -16.950   0.683  1.00  0.00     0.247 C 
HETATM   10  O   UNL     1      40.684 -17.896   1.062  1.00  0.00    -0.271 OA
HETATM   11  H   UNL     1      39.755 -15.926   0.113  1.00  0.00     0.170 HD
BRANCH   9  12
HETATM   12  C   UNL     1      42.877 -16.918   0.982  1.00  0.00     0.278 C 
BRANCH  12  13
HETATM   13  O   UNL     1      43.372 -18.209   1.329  1.00  0.00    -0.342 OA
BRANCH  13  14
HETATM   14  C   UNL     1      43.658 -18.340   2.666  1.00  0.00     0.075 A 
HETATM   15  C   UNL     1      43.496 -17.280   3.565  1.00  0.00     0.044 A 
HETATM   16  C   UNL     1      43.814 -17.441   4.920  1.00  0.00    -0.059 A 
HETATM   17  C   UNL     1      43.644 -16.304   5.884  1.00  0.00     0.048 C 
HETATM   18  C   UNL     1      44.237 -18.694   5.372  1.00  0.00     0.007 A 
HETATM   19  C   UNL     1      44.356 -19.765   4.483  1.00  0.00     0.010 A 
HETATM   20  C   UNL     1      44.069 -19.601   3.121  1.00  0.00    -0.029 A 
HETATM   21  C   UNL     1      44.182 -20.768   2.183  1.00  0.00     0.051 C 
ENDBRANCH  13  14
ENDBRANCH  12  13
ENDBRANCH   9  12
ENDBRANCH   1   8
BRANCH   7  22
HETATM   22  C   UNL     1      41.555 -13.253   1.480  1.00  0.00    -0.020 A 
HETATM   23  C   UNL     1      40.368 -12.715   1.992  1.00  0.00     0.014 A 
HETATM   24  C   UNL     1      40.261 -12.411   3.352  1.00  0.00     0.020 A 
HETATM   25  C   UNL     1      41.340 -12.646   4.204  1.00  0.00     0.011 A 
HETATM   26 BR   UNL     1      41.193 -12.238   6.043  1.00  0.00    -0.051 Br
HETATM   27  C   UNL     1      42.528 -13.178   3.707  1.00  0.00     0.020 A 
HETATM   28  C   UNL     1      42.636 -13.476   2.346  1.00  0.00     0.014 A 
ENDBRANCH   7  22
TORSDOF 5
ENDMDL
MODEL 7
REMARK VINA RESULT:      -7.9      3.468      6.561
REMARK  5 active torsions:
REMARK  status: ('A' for Active; 'I' for Inactive)
REMARK    1  A    between atoms: C_4  and  O_5 
REMARK    2  A    between atoms: O_5  and  C_6 
REMARK    3  A    between atoms: C_6  and  C_7 
REMARK       I    between atoms: C_7  and  N_8 
REMARK    4  A    between atoms: N_8  and  C_9 
REMARK    5  A    between atoms: C_15  and  C_16 
ROOT
HETATM    1  C   UNL     1      41.103 -14.640   4.352  1.00  0.00     0.137 A 
HETATM    2  N   UNL     1      41.041 -13.442   5.018  1.00  0.00    -0.262 N 
HETATM    3  H   UNL     1      40.259 -12.795   5.067  1.00  0.00     0.191 HD
HETATM    4  N   UNL     1      42.148 -13.148   5.718  1.00  0.00    -0.177 NA
HETATM    5  C   UNL     1      42.939 -14.213   5.537  1.00  0.00     0.065 A 
HETATM    6  C   UNL     1      44.288 -14.247   6.154  1.00  0.00     0.073 C 
HETATM    7  C   UNL     1      42.321 -15.193   4.710  1.00  0.00     0.046 A 
ENDROOT
BRANCH   1   8
HETATM    8  N   UNL     1      40.101 -15.183   3.570  1.00  0.00    -0.309 N 
HETATM    9  C   UNL     1      39.859 -15.009   2.234  1.00  0.00     0.247 C 
HETATM   10  O   UNL     1      38.843 -15.514   1.748  1.00  0.00    -0.271 OA
HETATM   11  H   UNL     1      39.468 -15.840   4.017  1.00  0.00     0.170 HD
BRANCH   9  12
HETATM   12  C   UNL     1      40.874 -14.297   1.347  1.00  0.00     0.278 C 
BRANCH  12  13
HETATM   13  O   UNL     1      40.908 -14.853   0.035  1.00  0.00    -0.342 OA
BRANCH  13  14
HETATM   14  C   UNL     1      41.417 -13.994  -0.908  1.00  0.00     0.075 A 
HETATM   15  C   UNL     1      42.054 -12.799  -0.553  1.00  0.00     0.044 A 
HETATM   16  C   UNL     1      42.548 -11.935  -1.539  1.00  0.00    -0.059 A 
HETATM   17  C   UNL     1      43.227 -10.653  -1.159  1.00  0.00     0.048 C 
HETATM   18  C   UNL     1      42.449 -12.313  -2.881  1.00  0.00     0.007 A 
HETATM   19  C   UNL     1      41.853 -13.527  -3.234  1.00  0.00     0.010 A 
HETATM   20  C   UNL     1      41.330 -14.380  -2.252  1.00  0.00    -0.029 A 
HETATM   21  C   UNL     1      40.712 -15.690  -2.648  1.00  0.00     0.051 C 
ENDBRANCH  13  14
ENDBRANCH  12  13
ENDBRANCH   9  12
ENDBRANCH   1   8
BRANCH   7  22
HETATM   22  C   UNL     1      42.828 -16.470   4.236  1.00  0.00    -0.020 A 
HETATM   23  C   UNL     1      42.761 -17.603   5.054  1.00  0.00     0.014 A 
HETATM   24  C   UNL     1      43.257 -18.830   4.601  1.00  0.00     0.020 A 
HETATM   25  C   UNL     1      43.819 -18.924   3.329  1.00  0.00     0.011 A 
HETATM   26 BR   UNL     1      44.485 -20.582   2.715  1.00  0.00    -0.051 Br
HETATM   27  C   UNL     1      43.895 -17.802   2.505  1.00  0.00     0.020 A 
HETATM   28  C   UNL     1      43.404 -16.577   2.962  1.00  0.00     0.014 A 
ENDBRANCH   7  22
TORSDOF 5
ENDMDL
MODEL 8
REMARK VINA RESULT:      -7.9      2.123      3.360
REMARK  5 active torsions:
REMARK  status: ('A' for Active; 'I' for Inactive)
REMARK    1  A    between atoms: C_4  and  O_5 
REMARK    2  A    between atoms: O_5  and  C_6 
REMARK    3  A    between atoms: C_6  and  C_7 
REMARK       I    between atoms: C_7  and  N_8 
REMARK    4  A    between atoms: N_8  and  C_9 
REMARK    5  A    between atoms: C_15  and  C_16 
ROOT
HETATM    1  C   UNL     1      40.904 -16.349   1.833  1.00  0.00     0.137 A 
HETATM    2  N   UNL     1      40.957 -17.040   0.650  1.00  0.00    -0.262 N 
HETATM    3  H   UNL     1      40.808 -18.034   0.500  1.00  0.00     0.191 HD
HETATM    4  N   UNL     1      41.185 -16.268  -0.425  1.00  0.00    -0.177 NA
HETATM    5  C   UNL     1      41.238 -15.027   0.072  1.00  0.00     0.065 A 
HETATM    6  C   UNL     1      41.501 -13.878  -0.830  1.00  0.00     0.073 C 
HETATM    7  C   UNL     1      41.038 -15.016   1.482  1.00  0.00     0.046 A 
ENDROOT
BRANCH   1   8
HETATM    8  N   UNL     1      40.673 -16.897   3.080  1.00  0.00    -0.309 N 
HETATM    9  C   UNL     1      41.561 -17.479   3.944  1.00  0.00     0.247 C 
HETATM   10  O   UNL     1      41.125 -17.998   4.977  1.00  0.00    -0.271 OA
HETATM   11  H   UNL     1      39.728 -16.833   3.448  1.00  0.00     0.170 HD
BRANCH   9  12
HETATM   12  C   UNL     1      43.062 -17.396   3.690  1.00  0.00     0.278 C 
BRANCH  12  13
HETATM   13  O   UNL     1      43.810 -17.955   4.766  1.00  0.00    -0.342 OA
BRANCH  13  14
HETATM   14  C   UNL     1      44.071 -19.294   4.610  1.00  0.00     0.075 A 
HETATM   15  C   UNL     1      44.264 -19.869   3.348  1.00  0.00     0.044 A 
HETATM   16  C   UNL     1      44.511 -21.242   3.222  1.00  0.00    -0.059 A 
HETATM   17  C   UNL     1      44.715 -21.858   1.870  1.00  0.00     0.048 C 
HETATM   18  C   UNL     1      44.623 -22.019   4.378  1.00  0.00     0.007 A 
HETATM   19  C   UNL     1      44.475 -21.438   5.640  1.00  0.00     0.010 A 
HETATM   20  C   UNL     1      44.196 -20.071   5.770  1.00  0.00    -0.029 A 
HETATM   21  C   UNL     1      44.061 -19.459   7.135  1.00  0.00     0.051 C 
ENDBRANCH  13  14
ENDBRANCH  12  13
ENDBRANCH   9  12
ENDBRANCH   1   8
BRANCH   7  22
HETATM   22  C   UNL     1      41.049 -13.905   2.418  1.00  0.00    -0.020 A 
HETATM   23  C   UNL     1      39.908 -13.111   2.585  1.00  0.00     0.014 A 
HETATM   24  C   UNL     1      39.921 -12.037   3.479  1.00  0.00     0.020 A 
HETATM   25  C   UNL     1      41.075 -11.755   4.210  1.00  0.00     0.011 A 
HETATM   26 BR   UNL     1      41.091 -10.305   5.421  1.00  0.00    -0.051 Br
HETATM   27  C   UNL     1      42.219 -12.535   4.051  1.00  0.00     0.020 A 
HETATM   28  C   UNL     1      42.206 -13.605   3.153  1.00  0.00     0.014 A 
ENDBRANCH   7  22
TORSDOF 5
ENDMDL
MODEL 9
REMARK VINA RESULT:      -7.8      3.486      4.399
REMARK  5 active torsions:
REMARK  status: ('A' for Active; 'I' for Inactive)
REMARK    1  A    between atoms: C_4  and  O_5 
REMARK    2  A    between atoms: O_5  and  C_6 
REMARK    3  A    between atoms: C_6  and  C_7 
REMARK       I    between atoms: C_7  and  N_8 
REMARK    4  A    between atoms: N_8  and  C_9 
REMARK    5  A    between atoms: C_15  and  C_16 
ROOT
HETATM    1  C   UNL     1      43.257 -13.566   4.622  1.00  0.00     0.137 A 
HETATM    2  N   UNL     1      43.647 -13.886   3.347  1.00  0.00    -0.262 N 
HETATM    3  H   UNL     1      44.408 -14.495   3.061  1.00  0.00     0.191 HD
HETATM    4  N   UNL     1      42.874 -13.351   2.388  1.00  0.00    -0.177 NA
HETATM    5  C   UNL     1      41.923 -12.696   3.066  1.00  0.00     0.065 A 
HETATM    6  C   UNL     1      40.875 -11.945   2.332  1.00  0.00     0.073 C 
HETATM    7  C   UNL     1      42.098 -12.822   4.473  1.00  0.00     0.046 A 
ENDROOT
BRANCH   1   8
HETATM    8  N   UNL     1      43.869 -13.991   5.786  1.00  0.00    -0.309 N 
HETATM    9  C   UNL     1      43.652 -15.135   6.507  1.00  0.00     0.247 C 
HETATM   10  O   UNL     1      44.245 -15.276   7.581  1.00  0.00    -0.271 OA
HETATM   11  H   UNL     1      44.619 -13.413   6.154  1.00  0.00     0.170 HD
BRANCH   9  12
HETATM   12  C   UNL     1      42.780 -16.253   5.946  1.00  0.00     0.278 C 
BRANCH  12  13
HETATM   13  O   UNL     1      43.404 -17.527   6.088  1.00  0.00    -0.342 OA
BRANCH  13  14
HETATM   14  C   UNL     1      43.659 -18.144   4.888  1.00  0.00     0.075 A 
HETATM   15  C   UNL     1      43.624 -17.447   3.675  1.00  0.00     0.044 A 
HETATM   16  C   UNL     1      43.872 -18.109   2.465  1.00  0.00    -0.059 A 
HETATM   17  C   UNL     1      43.831 -17.363   1.165  1.00  0.00     0.048 C 
HETATM   18  C   UNL     1      44.216 -19.464   2.494  1.00  0.00     0.007 A 
HETATM   19  C   UNL     1      44.295 -20.150   3.708  1.00  0.00     0.010 A 
HETATM   20  C   UNL     1      44.017 -19.499   4.918  1.00  0.00    -0.029 A 
HETATM   21  C   UNL     1      44.128 -20.247   6.215  1.00  0.00     0.051 C 
ENDBRANCH  13  14
ENDBRANCH  12  13
ENDBRANCH   9  12
ENDBRANCH   1   8
BRANCH   7  22
HETATM   22  C   UNL     1      41.327 -12.253   5.565  1.00  0.00    -0.020 A 
HETATM   23  C   UNL     1      41.732 -11.055   6.165  1.00  0.00     0.014 A 
HETATM   24  C   UNL     1      40.994 -10.512   7.222  1.00  0.00     0.020 A 
HETATM   25  C   UNL     1      39.851 -11.166   7.679  1.00  0.00     0.011 A 
HETATM   26 BR   UNL     1      38.853 -10.430   9.104  1.00  0.00    -0.051 Br
HETATM   27  C   UNL     1      39.439 -12.361   7.092  1.00  0.00     0.020 A 
HETATM   28  C   UNL     1      40.180 -12.905   6.040  1.00  0.00     0.014 A 
ENDBRANCH   7  22
TORSDOF 5
ENDMDL
MODEL 10
REMARK VINA RESULT:      -7.8      3.255      4.191
REMARK  5 active torsions:
REMARK  status: ('A' for Active; 'I' for Inactive)
REMARK    1  A    between atoms: C_4  and  O_5 
REMARK    2  A    between atoms: O_5  and  C_6 
REMARK    3  A    between atoms: C_6  and  C_7 
REMARK       I    between atoms: C_7  and  N_8 
REMARK    4  A    between atoms: N_8  and  C_9 
REMARK    5  A    between atoms: C_15  and  C_16 
ROOT
HETATM    1  C   UNL     1      40.009 -14.613   4.824  1.00  0.00     0.137 A 
HETATM    2  N   UNL     1      39.666 -14.962   3.543  1.00  0.00    -0.262 N 
HETATM    3  H   UNL     1      39.524 -15.895   3.167  1.00  0.00     0.191 HD
HETATM    4  N   UNL     1      39.453 -13.916   2.730  1.00  0.00    -0.177 NA
HETATM    5  C   UNL     1      39.619 -12.850   3.522  1.00  0.00     0.065 A 
HETATM    6  C   UNL     1      39.481 -11.482   2.962  1.00  0.00     0.073 C 
HETATM    7  C   UNL     1      39.941 -13.230   4.855  1.00  0.00     0.046 A 
ENDROOT
BRANCH   1   8
HETATM    8  N   UNL     1      40.271 -15.491   5.859  1.00  0.00    -0.309 N 
HETATM    9  C   UNL     1      41.354 -16.308   6.044  1.00  0.00     0.247 C 
HETATM   10  O   UNL     1      41.345 -17.093   6.997  1.00  0.00    -0.271 OA
HETATM   11  H   UNL     1      39.603 -15.521   6.623  1.00  0.00     0.170 HD
BRANCH   9  12
HETATM   12  C   UNL     1      42.587 -16.176   5.156  1.00  0.00     0.278 C 
BRANCH  12  13
HETATM   13  O   UNL     1      42.300 -16.517   3.802  1.00  0.00    -0.342 OA
BRANCH  13  14
HETATM   14  C   UNL     1      42.848 -17.714   3.414  1.00  0.00     0.075 A 
HETATM   15  C   UNL     1      43.714 -18.436   4.244  1.00  0.00     0.044 A 
HETATM   16  C   UNL     1      44.270 -19.646   3.812  1.00  0.00    -0.059 A 
HETATM   17  C   UNL     1      45.200 -20.419   4.700  1.00  0.00     0.048 C 
HETATM   18  C   UNL     1      43.902 -20.153   2.562  1.00  0.00     0.007 A 
HETATM   19  C   UNL     1      43.004 -19.455   1.752  1.00  0.00     0.010 A 
HETATM   20  C   UNL     1      42.468 -18.228   2.167  1.00  0.00    -0.029 A 
HETATM   21  C   UNL     1      41.488 -17.502   1.291  1.00  0.00     0.051 C 
ENDBRANCH  13  14
ENDBRANCH  12  13
ENDBRANCH   9  12
ENDBRANCH   1   8
BRANCH   7  22
HETATM   22  C   UNL     1      40.234 -12.407   6.017  1.00  0.00    -0.020 A 
HETATM   23  C   UNL     1      39.266 -12.220   7.010  1.00  0.00     0.014 A 
HETATM   24  C   UNL     1      39.544 -11.421   8.124  1.00  0.00     0.020 A 
HETATM   25  C   UNL     1      40.791 -10.810   8.246  1.00  0.00     0.011 A 
HETATM   26 BR   UNL     1      41.168  -9.734   9.752  1.00  0.00    -0.051 Br
HETATM   27  C   UNL     1      41.762 -10.986   7.262  1.00  0.00     0.020 A 
HETATM   28  C   UNL     1      41.481 -11.780   6.148  1.00  0.00     0.014 A 
ENDBRANCH   7  22
TORSDOF 5
ENDMDL
