MODEL 1
REMARK VINA RESULT:      -9.6      0.000      0.000
REMARK  5 active torsions:
REMARK  status: ('A' for Active; 'I' for Inactive)
REMARK    1  A    between atoms: C_4  and  C_5 
REMARK       I    between atoms: C_5  and  N_6 
REMARK    2  A    between atoms: C_9  and  C_10 
REMARK    3  A    between atoms: C_10  and  C_11 
REMARK    4  A    between atoms: N_20  and  C_21 
REMARK    5  A    between atoms: C_21  and  C_22 
ROOT
HETATM    1  C   UNL     1      42.412 -14.964   4.871  1.00  0.00     0.148 A 
HETATM    2  N   UNL     1      41.495 -16.035   4.492  1.00  0.00    -0.320 N 
HETATM    3  C   UNL     1      41.614 -17.158   5.272  1.00  0.00     0.326 A 
HETATM    4  O   UNL     1      40.886 -18.129   5.175  1.00  0.00    -0.247 OA
HETATM    5  N   UNL     1      42.673 -16.996   6.099  1.00  0.00    -0.263 N 
HETATM    6  C   UNL     1      43.230 -15.764   5.923  1.00  0.00     0.262 A 
HETATM    7  O   UNL     1      44.226 -15.362   6.511  1.00  0.00    -0.270 OA
HETATM    8  H   UNL     1      40.672 -15.928   3.914  1.00  0.00     0.166 HD
ENDROOT
BRANCH   1   9
HETATM    9  C   UNL     1      43.231 -14.505   3.614  1.00  0.00     0.031 C 
HETATM   10  C   UNL     1      43.579 -15.596   2.583  1.00  0.00     0.028 C 
HETATM   11  C   UNL     1      42.503 -15.884   1.543  1.00  0.00     0.126 C 
HETATM   12  N   UNL     1      41.909 -14.684   0.945  1.00  0.00    -0.350 N 
HETATM   13  C   UNL     1      41.223 -14.887  -0.252  1.00  0.00     0.251 C 
HETATM   14  C   UNL     1      41.578 -13.592   1.861  1.00  0.00     0.126 C 
HETATM   15  O   UNL     1      41.209 -15.976  -0.840  1.00  0.00    -0.271 OA
HETATM   16  C   UNL     1      42.682 -13.279   2.861  1.00  0.00     0.028 C 
BRANCH  13  17
HETATM   17  C   UNL     1      40.477 -13.705  -0.925  1.00  0.00     0.279 C 
HETATM   18  N   UNL     1      40.995 -13.504  -2.374  1.00  0.00    -0.062 N 
HETATM   19  C   UNL     1      42.461 -13.140  -2.415  1.00  0.00     0.270 C 
HETATM   20  H   UNL     1      40.940 -14.445  -2.799  1.00  0.00     0.280 HD
HETATM   21  C   UNL     1      40.190 -12.532  -3.191  1.00  0.00     0.235 C 
HETATM   22  C   UNL     1      38.726 -12.926  -3.203  1.00  0.00     0.028 C 
HETATM   23  C   UNL     1      38.178 -13.029  -1.790  1.00  0.00     0.004 C 
HETATM   24  C   UNL     1      38.979 -14.035  -0.977  1.00  0.00     0.043 C 
ENDBRANCH  13  17
ENDBRANCH   1   9
BRANCH   1  25
HETATM   25  C   UNL     1      41.599 -13.820   5.473  1.00  0.00    -0.003 A 
HETATM   26  C   UNL     1      42.183 -12.682   6.030  1.00  0.00     0.126 A 
HETATM   27  N   UNL     1      41.490 -11.642   6.548  1.00  0.00    -0.272 NA
HETATM   28  C   UNL     1      40.144 -11.724   6.530  1.00  0.00     0.116 A 
HETATM   29  C   UNL     1      39.455 -12.797   6.000  1.00  0.00     0.020 A 
HETATM   30  C   UNL     1      40.192 -13.850   5.462  1.00  0.00     0.013 A 
ENDBRANCH   1  25
BRANCH   5  31
HETATM   31  C   UNL     1      43.116 -17.974   7.067  1.00  0.00     0.175 C 
BRANCH  31  32
HETATM   32  C   UNL     1      43.701 -19.196   6.400  1.00  0.00    -0.040 A 
HETATM   33  C   UNL     1      43.555 -20.462   6.987  1.00  0.00     0.012 A 
HETATM   34  C   UNL     1      44.108 -21.589   6.378  1.00  0.00     0.043 A 
HETATM   35  C   UNL     1      44.817 -21.451   5.191  1.00  0.00     0.116 A 
HETATM   36  F   UNL     1      45.347 -22.534   4.608  1.00  0.00    -0.206 F 
HETATM   37  C   UNL     1      44.987 -20.205   4.602  1.00  0.00     0.043 A 
HETATM   38  C   UNL     1      44.431 -19.075   5.206  1.00  0.00     0.012 A 
ENDBRANCH  31  32
ENDBRANCH   5  31
TORSDOF 5
ENDMDL
MODEL 2
REMARK VINA RESULT:      -9.6      3.057      6.131
REMARK  5 active torsions:
REMARK  status: ('A' for Active; 'I' for Inactive)
REMARK    1  A    between atoms: C_4  and  C_5 
REMARK       I    between atoms: C_5  and  N_6 
REMARK    2  A    between atoms: C_9  and  C_10 
REMARK    3  A    between atoms: C_10  and  C_11 
REMARK    4  A    between atoms: N_20  and  C_21 
REMARK    5  A    between atoms: C_21  and  C_22 
ROOT
HETATM    1  C   UNL     1      42.364 -17.034   2.888  1.00  0.00     0.148 A 
HETATM    2  N   UNL     1      43.247 -15.945   2.481  1.00  0.00    -0.320 N 
HETATM    3  C   UNL     1      43.394 -14.974   3.438  1.00  0.00     0.326 A 
HETATM    4  O   UNL     1      44.151 -14.026   3.330  1.00  0.00    -0.247 OA
HETATM    5  N   UNL     1      42.544 -15.242   4.457  1.00  0.00    -0.263 N 
HETATM    6  C   UNL     1      41.870 -16.403   4.220  1.00  0.00     0.262 A 
HETATM    7  O   UNL     1      41.008 -16.869   4.954  1.00  0.00    -0.270 OA
HETATM    8  H   UNL     1      43.906 -15.977   1.713  1.00  0.00     0.166 HD
ENDROOT
BRANCH   1   9
HETATM    9  C   UNL     1      41.247 -17.237   1.805  1.00  0.00     0.031 C 
HETATM   10  C   UNL     1      39.868 -16.622   2.114  1.00  0.00     0.028 C 
HETATM   11  C   UNL     1      39.703 -15.154   1.739  1.00  0.00     0.126 C 
HETATM   12  N   UNL     1      40.207 -14.816   0.403  1.00  0.00    -0.350 N 
HETATM   13  C   UNL     1      39.741 -13.613  -0.126  1.00  0.00     0.251 C 
HETATM   14  C   UNL     1      41.499 -15.388   0.027  1.00  0.00     0.126 C 
HETATM   15  O   UNL     1      38.874 -12.928   0.429  1.00  0.00    -0.271 OA
HETATM   16  C   UNL     1      41.632 -16.867   0.360  1.00  0.00     0.028 C 
BRANCH  13  17
HETATM   17  C   UNL     1      40.279 -13.110  -1.492  1.00  0.00     0.279 C 
HETATM   18  N   UNL     1      39.099 -12.852  -2.467  1.00  0.00    -0.062 N 
HETATM   19  C   UNL     1      38.319 -14.110  -2.771  1.00  0.00     0.270 C 
HETATM   20  H   UNL     1      38.447 -12.256  -1.929  1.00  0.00     0.280 HD
HETATM   21  C   UNL     1      39.487 -12.155  -3.741  1.00  0.00     0.235 C 
HETATM   22  C   UNL     1      40.219 -10.861  -3.441  1.00  0.00     0.028 C 
HETATM   23  C   UNL     1      41.437 -11.113  -2.568  1.00  0.00     0.004 C 
HETATM   24  C   UNL     1      41.032 -11.792  -1.269  1.00  0.00     0.043 C 
ENDBRANCH  13  17
ENDBRANCH   1   9
BRANCH   1  25
HETATM   25  C   UNL     1      43.206 -18.293   3.084  1.00  0.00    -0.003 A 
HETATM   26  C   UNL     1      43.971 -18.525   4.227  1.00  0.00     0.126 A 
HETATM   27  N   UNL     1      44.707 -19.640   4.441  1.00  0.00    -0.272 NA
HETATM   28  C   UNL     1      44.703 -20.580   3.476  1.00  0.00     0.116 A 
HETATM   29  C   UNL     1      43.979 -20.464   2.305  1.00  0.00     0.020 A 
HETATM   30  C   UNL     1      43.221 -19.312   2.113  1.00  0.00     0.013 A 
ENDBRANCH   1  25
BRANCH   5  31
HETATM   31  C   UNL     1      42.408 -14.434   5.647  1.00  0.00     0.175 C 
BRANCH  31  32
HETATM   32  C   UNL     1      41.376 -13.346   5.471  1.00  0.00    -0.040 A 
HETATM   33  C   UNL     1      41.746 -12.097   4.949  1.00  0.00     0.012 A 
HETATM   34  C   UNL     1      40.794 -11.086   4.800  1.00  0.00     0.043 A 
HETATM   35  C   UNL     1      39.480 -11.318   5.183  1.00  0.00     0.116 A 
HETATM   36  F   UNL     1      38.568 -10.348   5.038  1.00  0.00    -0.206 F 
HETATM   37  C   UNL     1      39.096 -12.542   5.717  1.00  0.00     0.043 A 
HETATM   38  C   UNL     1      40.044 -13.557   5.864  1.00  0.00     0.012 A 
ENDBRANCH  31  32
ENDBRANCH   5  31
TORSDOF 5
ENDMDL
MODEL 3
REMARK VINA RESULT:      -9.5      2.604      6.414
REMARK  5 active torsions:
REMARK  status: ('A' for Active; 'I' for Inactive)
REMARK    1  A    between atoms: C_4  and  C_5 
REMARK       I    between atoms: C_5  and  N_6 
REMARK    2  A    between atoms: C_9  and  C_10 
REMARK    3  A    between atoms: C_10  and  C_11 
REMARK    4  A    between atoms: N_20  and  C_21 
REMARK    5  A    between atoms: C_21  and  C_22 
ROOT
HETATM    1  C   UNL     1      40.858 -14.419   1.981  1.00  0.00     0.148 A 
HETATM    2  N   UNL     1      39.736 -14.171   2.881  1.00  0.00    -0.320 N 
HETATM    3  C   UNL     1      40.119 -13.846   4.157  1.00  0.00     0.326 A 
HETATM    4  O   UNL     1      39.341 -13.522   5.036  1.00  0.00    -0.247 OA
HETATM    5  N   UNL     1      41.462 -13.991   4.252  1.00  0.00    -0.263 N 
HETATM    6  C   UNL     1      41.987 -14.355   3.048  1.00  0.00     0.262 A 
HETATM    7  O   UNL     1      43.172 -14.594   2.850  1.00  0.00    -0.270 OA
HETATM    8  H   UNL     1      38.783 -13.985   2.596  1.00  0.00     0.166 HD
ENDROOT
BRANCH   1   9
HETATM    9  C   UNL     1      40.683 -15.819   1.295  1.00  0.00     0.031 C 
HETATM   10  C   UNL     1      41.762 -16.226   0.274  1.00  0.00     0.028 C 
HETATM   11  C   UNL     1      43.009 -16.879   0.860  1.00  0.00     0.126 C 
HETATM   12  N   UNL     1      42.729 -17.916   1.859  1.00  0.00    -0.350 N 
HETATM   13  C   UNL     1      43.784 -18.788   2.129  1.00  0.00     0.251 C 
HETATM   14  C   UNL     1      41.694 -17.612   2.846  1.00  0.00     0.126 C 
HETATM   15  O   UNL     1      44.845 -18.772   1.493  1.00  0.00    -0.271 OA
HETATM   16  C   UNL     1      40.434 -17.008   2.242  1.00  0.00     0.028 C 
BRANCH  13  17
HETATM   17  C   UNL     1      43.632 -19.865   3.235  1.00  0.00     0.279 C 
HETATM   18  N   UNL     1      44.335 -21.178   2.799  1.00  0.00    -0.062 N 
HETATM   19  C   UNL     1      43.718 -21.777   1.556  1.00  0.00     0.270 C 
HETATM   20  H   UNL     1      45.282 -20.879   2.510  1.00  0.00     0.280 HD
HETATM   21  C   UNL     1      44.440 -22.215   3.883  1.00  0.00     0.235 C 
HETATM   22  C   UNL     1      45.114 -21.637   5.112  1.00  0.00     0.028 C 
HETATM   23  C   UNL     1      44.376 -20.406   5.610  1.00  0.00     0.004 C 
HETATM   24  C   UNL     1      44.298 -19.351   4.518  1.00  0.00     0.043 C 
ENDBRANCH  13  17
ENDBRANCH   1   9
BRANCH   1  25
HETATM   25  C   UNL     1      40.920 -13.284   0.960  1.00  0.00    -0.003 A 
HETATM   26  C   UNL     1      42.002 -12.410   0.859  1.00  0.00     0.126 A 
HETATM   27  N   UNL     1      42.097 -11.413  -0.050  1.00  0.00    -0.272 NA
HETATM   28  C   UNL     1      41.067 -11.253  -0.905  1.00  0.00     0.116 A 
HETATM   29  C   UNL     1      39.947 -12.061  -0.904  1.00  0.00     0.020 A 
HETATM   30  C   UNL     1      39.878 -13.088   0.034  1.00  0.00     0.013 A 
ENDBRANCH   1  25
BRANCH   5  31
HETATM   31  C   UNL     1      42.231 -13.745   5.451  1.00  0.00     0.175 C 
BRANCH  31  32
HETATM   32  C   UNL     1      42.568 -15.027   6.173  1.00  0.00    -0.040 A 
HETATM   33  C   UNL     1      43.850 -15.221   6.711  1.00  0.00     0.012 A 
HETATM   34  C   UNL     1      44.166 -16.412   7.366  1.00  0.00     0.043 A 
HETATM   35  C   UNL     1      43.209 -17.413   7.472  1.00  0.00     0.116 A 
HETATM   36  F   UNL     1      43.514 -18.555   8.102  1.00  0.00    -0.206 F 
HETATM   37  C   UNL     1      41.940 -17.248   6.933  1.00  0.00     0.043 A 
HETATM   38  C   UNL     1      41.618 -16.056   6.281  1.00  0.00     0.012 A 
ENDBRANCH  31  32
ENDBRANCH   5  31
TORSDOF 5
ENDMDL
MODEL 4
REMARK VINA RESULT:      -9.3      2.016      2.850
REMARK  5 active torsions:
REMARK  status: ('A' for Active; 'I' for Inactive)
REMARK    1  A    between atoms: C_4  and  C_5 
REMARK       I    between atoms: C_5  and  N_6 
REMARK    2  A    between atoms: C_9  and  C_10 
REMARK    3  A    between atoms: C_10  and  C_11 
REMARK    4  A    between atoms: N_20  and  C_21 
REMARK    5  A    between atoms: C_21  and  C_22 
ROOT
HETATM    1  C   UNL     1      41.187 -15.830   3.392  1.00  0.00     0.148 A 
HETATM    2  N   UNL     1      40.673 -16.848   4.303  1.00  0.00    -0.320 N 
HETATM    3  C   UNL     1      41.657 -17.589   4.907  1.00  0.00     0.326 A 
HETATM    4  O   UNL     1      41.444 -18.430   5.762  1.00  0.00    -0.247 OA
HETATM    5  N   UNL     1      42.848 -17.246   4.362  1.00  0.00    -0.263 N 
HETATM    6  C   UNL     1      42.682 -16.253   3.444  1.00  0.00     0.262 A 
HETATM    7  O   UNL     1      43.583 -15.775   2.766  1.00  0.00    -0.270 OA
HETATM    8  H   UNL     1      39.737 -16.877   4.687  1.00  0.00     0.166 HD
ENDROOT
BRANCH   1   9
HETATM    9  C   UNL     1      40.508 -15.991   1.987  1.00  0.00     0.031 C 
HETATM   10  C   UNL     1      39.228 -15.169   1.743  1.00  0.00     0.028 C 
HETATM   11  C   UNL     1      39.447 -13.738   1.264  1.00  0.00     0.126 C 
HETATM   12  N   UNL     1      40.438 -13.611   0.189  1.00  0.00    -0.350 N 
HETATM   13  C   UNL     1      40.391 -12.416  -0.530  1.00  0.00     0.251 C 
HETATM   14  C   UNL     1      41.668 -14.386   0.339  1.00  0.00     0.126 C 
HETATM   15  O   UNL     1      39.507 -11.567  -0.362  1.00  0.00    -0.271 OA
HETATM   16  C   UNL     1      41.433 -15.828   0.767  1.00  0.00     0.028 C 
BRANCH  13  17
HETATM   17  C   UNL     1      41.450 -12.134  -1.627  1.00  0.00     0.279 C 
HETATM   18  N   UNL     1      40.768 -12.057  -3.019  1.00  0.00    -0.062 N 
HETATM   19  C   UNL     1      40.109 -13.359  -3.410  1.00  0.00     0.270 C 
HETATM   20  H   UNL     1      39.987 -11.391  -2.886  1.00  0.00     0.280 HD
HETATM   21  C   UNL     1      41.664 -11.570  -4.124  1.00  0.00     0.235 C 
HETATM   22  C   UNL     1      42.281 -10.233  -3.762  1.00  0.00     0.028 C 
HETATM   23  C   UNL     1      43.039 -10.321  -2.449  1.00  0.00     0.004 C 
HETATM   24  C   UNL     1      42.120 -10.786  -1.330  1.00  0.00     0.043 C 
ENDBRANCH  13  17
ENDBRANCH   1   9
BRANCH   1  25
HETATM   25  C   UNL     1      40.921 -14.455   4.003  1.00  0.00    -0.003 A 
HETATM   26  C   UNL     1      41.688 -13.329   3.703  1.00  0.00     0.126 A 
HETATM   27  N   UNL     1      41.462 -12.094   4.208  1.00  0.00    -0.272 NA
HETATM   28  C   UNL     1      40.432 -11.954   5.065  1.00  0.00     0.116 A 
HETATM   29  C   UNL     1      39.601 -12.995   5.431  1.00  0.00     0.020 A 
HETATM   30  C   UNL     1      39.847 -14.254   4.889  1.00  0.00     0.013 A 
ENDBRANCH   1  25
BRANCH   5  31
HETATM   31  C   UNL     1      44.120 -17.821   4.740  1.00  0.00     0.175 C 
BRANCH  31  32
HETATM   32  C   UNL     1      44.290 -19.215   4.187  1.00  0.00    -0.040 A 
HETATM   33  C   UNL     1      44.004 -19.483   2.839  1.00  0.00     0.012 A 
HETATM   34  C   UNL     1      44.148 -20.775   2.331  1.00  0.00     0.043 A 
HETATM   35  C   UNL     1      44.564 -21.800   3.170  1.00  0.00     0.116 A 
HETATM   36  F   UNL     1      44.703 -23.039   2.682  1.00  0.00    -0.206 F 
HETATM   37  C   UNL     1      44.838 -21.561   4.511  1.00  0.00     0.043 A 
HETATM   38  C   UNL     1      44.699 -20.268   5.022  1.00  0.00     0.012 A 
ENDBRANCH  31  32
ENDBRANCH   5  31
TORSDOF 5
ENDMDL
MODEL 5
REMARK VINA RESULT:      -9.3      3.422      7.912
REMARK  5 active torsions:
REMARK  status: ('A' for Active; 'I' for Inactive)
REMARK    1  A    between atoms: C_4  and  C_5 
REMARK       I    between atoms: C_5  and  N_6 
REMARK    2  A    between atoms: C_9  and  C_10 
REMARK    3  A    between atoms: C_10  and  C_11 
REMARK    4  A    between atoms: N_20  and  C_21 
REMARK    5  A    between atoms: C_21  and  C_22 
ROOT
HETATM    1  C   UNL     1      40.837 -12.706   4.390  1.00  0.00     0.148 A 
HETATM    2  N   UNL     1      42.192 -12.574   3.863  1.00  0.00    -0.320 N 
HETATM    3  C   UNL     1      43.064 -13.511   4.358  1.00  0.00     0.326 A 
HETATM    4  O   UNL     1      44.217 -13.627   3.984  1.00  0.00    -0.247 OA
HETATM    5  N   UNL     1      42.433 -14.217   5.325  1.00  0.00    -0.263 N 
HETATM    6  C   UNL     1      41.139 -13.804   5.447  1.00  0.00     0.262 A 
HETATM    7  O   UNL     1      40.345 -14.240   6.272  1.00  0.00    -0.270 OA
HETATM    8  H   UNL     1      42.455 -12.053   3.037  1.00  0.00     0.166 HD
ENDROOT
BRANCH   1   9
HETATM    9  C   UNL     1      40.370 -11.331   4.987  1.00  0.00     0.031 C 
HETATM   10  C   UNL     1      39.180 -11.373   5.965  1.00  0.00     0.028 C 
HETATM   11  C   UNL     1      39.534 -11.671   7.417  1.00  0.00     0.126 C 
HETATM   12  N   UNL     1      40.680 -10.908   7.924  1.00  0.00    -0.350 N 
HETATM   13  C   UNL     1      40.796 -10.853   9.313  1.00  0.00     0.251 C 
HETATM   14  C   UNL     1      41.837 -10.800   7.038  1.00  0.00     0.126 C 
HETATM   15  O   UNL     1      39.936 -11.310  10.076  1.00  0.00    -0.271 OA
HETATM   16  C   UNL     1      41.476 -10.452   5.601  1.00  0.00     0.028 C 
BRANCH  13  17
HETATM   17  C   UNL     1      42.020 -10.153   9.959  1.00  0.00     0.279 C 
HETATM   18  N   UNL     1      41.547  -9.125  11.021  1.00  0.00    -0.062 N 
HETATM   19  C   UNL     1      40.713  -8.018  10.418  1.00  0.00     0.270 C 
HETATM   20  H   UNL     1      40.894  -9.657  11.620  1.00  0.00     0.280 HD
HETATM   21  C   UNL     1      42.651  -8.549  11.862  1.00  0.00     0.235 C 
HETATM   22  C   UNL     1      43.456  -9.654  12.518  1.00  0.00     0.028 C 
HETATM   23  C   UNL     1      44.011 -10.614  11.479  1.00  0.00     0.004 C 
HETATM   24  C   UNL     1      42.886 -11.214  10.650  1.00  0.00     0.043 C 
ENDBRANCH  13  17
ENDBRANCH   1   9
BRANCH   1  25
HETATM   25  C   UNL     1      39.922 -13.180   3.262  1.00  0.00    -0.003 A 
HETATM   26  C   UNL     1      39.165 -12.308   2.479  1.00  0.00     0.126 A 
HETATM   27  N   UNL     1      38.367 -12.695   1.459  1.00  0.00    -0.272 NA
HETATM   28  C   UNL     1      38.294 -14.015   1.194  1.00  0.00     0.116 A 
HETATM   29  C   UNL     1      39.002 -14.970   1.897  1.00  0.00     0.020 A 
HETATM   30  C   UNL     1      39.826 -14.545   2.935  1.00  0.00     0.013 A 
ENDBRANCH   1  25
BRANCH   5  31
HETATM   31  C   UNL     1      43.035 -15.290   6.084  1.00  0.00     0.175 C 
BRANCH  31  32
HETATM   32  C   UNL     1      43.173 -16.548   5.262  1.00  0.00    -0.040 A 
HETATM   33  C   UNL     1      42.268 -16.820   4.225  1.00  0.00     0.012 A 
HETATM   34  C   UNL     1      42.387 -17.991   3.474  1.00  0.00     0.043 A 
HETATM   35  C   UNL     1      43.401 -18.893   3.766  1.00  0.00     0.116 A 
HETATM   36  F   UNL     1      43.516 -20.016   3.044  1.00  0.00    -0.206 F 
HETATM   37  C   UNL     1      44.299 -18.651   4.798  1.00  0.00     0.043 A 
HETATM   38  C   UNL     1      44.185 -17.479   5.549  1.00  0.00     0.012 A 
ENDBRANCH  31  32
ENDBRANCH   5  31
TORSDOF 5
ENDMDL
MODEL 6
REMARK VINA RESULT:      -9.2      2.544      6.964
REMARK  5 active torsions:
REMARK  status: ('A' for Active; 'I' for Inactive)
REMARK    1  A    between atoms: C_4  and  C_5 
REMARK       I    between atoms: C_5  and  N_6 
REMARK    2  A    between atoms: C_9  and  C_10 
REMARK    3  A    between atoms: C_10  and  C_11 
REMARK    4  A    between atoms: N_20  and  C_21 
REMARK    5  A    between atoms: C_21  and  C_22 
ROOT
HETATM    1  C   UNL     1      40.627 -12.212   3.389  1.00  0.00     0.148 A 
HETATM    2  N   UNL     1      41.681 -11.716   2.509  1.00  0.00    -0.320 N 
HETATM    3  C   UNL     1      41.837 -12.462   1.369  1.00  0.00     0.326 A 
HETATM    4  O   UNL     1      42.602 -12.169   0.467  1.00  0.00    -0.247 OA
HETATM    5  N   UNL     1      41.043 -13.554   1.458  1.00  0.00    -0.263 N 
HETATM    6  C   UNL     1      40.320 -13.523   2.613  1.00  0.00     0.262 A 
HETATM    7  O   UNL     1      39.548 -14.403   2.974  1.00  0.00    -0.270 OA
HETATM    8  H   UNL     1      42.096 -10.793   2.549  1.00  0.00     0.166 HD
ENDROOT
BRANCH   1   9
HETATM    9  C   UNL     1      41.205 -12.424   4.832  1.00  0.00     0.031 C 
HETATM   10  C   UNL     1      40.248 -13.036   5.874  1.00  0.00     0.028 C 
HETATM   11  C   UNL     1      40.175 -14.559   5.883  1.00  0.00     0.126 C 
HETATM   12  N   UNL     1      41.481 -15.223   5.828  1.00  0.00    -0.350 N 
HETATM   13  C   UNL     1      41.489 -16.563   6.217  1.00  0.00     0.251 C 
HETATM   14  C   UNL     1      42.453 -14.677   4.881  1.00  0.00     0.126 C 
HETATM   15  O   UNL     1      40.496 -17.129   6.689  1.00  0.00    -0.271 OA
HETATM   16  C   UNL     1      42.555 -13.159   4.918  1.00  0.00     0.028 C 
BRANCH  13  17
HETATM   17  C   UNL     1      42.797 -17.390   6.110  1.00  0.00     0.279 C 
HETATM   18  N   UNL     1      43.122 -18.052   7.475  1.00  0.00    -0.062 N 
HETATM   19  C   UNL     1      43.369 -17.033   8.564  1.00  0.00     0.270 C 
HETATM   20  H   UNL     1      42.244 -18.526   7.746  1.00  0.00     0.280 HD
HETATM   21  C   UNL     1      44.243 -19.052   7.429  1.00  0.00     0.235 C 
HETATM   22  C   UNL     1      43.973 -20.111   6.379  1.00  0.00     0.028 C 
HETATM   23  C   UNL     1      43.752 -19.482   5.014  1.00  0.00     0.004 C 
HETATM   24  C   UNL     1      42.598 -18.492   5.062  1.00  0.00     0.043 C 
ENDBRANCH  13  17
ENDBRANCH   1   9
BRANCH   1  25
HETATM   25  C   UNL     1      39.473 -11.210   3.375  1.00  0.00    -0.003 A 
HETATM   26  C   UNL     1      38.381 -11.321   2.514  1.00  0.00     0.126 A 
HETATM   27  N   UNL     1      37.334 -10.465   2.495  1.00  0.00    -0.272 NA
HETATM   28  C   UNL     1      37.360  -9.434   3.363  1.00  0.00     0.116 A 
HETATM   29  C   UNL     1      38.384  -9.226   4.265  1.00  0.00     0.020 A 
HETATM   30  C   UNL     1      39.446 -10.127   4.273  1.00  0.00     0.013 A 
ENDBRANCH   1  25
BRANCH   5  31
HETATM   31  C   UNL     1      40.942 -14.581   0.445  1.00  0.00     0.175 C 
BRANCH  31  32
HETATM   32  C   UNL     1      41.663 -15.843   0.853  1.00  0.00    -0.040 A 
HETATM   33  C   UNL     1      43.040 -15.815   1.123  1.00  0.00     0.012 A 
HETATM   34  C   UNL     1      43.710 -16.985   1.486  1.00  0.00     0.043 A 
HETATM   35  C   UNL     1      43.009 -18.181   1.568  1.00  0.00     0.116 A 
HETATM   36  F   UNL     1      43.653 -19.302   1.918  1.00  0.00    -0.206 F 
HETATM   37  C   UNL     1      41.649 -18.233   1.291  1.00  0.00     0.043 A 
HETATM   38  C   UNL     1      40.974 -17.064   0.931  1.00  0.00     0.012 A 
ENDBRANCH  31  32
ENDBRANCH   5  31
TORSDOF 5
ENDMDL
MODEL 7
REMARK VINA RESULT:      -9.2      3.368      8.269
REMARK  5 active torsions:
REMARK  status: ('A' for Active; 'I' for Inactive)
REMARK    1  A    between atoms: C_4  and  C_5 
REMARK       I    between atoms: C_5  and  N_6 
REMARK    2  A    between atoms: C_9  and  C_10 
REMARK    3  A    between atoms: C_10  and  C_11 
REMARK    4  A    between atoms: N_20  and  C_21 
REMARK    5  A    between atoms: C_21  and  C_22 
ROOT
HETATM    1  C   UNL     1      40.870 -12.984   1.456  1.00  0.00     0.148 A 
HETATM    2  N   UNL     1      41.752 -12.268   0.540  1.00  0.00    -0.320 N 
HETATM    3  C   UNL     1      41.932 -12.910  -0.659  1.00  0.00     0.326 A 
HETATM    4  O   UNL     1      42.561 -12.441  -1.591  1.00  0.00    -0.247 OA
HETATM    5  N   UNL     1      41.336 -14.124  -0.591  1.00  0.00    -0.263 N 
HETATM    6  C   UNL     1      40.716 -14.281   0.613  1.00  0.00     0.262 A 
HETATM    7  O   UNL     1      40.131 -15.298   0.966  1.00  0.00    -0.270 OA
HETATM    8  H   UNL     1      42.014 -11.293   0.614  1.00  0.00     0.166 HD
ENDROOT
BRANCH   1   9
HETATM    9  C   UNL     1      41.593 -13.180   2.835  1.00  0.00     0.031 C 
HETATM   10  C   UNL     1      40.765 -13.831   3.960  1.00  0.00     0.028 C 
HETATM   11  C   UNL     1      40.749 -15.355   3.965  1.00  0.00     0.126 C 
HETATM   12  N   UNL     1      42.068 -15.970   3.779  1.00  0.00    -0.350 N 
HETATM   13  C   UNL     1      42.163 -17.310   4.156  1.00  0.00     0.251 C 
HETATM   14  C   UNL     1      42.922 -15.385   2.746  1.00  0.00     0.126 C 
HETATM   15  O   UNL     1      41.242 -17.915   4.718  1.00  0.00    -0.271 OA
HETATM   16  C   UNL     1      42.972 -13.865   2.784  1.00  0.00     0.028 C 
BRANCH  13  17
HETATM   17  C   UNL     1      43.484 -18.087   3.916  1.00  0.00     0.279 C 
HETATM   18  N   UNL     1      43.938 -18.783   5.227  1.00  0.00    -0.062 N 
HETATM   19  C   UNL     1      44.238 -17.794   6.329  1.00  0.00     0.270 C 
HETATM   20  H   UNL     1      43.099 -19.296   5.549  1.00  0.00     0.280 HD
HETATM   21  C   UNL     1      45.083 -19.742   5.057  1.00  0.00     0.235 C 
HETATM   22  C   UNL     1      44.763 -20.774   3.993  1.00  0.00     0.028 C 
HETATM   23  C   UNL     1      44.414 -20.107   2.674  1.00  0.00     0.004 C 
HETATM   24  C   UNL     1      43.237 -19.160   2.848  1.00  0.00     0.043 C 
ENDBRANCH  13  17
ENDBRANCH   1   9
BRANCH   1  25
HETATM   25  C   UNL     1      39.572 -12.191   1.598  1.00  0.00    -0.003 A 
HETATM   26  C   UNL     1      39.496 -10.971   2.269  1.00  0.00     0.126 A 
HETATM   27  N   UNL     1      38.368 -10.234   2.390  1.00  0.00    -0.272 NA
HETATM   28  C   UNL     1      37.244 -10.724   1.829  1.00  0.00     0.116 A 
HETATM   29  C   UNL     1      37.200 -11.917   1.135  1.00  0.00     0.020 A 
HETATM   30  C   UNL     1      38.377 -12.652   1.015  1.00  0.00     0.013 A 
ENDBRANCH   1  25
BRANCH   5  31
HETATM   31  C   UNL     1      41.319 -15.092  -1.663  1.00  0.00     0.175 C 
BRANCH  31  32
HETATM   32  C   UNL     1      40.040 -15.021  -2.462  1.00  0.00    -0.040 A 
HETATM   33  C   UNL     1      39.068 -14.055  -2.158  1.00  0.00     0.012 A 
HETATM   34  C   UNL     1      37.879 -13.999  -2.887  1.00  0.00     0.043 A 
HETATM   35  C   UNL     1      37.655 -14.913  -3.908  1.00  0.00     0.116 A 
HETATM   36  F   UNL     1      36.514 -14.857  -4.607  1.00  0.00    -0.206 F 
HETATM   37  C   UNL     1      38.597 -15.887  -4.215  1.00  0.00     0.043 A 
HETATM   38  C   UNL     1      39.789 -15.944  -3.491  1.00  0.00     0.012 A 
ENDBRANCH  31  32
ENDBRANCH   5  31
TORSDOF 5
ENDMDL
MODEL 8
REMARK VINA RESULT:      -8.8      3.437      8.143
REMARK  5 active torsions:
REMARK  status: ('A' for Active; 'I' for Inactive)
REMARK    1  A    between atoms: C_4  and  C_5 
REMARK       I    between atoms: C_5  and  N_6 
REMARK    2  A    between atoms: C_9  and  C_10 
REMARK    3  A    between atoms: C_10  and  C_11 
REMARK    4  A    between atoms: N_20  and  C_21 
REMARK    5  A    between atoms: C_21  and  C_22 
ROOT
HETATM    1  C   UNL     1      41.371 -12.658   3.031  1.00  0.00     0.148 A 
HETATM    2  N   UNL     1      42.125 -12.031   1.949  1.00  0.00    -0.320 N 
HETATM    3  C   UNL     1      41.773 -12.487   0.703  1.00  0.00     0.326 A 
HETATM    4  O   UNL     1      42.221 -12.034  -0.335  1.00  0.00    -0.247 OA
HETATM    5  N   UNL     1      40.906 -13.516   0.851  1.00  0.00    -0.263 N 
HETATM    6  C   UNL     1      40.631 -13.719   2.171  1.00  0.00     0.262 A 
HETATM    7  O   UNL     1      39.908 -14.610   2.600  1.00  0.00    -0.270 OA
HETATM    8  H   UNL     1      42.658 -11.174   2.021  1.00  0.00     0.166 HD
ENDROOT
BRANCH   1   9
HETATM    9  C   UNL     1      42.367 -13.249   4.090  1.00  0.00     0.031 C 
HETATM   10  C   UNL     1      41.743 -14.042   5.255  1.00  0.00     0.028 C 
HETATM   11  C   UNL     1      41.463 -15.513   4.972  1.00  0.00     0.126 C 
HETATM   12  N   UNL     1      42.566 -16.218   4.311  1.00  0.00    -0.350 N 
HETATM   13  C   UNL     1      42.516 -17.610   4.383  1.00  0.00     0.251 C 
HETATM   14  C   UNL     1      43.227 -15.515   3.213  1.00  0.00     0.126 C 
HETATM   15  O   UNL     1      41.672 -18.217   5.054  1.00  0.00    -0.271 OA
HETATM   16  C   UNL     1      43.549 -14.060   3.526  1.00  0.00     0.028 C 
BRANCH  13  17
HETATM   17  C   UNL     1      43.581 -18.460   3.641  1.00  0.00     0.279 C 
HETATM   18  N   UNL     1      44.210 -19.494   4.613  1.00  0.00    -0.062 N 
HETATM   19  C   UNL     1      44.939 -18.834   5.760  1.00  0.00     0.270 C 
HETATM   20  H   UNL     1      43.398 -19.965   5.047  1.00  0.00     0.280 HD
HETATM   21  C   UNL     1      45.091 -20.514   3.948  1.00  0.00     0.235 C 
HETATM   22  C   UNL     1      44.345 -21.222   2.834  1.00  0.00     0.028 C 
HETATM   23  C   UNL     1      43.809 -20.227   1.820  1.00  0.00     0.004 C 
HETATM   24  C   UNL     1      42.895 -19.215   2.494  1.00  0.00     0.043 C 
ENDBRANCH  13  17
ENDBRANCH   1   9
BRANCH   1  25
HETATM   25  C   UNL     1      40.441 -11.611   3.642  1.00  0.00    -0.003 A 
HETATM   26  C   UNL     1      39.111 -11.876   3.970  1.00  0.00     0.126 A 
HETATM   27  N   UNL     1      38.270 -10.979   4.535  1.00  0.00    -0.272 NA
HETATM   28  C   UNL     1      38.755  -9.746   4.784  1.00  0.00     0.116 A 
HETATM   29  C   UNL     1      40.055  -9.371   4.508  1.00  0.00     0.020 A 
HETATM   30  C   UNL     1      40.904 -10.316   3.938  1.00  0.00     0.013 A 
ENDBRANCH   1  25
BRANCH   5  31
HETATM   31  C   UNL     1      40.319 -14.258  -0.241  1.00  0.00     0.175 C 
BRANCH  31  32
HETATM   32  C   UNL     1      39.316 -13.428  -1.007  1.00  0.00    -0.040 A 
HETATM   33  C   UNL     1      38.177 -12.920  -0.362  1.00  0.00     0.012 A 
HETATM   34  C   UNL     1      37.243 -12.166  -1.074  1.00  0.00     0.043 A 
HETATM   35  C   UNL     1      37.439 -11.929  -2.428  1.00  0.00     0.116 A 
HETATM   36  F   UNL     1      36.542 -11.204  -3.109  1.00  0.00    -0.206 F 
HETATM   37  C   UNL     1      38.551 -12.436  -3.089  1.00  0.00     0.043 A 
HETATM   38  C   UNL     1      39.490 -13.188  -2.380  1.00  0.00     0.012 A 
ENDBRANCH  31  32
ENDBRANCH   5  31
TORSDOF 5
ENDMDL
MODEL 9
REMARK VINA RESULT:      -8.6      3.011      6.016
REMARK  5 active torsions:
REMARK  status: ('A' for Active; 'I' for Inactive)
REMARK    1  A    between atoms: C_4  and  C_5 
REMARK       I    between atoms: C_5  and  N_6 
REMARK    2  A    between atoms: C_9  and  C_10 
REMARK    3  A    between atoms: C_10  and  C_11 
REMARK    4  A    between atoms: N_20  and  C_21 
REMARK    5  A    between atoms: C_21  and  C_22 
ROOT
HETATM    1  C   UNL     1      42.475 -16.585   4.503  1.00  0.00     0.148 A 
HETATM    2  N   UNL     1      43.593 -15.691   4.215  1.00  0.00    -0.320 N 
HETATM    3  C   UNL     1      43.418 -14.422   4.706  1.00  0.00     0.326 A 
HETATM    4  O   UNL     1      44.267 -13.551   4.647  1.00  0.00    -0.247 OA
HETATM    5  N   UNL     1      42.165 -14.324   5.208  1.00  0.00    -0.263 N 
HETATM    6  C   UNL     1      41.518 -15.520   5.107  1.00  0.00     0.262 A 
HETATM    7  O   UNL     1      40.357 -15.713   5.445  1.00  0.00    -0.270 OA
HETATM    8  H   UNL     1      44.520 -15.980   3.929  1.00  0.00     0.166 HD
ENDROOT
BRANCH   1   9
HETATM    9  C   UNL     1      41.969 -17.240   3.169  1.00  0.00     0.031 C 
HETATM   10  C   UNL     1      40.487 -17.017   2.811  1.00  0.00     0.028 C 
HETATM   11  C   UNL     1      40.178 -15.720   2.072  1.00  0.00     0.126 C 
HETATM   12  N   UNL     1      41.097 -15.425   0.967  1.00  0.00    -0.350 N 
HETATM   13  C   UNL     1      40.640 -14.486   0.042  1.00  0.00     0.251 C 
HETATM   14  C   UNL     1      42.520 -15.642   1.224  1.00  0.00     0.126 C 
HETATM   15  O   UNL     1      39.496 -14.016   0.074  1.00  0.00    -0.271 OA
HETATM   16  C   UNL     1      42.821 -16.963   1.916  1.00  0.00     0.028 C 
BRANCH  13  17
HETATM   17  C   UNL     1      41.566 -14.029  -1.116  1.00  0.00     0.279 C 
HETATM   18  N   UNL     1      40.829 -14.169  -2.474  1.00  0.00    -0.062 N 
HETATM   19  C   UNL     1      40.461 -15.602  -2.784  1.00  0.00     0.270 C 
HETATM   20  H   UNL     1      39.925 -13.687  -2.327  1.00  0.00     0.280 HD
HETATM   21  C   UNL     1      41.549 -13.549  -3.638  1.00  0.00     0.235 C 
HETATM   22  C   UNL     1      41.868 -12.094  -3.357  1.00  0.00     0.028 C 
HETATM   23  C   UNL     1      42.678 -11.950  -2.080  1.00  0.00     0.004 C 
HETATM   24  C   UNL     1      41.930 -12.554  -0.901  1.00  0.00     0.043 C 
ENDBRANCH  13  17
ENDBRANCH   1   9
BRANCH   1  25
HETATM   25  C   UNL     1      42.940 -17.632   5.514  1.00  0.00    -0.003 A 
HETATM   26  C   UNL     1      43.369 -18.907   5.145  1.00  0.00     0.126 A 
HETATM   27  N   UNL     1      43.809 -19.846   6.014  1.00  0.00    -0.272 NA
HETATM   28  C   UNL     1      43.821 -19.523   7.323  1.00  0.00     0.116 A 
HETATM   29  C   UNL     1      43.426 -18.290   7.804  1.00  0.00     0.020 A 
HETATM   30  C   UNL     1      42.987 -17.337   6.889  1.00  0.00     0.013 A 
ENDBRANCH   1  25
BRANCH   5  31
HETATM   31  C   UNL     1      41.612 -13.132   5.808  1.00  0.00     0.175 C 
BRANCH  31  32
HETATM   32  C   UNL     1      40.755 -12.360   4.834  1.00  0.00    -0.040 A 
HETATM   33  C   UNL     1      39.388 -12.171   5.089  1.00  0.00     0.012 A 
HETATM   34  C   UNL     1      38.592 -11.470   4.181  1.00  0.00     0.043 A 
HETATM   35  C   UNL     1      39.158 -10.969   3.015  1.00  0.00     0.116 A 
HETATM   36  F   UNL     1      38.394 -10.296   2.146  1.00  0.00    -0.206 F 
HETATM   37  C   UNL     1      40.506 -11.158   2.737  1.00  0.00     0.043 A 
HETATM   38  C   UNL     1      41.306 -11.855   3.644  1.00  0.00     0.012 A 
ENDBRANCH  31  32
ENDBRANCH   5  31
TORSDOF 5
ENDMDL
MODEL 10
REMARK VINA RESULT:      -8.6      2.726      7.149
REMARK  5 active torsions:
REMARK  status: ('A' for Active; 'I' for Inactive)
REMARK    1  A    between atoms: C_4  and  C_5 
REMARK       I    between atoms: C_5  and  N_6 
REMARK    2  A    between atoms: C_9  and  C_10 
REMARK    3  A    between atoms: C_10  and  C_11 
REMARK    4  A    between atoms: N_20  and  C_21 
REMARK    5  A    between atoms: C_21  and  C_22 
ROOT
HETATM    1  C   UNL     1      41.774 -14.022   4.143  1.00  0.00     0.148 A 
HETATM    2  N   UNL     1      43.130 -13.482   4.168  1.00  0.00    -0.320 N 
HETATM    3  C   UNL     1      43.911 -14.010   5.166  1.00  0.00     0.326 A 
HETATM    4  O   UNL     1      45.093 -13.756   5.306  1.00  0.00    -0.247 OA
HETATM    5  N   UNL     1      43.134 -14.797   5.947  1.00  0.00    -0.263 N 
HETATM    6  C   UNL     1      41.863 -14.846   5.459  1.00  0.00     0.262 A 
HETATM    7  O   UNL     1      40.938 -15.450   5.987  1.00  0.00    -0.270 OA
HETATM    8  H   UNL     1      43.579 -12.981   3.412  1.00  0.00     0.166 HD
ENDROOT
BRANCH   1   9
HETATM    9  C   UNL     1      40.739 -12.844   4.176  1.00  0.00     0.031 C 
HETATM   10  C   UNL     1      39.417 -13.108   4.923  1.00  0.00     0.028 C 
HETATM   11  C   UNL     1      39.455 -12.867   6.428  1.00  0.00     0.126 C 
HETATM   12  N   UNL     1      40.107 -11.613   6.820  1.00  0.00    -0.350 N 
HETATM   13  C   UNL     1      39.829 -11.171   8.113  1.00  0.00     0.251 C 
HETATM   14  C   UNL     1      41.353 -11.281   6.130  1.00  0.00     0.126 C 
HETATM   15  O   UNL     1      39.001 -11.725   8.847  1.00  0.00    -0.271 OA
HETATM   16  C   UNL     1      41.287 -11.475   4.622  1.00  0.00     0.028 C 
BRANCH  13  17
HETATM   17  C   UNL     1      40.537  -9.906   8.666  1.00  0.00     0.279 C 
HETATM   18  N   UNL     1      39.490  -8.804   8.978  1.00  0.00    -0.062 N 
HETATM   19  C   UNL     1      38.745  -8.351   7.743  1.00  0.00     0.270 C 
HETATM   20  H   UNL     1      38.779  -9.281   9.559  1.00  0.00     0.280 HD
HETATM   21  C   UNL     1      40.039  -7.620   9.723  1.00  0.00     0.235 C 
HETATM   22  C   UNL     1      40.735  -8.063  10.994  1.00  0.00     0.028 C 
HETATM   23  C   UNL     1      41.833  -9.069  10.692  1.00  0.00     0.004 C 
HETATM   24  C   UNL     1      41.265 -10.277   9.964  1.00  0.00     0.043 C 
ENDBRANCH  13  17
ENDBRANCH   1   9
BRANCH   1  25
HETATM   25  C   UNL     1      41.620 -14.886   2.893  1.00  0.00    -0.003 A 
HETATM   26  C   UNL     1      41.858 -14.407   1.604  1.00  0.00     0.126 A 
HETATM   27  N   UNL     1      41.754 -15.153   0.480  1.00  0.00    -0.272 NA
HETATM   28  C   UNL     1      41.385 -16.442   0.623  1.00  0.00     0.116 A 
HETATM   29  C   UNL     1      41.130 -17.027   1.848  1.00  0.00     0.020 A 
HETATM   30  C   UNL     1      41.255 -16.241   2.991  1.00  0.00     0.013 A 
ENDBRANCH   1  25
BRANCH   5  31
HETATM   31  C   UNL     1      43.604 -15.521   7.107  1.00  0.00     0.175 C 
BRANCH  31  32
HETATM   32  C   UNL     1      43.768 -16.994   6.819  1.00  0.00    -0.040 A 
HETATM   33  C   UNL     1      44.017 -17.436   5.511  1.00  0.00     0.012 A 
HETATM   34  C   UNL     1      44.154 -18.799   5.242  1.00  0.00     0.043 A 
HETATM   35  C   UNL     1      44.030 -19.719   6.276  1.00  0.00     0.116 A 
HETATM   36  F   UNL     1      44.163 -21.026   6.017  1.00  0.00    -0.206 F 
HETATM   37  C   UNL     1      43.768 -19.303   7.575  1.00  0.00     0.043 A 
HETATM   38  C   UNL     1      43.635 -17.940   7.848  1.00  0.00     0.012 A 
ENDBRANCH  31  32
ENDBRANCH   5  31
TORSDOF 5
ENDMDL
