MODEL 1
REMARK VINA RESULT:      -8.6      0.000      0.000
REMARK  6 active torsions:
REMARK  status: ('A' for Active; 'I' for Inactive)
REMARK    1  A    between atoms: C_4  and  C_5 
REMARK    2  A    between atoms: C_7  and  N_8 
REMARK       I    between atoms: N_8  and  C_9 
REMARK    3  A    between atoms: C_9  and  C_10 
REMARK    4  A    between atoms: C_10  and  N_11 
REMARK    5  A    between atoms: N_11  and  C_14 
REMARK    6  A    between atoms: C_20  and  C_21 
REMARK       I    between atoms: C_21  and  N_22 
ROOT
HETATM    1  C   UNL     1      43.508 -17.570   4.933  1.00  0.00     0.018 A 
HETATM    2  S   UNL     1      44.575 -17.004   6.144  1.00  0.00    -0.071 SA
HETATM    3  C   UNL     1      43.607 -15.660   6.489  1.00  0.00     0.093 A 
HETATM    4  C   UNL     1      42.459 -15.606   5.709  1.00  0.00     0.067 A 
HETATM    5  C   UNL     1      42.414 -16.731   4.814  1.00  0.00     0.039 A 
ENDROOT
BRANCH   3   6
HETATM    6  N   UNL     1      43.957 -14.733   7.464  1.00  0.00    -0.319 N 
HETATM    7  C   UNL     1      44.913 -13.749   7.371  1.00  0.00     0.248 C 
HETATM    8  O   UNL     1      45.653 -13.476   6.426  1.00  0.00    -0.271 OA
HETATM    9  H   UNL     1      43.394 -14.818   8.314  1.00  0.00     0.169 HD
BRANCH   7  10
HETATM   10  C   UNL     1      45.028 -12.884   8.625  1.00  0.00     0.335 C 
BRANCH  10  11
HETATM   11  N   UNL     1      43.710 -12.179   8.863  1.00  0.00    -0.063 N 
HETATM   12  H   UNL     1      43.332 -11.977   7.919  1.00  0.00     0.278 HD
HETATM   13  H   UNL     1      43.038 -12.869   9.231  1.00  0.00     0.278 HD
BRANCH  11  14
HETATM   14  C   UNL     1      43.747 -10.955   9.686  1.00  0.00     0.186 C 
HETATM   15  C   UNL     1      42.340 -10.555  10.103  1.00  0.00     0.033 C 
HETATM   16  C   UNL     1      42.592  -9.609  11.268  1.00  0.00     0.002 C 
HETATM   17  C   UNL     1      43.853 -10.136  11.955  1.00  0.00     0.002 C 
HETATM   18  C   UNL     1      44.453 -11.183  11.014  1.00  0.00     0.033 C 
ENDBRANCH  11  14
ENDBRANCH  10  11
ENDBRANCH   7  10
ENDBRANCH   3   6
BRANCH   4  19
HETATM   19  C   UNL     1      41.492 -14.518   5.844  1.00  0.00     0.252 C 
HETATM   20  N   UNL     1      40.239 -14.847   6.260  1.00  0.00    -0.366 N 
HETATM   21  H   UNL     1      39.933 -15.790   6.451  1.00  0.00     0.159 HD
HETATM   22  H   UNL     1      39.555 -14.107   6.342  1.00  0.00     0.159 HD
HETATM   23  O   UNL     1      41.787 -13.351   5.586  1.00  0.00    -0.268 OA
ENDBRANCH   4  19
BRANCH   1  24
HETATM   24  C   UNL     1      43.797 -18.810   4.201  1.00  0.00    -0.019 A 
HETATM   25  C   UNL     1      43.353 -18.964   2.879  1.00  0.00     0.013 A 
HETATM   26  C   UNL     1      43.631 -20.133   2.165  1.00  0.00     0.001 A 
HETATM   27  C   UNL     1      44.361 -21.158   2.760  1.00  0.00     0.000 A 
HETATM   28  C   UNL     1      44.813 -21.018   4.069  1.00  0.00     0.001 A 
HETATM   29  C   UNL     1      44.534 -19.850   4.786  1.00  0.00     0.013 A 
ENDBRANCH   1  24
TORSDOF 6
ENDMDL
MODEL 2
REMARK VINA RESULT:      -8.2      1.285      1.387
REMARK  6 active torsions:
REMARK  status: ('A' for Active; 'I' for Inactive)
REMARK    1  A    between atoms: C_4  and  C_5 
REMARK    2  A    between atoms: C_7  and  N_8 
REMARK       I    between atoms: N_8  and  C_9 
REMARK    3  A    between atoms: C_9  and  C_10 
REMARK    4  A    between atoms: C_10  and  N_11 
REMARK    5  A    between atoms: N_11  and  C_14 
REMARK    6  A    between atoms: C_20  and  C_21 
REMARK       I    between atoms: C_21  and  N_22 
ROOT
HETATM    1  C   UNL     1      43.711 -17.609   4.378  1.00  0.00     0.018 A 
HETATM    2  S   UNL     1      44.013 -17.138   5.994  1.00  0.00    -0.071 SA
HETATM    3  C   UNL     1      43.471 -15.558   5.724  1.00  0.00     0.093 A 
HETATM    4  C   UNL     1      43.047 -15.348   4.418  1.00  0.00     0.067 A 
HETATM    5  C   UNL     1      43.186 -16.556   3.651  1.00  0.00     0.039 A 
ENDROOT
BRANCH   3   6
HETATM    6  N   UNL     1      43.463 -14.601   6.733  1.00  0.00    -0.319 N 
HETATM    7  C   UNL     1      44.514 -13.814   7.141  1.00  0.00     0.248 C 
HETATM    8  O   UNL     1      45.667 -13.781   6.714  1.00  0.00    -0.271 OA
HETATM    9  H   UNL     1      42.544 -14.492   7.169  1.00  0.00     0.169 HD
BRANCH   7  10
HETATM   10  C   UNL     1      44.154 -12.847   8.268  1.00  0.00     0.335 C 
BRANCH  10  11
HETATM   11  N   UNL     1      45.397 -12.550   9.080  1.00  0.00    -0.063 N 
HETATM   12  H   UNL     1      45.879 -13.460   9.189  1.00  0.00     0.278 HD
HETATM   13  H   UNL     1      46.051 -12.020   8.484  1.00  0.00     0.278 HD
BRANCH  11  14
HETATM   14  C   UNL     1      45.199 -11.900  10.390  1.00  0.00     0.186 C 
HETATM   15  C   UNL     1      44.574 -10.526  10.211  1.00  0.00     0.033 C 
HETATM   16  C   UNL     1      44.033 -10.220  11.600  1.00  0.00     0.002 C 
HETATM   17  C   UNL     1      43.612 -11.571  12.181  1.00  0.00     0.002 C 
HETATM   18  C   UNL     1      44.178 -12.639  11.243  1.00  0.00     0.033 C 
ENDBRANCH  11  14
ENDBRANCH  10  11
ENDBRANCH   7  10
ENDBRANCH   3   6
BRANCH   4  19
HETATM   19  C   UNL     1      42.549 -14.046   3.975  1.00  0.00     0.252 C 
HETATM   20  N   UNL     1      41.278 -13.998   3.492  1.00  0.00    -0.366 N 
HETATM   21  H   UNL     1      40.676 -14.802   3.396  1.00  0.00     0.159 HD
HETATM   22  H   UNL     1      40.926 -13.107   3.166  1.00  0.00     0.159 HD
HETATM   23  O   UNL     1      43.247 -13.033   4.025  1.00  0.00    -0.268 OA
ENDBRANCH   4  19
BRANCH   1  24
HETATM   24  C   UNL     1      43.980 -18.984   3.937  1.00  0.00    -0.019 A 
HETATM   25  C   UNL     1      43.626 -19.387   2.640  1.00  0.00     0.013 A 
HETATM   26  C   UNL     1      43.887 -20.688   2.201  1.00  0.00     0.001 A 
HETATM   27  C   UNL     1      44.511 -21.600   3.048  1.00  0.00     0.000 A 
HETATM   28  C   UNL     1      44.874 -21.213   4.336  1.00  0.00     0.001 A 
HETATM   29  C   UNL     1      44.611 -19.913   4.778  1.00  0.00     0.013 A 
ENDBRANCH   1  24
TORSDOF 6
ENDMDL
MODEL 3
REMARK VINA RESULT:      -8.1      5.097      8.448
REMARK  6 active torsions:
REMARK  status: ('A' for Active; 'I' for Inactive)
REMARK    1  A    between atoms: C_4  and  C_5 
REMARK    2  A    between atoms: C_7  and  N_8 
REMARK       I    between atoms: N_8  and  C_9 
REMARK    3  A    between atoms: C_9  and  C_10 
REMARK    4  A    between atoms: C_10  and  N_11 
REMARK    5  A    between atoms: N_11  and  C_14 
REMARK    6  A    between atoms: C_20  and  C_21 
REMARK       I    between atoms: C_21  and  N_22 
ROOT
HETATM    1  C   UNL     1      43.647 -18.311   2.775  1.00  0.00     0.018 A 
HETATM    2  S   UNL     1      43.204 -17.867   1.185  1.00  0.00    -0.071 SA
HETATM    3  C   UNL     1      42.974 -16.245   1.611  1.00  0.00     0.093 A 
HETATM    4  C   UNL     1      43.229 -15.998   2.953  1.00  0.00     0.067 A 
HETATM    5  C   UNL     1      43.628 -17.211   3.614  1.00  0.00     0.039 A 
ENDROOT
BRANCH   3   6
HETATM    6  N   UNL     1      42.576 -15.291   0.682  1.00  0.00    -0.319 N 
HETATM    7  C   UNL     1      41.290 -14.950   0.338  1.00  0.00     0.248 C 
HETATM    8  O   UNL     1      40.228 -15.401   0.767  1.00  0.00    -0.271 OA
HETATM    9  H   UNL     1      43.366 -14.799   0.255  1.00  0.00     0.169 HD
BRANCH   7  10
HETATM   10  C   UNL     1      41.207 -13.839  -0.708  1.00  0.00     0.335 C 
BRANCH  10  11
HETATM   11  N   UNL     1      41.728 -14.364  -2.029  1.00  0.00    -0.063 N 
HETATM   12  H   UNL     1      42.462 -13.694  -2.322  1.00  0.00     0.278 HD
HETATM   13  H   UNL     1      42.268 -15.222  -1.844  1.00  0.00     0.278 HD
BRANCH  11  14
HETATM   14  C   UNL     1      40.738 -14.560  -3.106  1.00  0.00     0.186 C 
HETATM   15  C   UNL     1      40.373 -16.031  -3.229  1.00  0.00     0.033 C 
HETATM   16  C   UNL     1      39.069 -15.989  -4.013  1.00  0.00     0.002 C 
HETATM   17  C   UNL     1      38.374 -14.698  -3.577  1.00  0.00     0.002 C 
HETATM   18  C   UNL     1      39.407 -13.896  -2.784  1.00  0.00     0.033 C 
ENDBRANCH  11  14
ENDBRANCH  10  11
ENDBRANCH   7  10
ENDBRANCH   3   6
BRANCH   4  19
HETATM   19  C   UNL     1      43.080 -14.662   3.527  1.00  0.00     0.252 C 
HETATM   20  N   UNL     1      42.210 -14.524   4.565  1.00  0.00    -0.366 N 
HETATM   21  H   UNL     1      41.647 -15.273   4.938  1.00  0.00     0.159 HD
HETATM   22  H   UNL     1      42.084 -13.601   4.961  1.00  0.00     0.159 HD
HETATM   23  O   UNL     1      43.705 -13.694   3.092  1.00  0.00    -0.268 OA
ENDBRANCH   4  19
BRANCH   1  24
HETATM   24  C   UNL     1      44.012 -19.698   3.090  1.00  0.00    -0.019 A 
HETATM   25  C   UNL     1      43.865 -20.701   2.119  1.00  0.00     0.013 A 
HETATM   26  C   UNL     1      44.220 -22.023   2.398  1.00  0.00     0.001 A 
HETATM   27  C   UNL     1      44.731 -22.360   3.649  1.00  0.00     0.000 A 
HETATM   28  C   UNL     1      44.888 -21.376   4.621  1.00  0.00     0.001 A 
HETATM   29  C   UNL     1      44.532 -20.053   4.344  1.00  0.00     0.013 A 
ENDBRANCH   1  24
TORSDOF 6
ENDMDL
MODEL 4
REMARK VINA RESULT:      -8.1      5.331      7.754
REMARK  6 active torsions:
REMARK  status: ('A' for Active; 'I' for Inactive)
REMARK    1  A    between atoms: C_4  and  C_5 
REMARK    2  A    between atoms: C_7  and  N_8 
REMARK       I    between atoms: N_8  and  C_9 
REMARK    3  A    between atoms: C_9  and  C_10 
REMARK    4  A    between atoms: C_10  and  N_11 
REMARK    5  A    between atoms: N_11  and  C_14 
REMARK    6  A    between atoms: C_20  and  C_21 
REMARK       I    between atoms: C_21  and  N_22 
ROOT
HETATM    1  C   UNL     1      43.618 -18.332   2.685  1.00  0.00     0.018 A 
HETATM    2  S   UNL     1      43.160 -17.860   1.106  1.00  0.00    -0.071 SA
HETATM    3  C   UNL     1      42.944 -16.244   1.560  1.00  0.00     0.093 A 
HETATM    4  C   UNL     1      43.214 -16.019   2.903  1.00  0.00     0.067 A 
HETATM    5  C   UNL     1      43.614 -17.245   3.541  1.00  0.00     0.039 A 
ENDROOT
BRANCH   3   6
HETATM    6  N   UNL     1      42.541 -15.274   0.650  1.00  0.00    -0.319 N 
HETATM    7  C   UNL     1      41.255 -14.868   0.380  1.00  0.00     0.248 C 
HETATM    8  O   UNL     1      40.200 -15.264   0.873  1.00  0.00    -0.271 OA
HETATM    9  H   UNL     1      43.328 -14.824   0.175  1.00  0.00     0.169 HD
BRANCH   7  10
HETATM   10  C   UNL     1      41.168 -13.758  -0.666  1.00  0.00     0.335 C 
BRANCH  10  11
HETATM   11  N   UNL     1      42.162 -14.041  -1.772  1.00  0.00    -0.063 N 
HETATM   12  H   UNL     1      42.887 -14.644  -1.343  1.00  0.00     0.278 HD
HETATM   13  H   UNL     1      41.715 -14.676  -2.451  1.00  0.00     0.278 HD
BRANCH  11  14
HETATM   14  C   UNL     1      42.775 -12.874  -2.434  1.00  0.00     0.186 C 
HETATM   15  C   UNL     1      41.875 -12.364  -3.548  1.00  0.00     0.033 C 
HETATM   16  C   UNL     1      42.404 -10.957  -3.790  1.00  0.00     0.002 C 
HETATM   17  C   UNL     1      42.881 -10.461  -2.424  1.00  0.00     0.002 C 
HETATM   18  C   UNL     1      42.882 -11.679  -1.498  1.00  0.00     0.033 C 
ENDBRANCH  11  14
ENDBRANCH  10  11
ENDBRANCH   7  10
ENDBRANCH   3   6
BRANCH   4  19
HETATM   19  C   UNL     1      43.080 -14.691   3.499  1.00  0.00     0.252 C 
HETATM   20  N   UNL     1      42.142 -14.539   4.474  1.00  0.00    -0.366 N 
HETATM   21  H   UNL     1      41.523 -15.272   4.786  1.00  0.00     0.159 HD
HETATM   22  H   UNL     1      42.026 -13.621   4.884  1.00  0.00     0.159 HD
HETATM   23  O   UNL     1      43.775 -13.742   3.136  1.00  0.00    -0.268 OA
ENDBRANCH   4  19
BRANCH   1  24
HETATM   24  C   UNL     1      43.978 -19.726   2.974  1.00  0.00    -0.019 A 
HETATM   25  C   UNL     1      43.788 -20.717   1.999  1.00  0.00     0.013 A 
HETATM   26  C   UNL     1      44.138 -22.046   2.254  1.00  0.00     0.001 A 
HETATM   27  C   UNL     1      44.688 -22.399   3.483  1.00  0.00     0.000 A 
HETATM   28  C   UNL     1      44.888 -21.427   4.460  1.00  0.00     0.001 A 
HETATM   29  C   UNL     1      44.536 -20.098   4.207  1.00  0.00     0.013 A 
ENDBRANCH   1  24
TORSDOF 6
ENDMDL
MODEL 5
REMARK VINA RESULT:      -8.0      5.296      8.677
REMARK  6 active torsions:
REMARK  status: ('A' for Active; 'I' for Inactive)
REMARK    1  A    between atoms: C_4  and  C_5 
REMARK    2  A    between atoms: C_7  and  N_8 
REMARK       I    between atoms: N_8  and  C_9 
REMARK    3  A    between atoms: C_9  and  C_10 
REMARK    4  A    between atoms: C_10  and  N_11 
REMARK    5  A    between atoms: N_11  and  C_14 
REMARK    6  A    between atoms: C_20  and  C_21 
REMARK       I    between atoms: C_21  and  N_22 
ROOT
HETATM    1  C   UNL     1      42.263 -17.846   2.836  1.00  0.00     0.018 A 
HETATM    2  S   UNL     1      41.637 -17.427   1.302  1.00  0.00    -0.071 SA
HETATM    3  C   UNL     1      40.811 -16.082   1.912  1.00  0.00     0.093 A 
HETATM    4  C   UNL     1      40.990 -15.913   3.279  1.00  0.00     0.067 A 
HETATM    5  C   UNL     1      41.846 -16.944   3.799  1.00  0.00     0.039 A 
ENDROOT
BRANCH   3   6
HETATM    6  N   UNL     1      40.048 -15.255   1.095  1.00  0.00    -0.319 N 
HETATM    7  C   UNL     1      40.506 -14.363   0.155  1.00  0.00     0.248 C 
HETATM    8  O   UNL     1      41.664 -14.104  -0.167  1.00  0.00    -0.271 OA
HETATM    9  H   UNL     1      39.041 -15.383   1.230  1.00  0.00     0.169 HD
BRANCH   7  10
HETATM   10  C   UNL     1      39.390 -13.625  -0.586  1.00  0.00     0.335 C 
BRANCH  10  11
HETATM   11  N   UNL     1      39.896 -13.203  -1.948  1.00  0.00    -0.063 N 
HETATM   12  H   UNL     1      39.739 -12.180  -1.995  1.00  0.00     0.278 HD
HETATM   13  H   UNL     1      40.925 -13.271  -1.945  1.00  0.00     0.278 HD
BRANCH  11  14
HETATM   14  C   UNL     1      39.305 -13.879  -3.119  1.00  0.00     0.186 C 
HETATM   15  C   UNL     1      39.955 -15.236  -3.331  1.00  0.00     0.033 C 
HETATM   16  C   UNL     1      38.956 -15.950  -4.231  1.00  0.00     0.002 C 
HETATM   17  C   UNL     1      37.583 -15.422  -3.813  1.00  0.00     0.002 C 
HETATM   18  C   UNL     1      37.840 -14.224  -2.897  1.00  0.00     0.033 C 
ENDBRANCH  11  14
ENDBRANCH  10  11
ENDBRANCH   7  10
ENDBRANCH   3   6
BRANCH   4  19
HETATM   19  C   UNL     1      40.353 -14.814   4.004  1.00  0.00     0.252 C 
HETATM   20  N   UNL     1      39.754 -15.115   5.188  1.00  0.00    -0.366 N 
HETATM   21  H   UNL     1      39.699 -16.044   5.577  1.00  0.00     0.159 HD
HETATM   22  H   UNL     1      39.295 -14.367   5.693  1.00  0.00     0.159 HD
HETATM   23  O   UNL     1      40.348 -13.663   3.565  1.00  0.00    -0.268 OA
ENDBRANCH   4  19
BRANCH   1  24
HETATM   24  C   UNL     1      43.145 -19.011   2.992  1.00  0.00    -0.019 A 
HETATM   25  C   UNL     1      43.920 -19.155   4.152  1.00  0.00     0.013 A 
HETATM   26  C   UNL     1      44.753 -20.263   4.322  1.00  0.00     0.001 A 
HETATM   27  C   UNL     1      44.819 -21.245   3.336  1.00  0.00     0.000 A 
HETATM   28  C   UNL     1      44.052 -21.119   2.180  1.00  0.00     0.001 A 
HETATM   29  C   UNL     1      43.219 -20.010   2.009  1.00  0.00     0.013 A 
ENDBRANCH   1  24
TORSDOF 6
ENDMDL
MODEL 6
REMARK VINA RESULT:      -7.9      3.610      5.460
REMARK  6 active torsions:
REMARK  status: ('A' for Active; 'I' for Inactive)
REMARK    1  A    between atoms: C_4  and  C_5 
REMARK    2  A    between atoms: C_7  and  N_8 
REMARK       I    between atoms: N_8  and  C_9 
REMARK    3  A    between atoms: C_9  and  C_10 
REMARK    4  A    between atoms: C_10  and  N_11 
REMARK    5  A    between atoms: N_11  and  C_14 
REMARK    6  A    between atoms: C_20  and  C_21 
REMARK       I    between atoms: C_21  and  N_22 
ROOT
HETATM    1  C   UNL     1      43.759 -18.503   4.252  1.00  0.00     0.018 A 
HETATM    2  S   UNL     1      42.858 -17.317   3.412  1.00  0.00    -0.071 SA
HETATM    3  C   UNL     1      43.028 -16.184   4.658  1.00  0.00     0.093 A 
HETATM    4  C   UNL     1      43.769 -16.666   5.729  1.00  0.00     0.067 A 
HETATM    5  C   UNL     1      44.193 -18.016   5.471  1.00  0.00     0.039 A 
ENDROOT
BRANCH   3   6
HETATM    6  N   UNL     1      42.474 -14.912   4.575  1.00  0.00    -0.319 N 
HETATM    7  C   UNL     1      43.045 -13.789   4.025  1.00  0.00     0.248 C 
HETATM    8  O   UNL     1      44.148 -13.663   3.494  1.00  0.00    -0.271 OA
HETATM    9  H   UNL     1      41.525 -14.867   4.957  1.00  0.00     0.169 HD
BRANCH   7  10
HETATM   10  C   UNL     1      42.148 -12.553   4.081  1.00  0.00     0.335 C 
BRANCH  10  11
HETATM   11  N   UNL     1      41.946 -12.025   2.677  1.00  0.00    -0.063 N 
HETATM   12  H   UNL     1      41.889 -10.995   2.776  1.00  0.00     0.278 HD
HETATM   13  H   UNL     1      42.826 -12.152   2.156  1.00  0.00     0.278 HD
BRANCH  11  14
HETATM   14  C   UNL     1      40.784 -12.545   1.929  1.00  0.00     0.186 C 
HETATM   15  C   UNL     1      41.209 -13.685   1.018  1.00  0.00     0.033 C 
HETATM   16  C   UNL     1      39.889 -14.372   0.703  1.00  0.00     0.002 C 
HETATM   17  C   UNL     1      39.033 -14.207   1.960  1.00  0.00     0.002 C 
HETATM   18  C   UNL     1      39.761 -13.195   2.848  1.00  0.00     0.033 C 
ENDBRANCH  11  14
ENDBRANCH  10  11
ENDBRANCH   7  10
ENDBRANCH   3   6
BRANCH   4  19
HETATM   19  C   UNL     1      44.025 -15.848   6.913  1.00  0.00     0.252 C 
HETATM   20  N   UNL     1      43.441 -16.239   8.078  1.00  0.00    -0.366 N 
HETATM   21  H   UNL     1      42.827 -17.035   8.167  1.00  0.00     0.159 HD
HETATM   22  H   UNL     1      43.596 -15.673   8.902  1.00  0.00     0.159 HD
HETATM   23  O   UNL     1      44.731 -14.840   6.866  1.00  0.00    -0.268 OA
ENDBRANCH   4  19
BRANCH   1  24
HETATM   24  C   UNL     1      44.005 -19.820   3.649  1.00  0.00    -0.019 A 
HETATM   25  C   UNL     1      43.656 -20.056   2.311  1.00  0.00     0.013 A 
HETATM   26  C   UNL     1      43.897 -21.298   1.719  1.00  0.00     0.001 A 
HETATM   27  C   UNL     1      44.493 -22.319   2.455  1.00  0.00     0.000 A 
HETATM   28  C   UNL     1      44.850 -22.099   3.783  1.00  0.00     0.001 A 
HETATM   29  C   UNL     1      44.609 -20.856   4.376  1.00  0.00     0.013 A 
ENDBRANCH   1  24
TORSDOF 6
ENDMDL
MODEL 7
REMARK VINA RESULT:      -7.9      6.235      8.232
REMARK  6 active torsions:
REMARK  status: ('A' for Active; 'I' for Inactive)
REMARK    1  A    between atoms: C_4  and  C_5 
REMARK    2  A    between atoms: C_7  and  N_8 
REMARK       I    between atoms: N_8  and  C_9 
REMARK    3  A    between atoms: C_9  and  C_10 
REMARK    4  A    between atoms: C_10  and  N_11 
REMARK    5  A    between atoms: N_11  and  C_14 
REMARK    6  A    between atoms: C_20  and  C_21 
REMARK       I    between atoms: C_21  and  N_22 
ROOT
HETATM    1  C   UNL     1      42.739 -18.048   2.329  1.00  0.00     0.018 A 
HETATM    2  S   UNL     1      43.204 -17.272   0.877  1.00  0.00    -0.071 SA
HETATM    3  C   UNL     1      41.981 -16.109   1.007  1.00  0.00     0.093 A 
HETATM    4  C   UNL     1      41.199 -16.272   2.143  1.00  0.00     0.067 A 
HETATM    5  C   UNL     1      41.661 -17.400   2.905  1.00  0.00     0.039 A 
ENDROOT
BRANCH   3   6
HETATM    6  N   UNL     1      41.814 -15.109   0.056  1.00  0.00    -0.319 N 
HETATM    7  C   UNL     1      41.231 -15.229  -1.183  1.00  0.00     0.248 C 
HETATM    8  O   UNL     1      40.737 -16.223  -1.714  1.00  0.00    -0.271 OA
HETATM    9  H   UNL     1      42.156 -14.198   0.373  1.00  0.00     0.169 HD
BRANCH   7  10
HETATM   10  C   UNL     1      41.191 -13.920  -1.972  1.00  0.00     0.335 C 
BRANCH  10  11
HETATM   11  N   UNL     1      42.451 -13.804  -2.802  1.00  0.00    -0.063 N 
HETATM   12  H   UNL     1      43.143 -14.421  -2.340  1.00  0.00     0.278 HD
HETATM   13  H   UNL     1      42.289 -14.283  -3.701  1.00  0.00     0.278 HD
BRANCH  11  14
HETATM   14  C   UNL     1      43.002 -12.448  -2.994  1.00  0.00     0.186 C 
HETATM   15  C   UNL     1      42.134 -11.655  -3.957  1.00  0.00     0.033 C 
HETATM   16  C   UNL     1      42.554 -10.219  -3.683  1.00  0.00     0.002 C 
HETATM   17  C   UNL     1      42.899 -10.173  -2.193  1.00  0.00     0.002 C 
HETATM   18  C   UNL     1      42.946 -11.625  -1.716  1.00  0.00     0.033 C 
ENDBRANCH  11  14
ENDBRANCH  10  11
ENDBRANCH   7  10
ENDBRANCH   3   6
BRANCH   4  19
HETATM   19  C   UNL     1      40.082 -15.376   2.438  1.00  0.00     0.252 C 
HETATM   20  N   UNL     1      38.874 -15.689   1.894  1.00  0.00    -0.366 N 
HETATM   21  H   UNL     1      38.712 -16.477   1.284  1.00  0.00     0.159 HD
HETATM   22  H   UNL     1      38.095 -15.069   2.076  1.00  0.00     0.159 HD
HETATM   23  O   UNL     1      40.219 -14.375   3.141  1.00  0.00    -0.268 OA
ENDBRANCH   4  19
BRANCH   1  24
HETATM   24  C   UNL     1      43.477 -19.217   2.821  1.00  0.00    -0.019 A 
HETATM   25  C   UNL     1      44.021 -19.211   4.115  1.00  0.00     0.013 A 
HETATM   26  C   UNL     1      44.715 -20.321   4.603  1.00  0.00     0.001 A 
HETATM   27  C   UNL     1      44.869 -21.454   3.808  1.00  0.00     0.000 A 
HETATM   28  C   UNL     1      44.331 -21.478   2.524  1.00  0.00     0.001 A 
HETATM   29  C   UNL     1      43.638 -20.367   2.033  1.00  0.00     0.013 A 
ENDBRANCH   1  24
TORSDOF 6
ENDMDL
MODEL 8
REMARK VINA RESULT:      -7.7      4.914      7.969
REMARK  6 active torsions:
REMARK  status: ('A' for Active; 'I' for Inactive)
REMARK    1  A    between atoms: C_4  and  C_5 
REMARK    2  A    between atoms: C_7  and  N_8 
REMARK       I    between atoms: N_8  and  C_9 
REMARK    3  A    between atoms: C_9  and  C_10 
REMARK    4  A    between atoms: C_10  and  N_11 
REMARK    5  A    between atoms: N_11  and  C_14 
REMARK    6  A    between atoms: C_20  and  C_21 
REMARK       I    between atoms: C_21  and  N_22 
ROOT
HETATM    1  C   UNL     1      42.269 -17.971   2.987  1.00  0.00     0.018 A 
HETATM    2  S   UNL     1      41.442 -17.432   1.591  1.00  0.00    -0.071 SA
HETATM    3  C   UNL     1      40.736 -16.129   2.408  1.00  0.00     0.093 A 
HETATM    4  C   UNL     1      41.106 -16.065   3.745  1.00  0.00     0.067 A 
HETATM    5  C   UNL     1      42.006 -17.141   4.062  1.00  0.00     0.039 A 
ENDROOT
BRANCH   3   6
HETATM    6  N   UNL     1      39.883 -15.237   1.769  1.00  0.00    -0.319 N 
HETATM    7  C   UNL     1      40.236 -14.164   0.986  1.00  0.00     0.248 C 
HETATM    8  O   UNL     1      41.359 -13.765   0.680  1.00  0.00    -0.271 OA
HETATM    9  H   UNL     1      38.894 -15.464   1.908  1.00  0.00     0.169 HD
BRANCH   7  10
HETATM   10  C   UNL     1      39.041 -13.400   0.416  1.00  0.00     0.335 C 
BRANCH  10  11
HETATM   11  N   UNL     1      38.377 -14.243  -0.651  1.00  0.00    -0.063 N 
HETATM   12  H   UNL     1      38.582 -15.225  -0.392  1.00  0.00     0.278 HD
HETATM   13  H   UNL     1      37.356 -14.185  -0.518  1.00  0.00     0.278 HD
BRANCH  11  14
HETATM   14  C   UNL     1      38.765 -13.977  -2.050  1.00  0.00     0.186 C 
HETATM   15  C   UNL     1      39.227 -12.537  -2.206  1.00  0.00     0.033 C 
HETATM   16  C   UNL     1      39.994 -12.572  -3.520  1.00  0.00     0.002 C 
HETATM   17  C   UNL     1      40.628 -13.962  -3.585  1.00  0.00     0.002 C 
HETATM   18  C   UNL     1      39.987 -14.783  -2.465  1.00  0.00     0.033 C 
ENDBRANCH  11  14
ENDBRANCH  10  11
ENDBRANCH   7  10
ENDBRANCH   3   6
BRANCH   4  19
HETATM   19  C   UNL     1      40.598 -15.019   4.631  1.00  0.00     0.252 C 
HETATM   20  N   UNL     1      39.947 -15.419   5.756  1.00  0.00    -0.366 N 
HETATM   21  H   UNL     1      39.770 -16.382   5.999  1.00  0.00     0.159 HD
HETATM   22  H   UNL     1      39.575 -14.705   6.370  1.00  0.00     0.159 HD
HETATM   23  O   UNL     1      40.743 -13.823   4.373  1.00  0.00    -0.268 OA
ENDBRANCH   4  19
BRANCH   1  24
HETATM   24  C   UNL     1      43.140 -19.152   2.932  1.00  0.00    -0.019 A 
HETATM   25  C   UNL     1      43.025 -20.060   1.869  1.00  0.00     0.013 A 
HETATM   26  C   UNL     1      43.855 -21.181   1.793  1.00  0.00     0.001 A 
HETATM   27  C   UNL     1      44.816 -21.406   2.776  1.00  0.00     0.000 A 
HETATM   28  C   UNL     1      44.947 -20.511   3.835  1.00  0.00     0.001 A 
HETATM   29  C   UNL     1      44.115 -19.389   3.912  1.00  0.00     0.013 A 
ENDBRANCH   1  24
TORSDOF 6
ENDMDL
MODEL 9
REMARK VINA RESULT:      -7.6      3.443      4.231
REMARK  6 active torsions:
REMARK  status: ('A' for Active; 'I' for Inactive)
REMARK    1  A    between atoms: C_4  and  C_5 
REMARK    2  A    between atoms: C_7  and  N_8 
REMARK       I    between atoms: N_8  and  C_9 
REMARK    3  A    between atoms: C_9  and  C_10 
REMARK    4  A    between atoms: C_10  and  N_11 
REMARK    5  A    between atoms: N_11  and  C_14 
REMARK    6  A    between atoms: C_20  and  C_21 
REMARK       I    between atoms: C_21  and  N_22 
ROOT
HETATM    1  C   UNL     1      42.118 -17.813   3.106  1.00  0.00     0.018 A 
HETATM    2  S   UNL     1      41.701 -16.994   4.548  1.00  0.00    -0.071 SA
HETATM    3  C   UNL     1      40.633 -15.953   3.748  1.00  0.00     0.093 A 
HETATM    4  C   UNL     1      40.561 -16.199   2.383  1.00  0.00     0.067 A 
HETATM    5  C   UNL     1      41.426 -17.291   2.029  1.00  0.00     0.039 A 
ENDROOT
BRANCH   3   6
HETATM    6  N   UNL     1      39.918 -14.971   4.425  1.00  0.00    -0.319 N 
HETATM    7  C   UNL     1      40.372 -13.735   4.820  1.00  0.00     0.248 C 
HETATM    8  O   UNL     1      41.484 -13.233   4.665  1.00  0.00    -0.271 OA
HETATM    9  H   UNL     1      38.946 -15.239   4.600  1.00  0.00     0.169 HD
BRANCH   7  10
HETATM   10  C   UNL     1      39.313 -12.890   5.527  1.00  0.00     0.335 C 
BRANCH  10  11
HETATM   11  N   UNL     1      39.617 -12.854   7.009  1.00  0.00    -0.063 N 
HETATM   12  H   UNL     1      38.786 -13.265   7.471  1.00  0.00     0.278 HD
HETATM   13  H   UNL     1      40.350 -13.553   7.204  1.00  0.00     0.278 HD
BRANCH  11  14
HETATM   14  C   UNL     1      39.945 -11.538   7.592  1.00  0.00     0.186 C 
HETATM   15  C   UNL     1      39.516 -10.422   6.653  1.00  0.00     0.033 C 
HETATM   16  C   UNL     1      39.494  -9.205   7.567  1.00  0.00     0.002 C 
HETATM   17  C   UNL     1      39.074  -9.734   8.939  1.00  0.00     0.002 C 
HETATM   18  C   UNL     1      39.143 -11.260   8.854  1.00  0.00     0.033 C 
ENDBRANCH  11  14
ENDBRANCH  10  11
ENDBRANCH   7  10
ENDBRANCH   3   6
BRANCH   4  19
HETATM   19  C   UNL     1      39.702 -15.403   1.507  1.00  0.00     0.252 C 
HETATM   20  N   UNL     1      40.165 -15.138   0.255  1.00  0.00    -0.366 N 
HETATM   21  H   UNL     1      41.068 -15.429  -0.090  1.00  0.00     0.159 HD
HETATM   22  H   UNL     1      39.589 -14.575  -0.356  1.00  0.00     0.159 HD
HETATM   23  O   UNL     1      38.607 -14.981   1.879  1.00  0.00    -0.268 OA
ENDBRANCH   4  19
BRANCH   1  24
HETATM   24  C   UNL     1      43.072 -18.930   3.130  1.00  0.00    -0.019 A 
HETATM   25  C   UNL     1      43.916 -19.109   4.237  1.00  0.00     0.013 A 
HETATM   26  C   UNL     1      44.819 -20.175   4.281  1.00  0.00     0.001 A 
HETATM   27  C   UNL     1      44.887 -21.077   3.223  1.00  0.00     0.000 A 
HETATM   28  C   UNL     1      44.052 -20.916   2.119  1.00  0.00     0.001 A 
HETATM   29  C   UNL     1      43.149 -19.850   2.074  1.00  0.00     0.013 A 
ENDBRANCH   1  24
TORSDOF 6
ENDMDL
MODEL 10
REMARK VINA RESULT:      -7.6      3.256      4.137
REMARK  6 active torsions:
REMARK  status: ('A' for Active; 'I' for Inactive)
REMARK    1  A    between atoms: C_4  and  C_5 
REMARK    2  A    between atoms: C_7  and  N_8 
REMARK       I    between atoms: N_8  and  C_9 
REMARK    3  A    between atoms: C_9  and  C_10 
REMARK    4  A    between atoms: C_10  and  N_11 
REMARK    5  A    between atoms: N_11  and  C_14 
REMARK    6  A    between atoms: C_20  and  C_21 
REMARK       I    between atoms: C_21  and  N_22 
ROOT
HETATM    1  C   UNL     1      42.718 -18.101   3.241  1.00  0.00     0.018 A 
HETATM    2  S   UNL     1      43.080 -17.107   4.584  1.00  0.00    -0.071 SA
HETATM    3  C   UNL     1      41.979 -15.914   4.106  1.00  0.00     0.093 A 
HETATM    4  C   UNL     1      41.311 -16.235   2.932  1.00  0.00     0.067 A 
HETATM    5  C   UNL     1      41.748 -17.516   2.447  1.00  0.00     0.039 A 
ENDROOT
BRANCH   3   6
HETATM    6  N   UNL     1      41.790 -14.750   4.843  1.00  0.00    -0.319 N 
HETATM    7  C   UNL     1      42.636 -13.670   4.924  1.00  0.00     0.248 C 
HETATM    8  O   UNL     1      43.722 -13.494   4.374  1.00  0.00    -0.271 OA
HETATM    9  H   UNL     1      40.895 -14.737   5.340  1.00  0.00     0.169 HD
BRANCH   7  10
HETATM   10  C   UNL     1      42.109 -12.543   5.812  1.00  0.00     0.335 C 
BRANCH  10  11
HETATM   11  N   UNL     1      40.740 -12.923   6.334  1.00  0.00    -0.063 N 
HETATM   12  H   UNL     1      40.558 -13.873   5.963  1.00  0.00     0.278 HD
HETATM   13  H   UNL     1      40.818 -13.091   7.349  1.00  0.00     0.278 HD
BRANCH  11  14
HETATM   14  C   UNL     1      39.626 -12.011   6.012  1.00  0.00     0.186 C 
HETATM   15  C   UNL     1      40.080 -10.564   6.116  1.00  0.00     0.033 C 
HETATM   16  C   UNL     1      39.007  -9.820   5.334  1.00  0.00     0.002 C 
HETATM   17  C   UNL     1      38.573 -10.778   4.223  1.00  0.00     0.002 C 
HETATM   18  C   UNL     1      39.189 -12.137   4.561  1.00  0.00     0.033 C 
ENDBRANCH  11  14
ENDBRANCH  10  11
ENDBRANCH   7  10
ENDBRANCH   3   6
BRANCH   4  19
HETATM   19  C   UNL     1      40.323 -15.333   2.342  1.00  0.00     0.252 C 
HETATM   20  N   UNL     1      39.094 -15.850   2.068  1.00  0.00    -0.366 N 
HETATM   21  H   UNL     1      38.836 -16.814   2.220  1.00  0.00     0.159 HD
HETATM   22  H   UNL     1      38.405 -15.242   1.645  1.00  0.00     0.159 HD
HETATM   23  O   UNL     1      40.584 -14.156   2.093  1.00  0.00    -0.268 OA
ENDBRANCH   4  19
BRANCH   1  24
HETATM   24  C   UNL     1      43.384 -19.398   3.069  1.00  0.00    -0.019 A 
HETATM   25  C   UNL     1      43.116 -20.181   1.936  1.00  0.00     0.013 A 
HETATM   26  C   UNL     1      43.751 -21.412   1.751  1.00  0.00     0.001 A 
HETATM   27  C   UNL     1      44.668 -21.873   2.693  1.00  0.00     0.000 A 
HETATM   28  C   UNL     1      44.949 -21.105   3.820  1.00  0.00     0.001 A 
HETATM   29  C   UNL     1      44.313 -19.875   4.007  1.00  0.00     0.013 A 
ENDBRANCH   1  24
TORSDOF 6
ENDMDL
