MODEL 1
REMARK VINA RESULT:      -9.2      0.000      0.000
REMARK  7 active torsions:
REMARK  status: ('A' for Active; 'I' for Inactive)
REMARK    1  A    between atoms: C_2  and  C_3 
REMARK    2  A    between atoms: C_6  and  C_7 
REMARK       I    between atoms: C_7  and  N_8 
REMARK    3  A    between atoms: N_8  and  C_9 
REMARK    4  A    between atoms: C_9  and  C_10 
REMARK    5  A    between atoms: N_19  and  C_20 
REMARK    6  A    between atoms: C_20  and  C_21 
REMARK    7  A    between atoms: C_21  and  C_22 
ROOT
HETATM    1  C   UNL     1      41.932 -15.742   2.785  1.00  0.00     0.249 A 
HETATM    2  C   UNL     1      41.200 -16.989   3.311  1.00  0.00     0.266 A 
HETATM    3  O   UNL     1      40.405 -17.693   2.707  1.00  0.00    -0.270 OA
HETATM    4  N   UNL     1      41.568 -17.169   4.640  1.00  0.00    -0.310 N 
HETATM    5  C   UNL     1      42.394 -16.178   5.056  1.00  0.00     0.129 A 
HETATM    6  C   UNL     1      42.623 -15.339   4.048  1.00  0.00     0.101 A 
HETATM    7  N   UNL     1      42.942 -16.028   6.300  1.00  0.00    -0.284 N 
HETATM    8  C   UNL     1      43.824 -14.976   6.553  1.00  0.00     0.331 A 
HETATM    9  O   UNL     1      44.408 -14.805   7.621  1.00  0.00    -0.246 OA
HETATM   10  N   UNL     1      44.039 -14.112   5.504  1.00  0.00    -0.275 N 
HETATM   11  C   UNL     1      43.509 -14.206   4.245  1.00  0.00     0.262 A 
HETATM   12  O   UNL     1      43.772 -13.426   3.342  1.00  0.00    -0.267 OA
HETATM   13  H   UNL     1      41.179 -17.905   5.211  1.00  0.00     0.170 HD
HETATM   14  H   UNL     1      44.668 -13.344   5.680  1.00  0.00     0.173 HD
ENDROOT
BRANCH   1  15
HETATM   15  N   UNL     1      40.968 -14.744   2.277  1.00  0.00    -0.327 N 
HETATM   16  C   UNL     1      39.920 -14.258   3.025  1.00  0.00     0.253 C 
HETATM   17  O   UNL     1      39.725 -14.566   4.194  1.00  0.00    -0.268 OA
HETATM   18  H   UNL     1      40.884 -14.679   1.268  1.00  0.00     0.164 HD
BRANCH  16  19
HETATM   19  C   UNL     1      38.977 -13.355   2.316  1.00  0.00     0.032 A 
HETATM   20  C   UNL     1      38.197 -13.877   1.284  1.00  0.00     0.017 A 
HETATM   21  C   UNL     1      37.297 -13.054   0.598  1.00  0.00     0.009 A 
HETATM   22  C   UNL     1      37.130 -11.699   0.941  1.00  0.00    -0.051 A 
HETATM   23  C   UNL     1      37.933 -11.196   1.982  1.00  0.00     0.009 A 
HETATM   24  C   UNL     1      38.841 -12.012   2.669  1.00  0.00     0.017 A 
BRANCH  22  25
HETATM   25  C   UNL     1      36.137 -10.800   0.179  1.00  0.00    -0.024 C 
HETATM   26  C   UNL     1      36.184 -11.040  -1.348  1.00  0.00     0.019 C 
HETATM   27  C   UNL     1      36.504  -9.330   0.458  1.00  0.00     0.019 C 
HETATM   28  C   UNL     1      34.670 -11.029   0.611  1.00  0.00     0.019 C 
ENDBRANCH  22  25
ENDBRANCH  16  19
ENDBRANCH   1  15
BRANCH   1  29
HETATM   29  C   UNL     1      42.914 -16.260   1.728  1.00  0.00     0.426 C 
HETATM   30  F   UNL     1      42.632 -17.540   1.377  1.00  0.00    -0.167 F 
HETATM   31  F   UNL     1      42.853 -15.538   0.584  1.00  0.00    -0.167 F 
HETATM   32  F   UNL     1      44.199 -16.225   2.148  1.00  0.00    -0.167 F 
ENDBRANCH   1  29
BRANCH   7  33
HETATM   33  C   UNL     1      42.656 -16.975   7.378  1.00  0.00     0.140 C 
BRANCH  33  34
HETATM   34  C   UNL     1      43.901 -17.765   7.797  1.00  0.00     0.059 C 
BRANCH  34  35
HETATM   35  C   UNL     1      44.130 -18.968   6.917  1.00  0.00    -0.057 A 
HETATM   36  C   UNL     1      43.689 -20.239   7.315  1.00  0.00     0.007 A 
HETATM   37  C   UNL     1      43.919 -21.353   6.506  1.00  0.00     0.001 A 
HETATM   38  C   UNL     1      44.583 -21.207   5.291  1.00  0.00     0.000 A 
HETATM   39  C   UNL     1      45.021 -19.949   4.884  1.00  0.00     0.001 A 
HETATM   40  C   UNL     1      44.798 -18.834   5.694  1.00  0.00     0.007 A 
ENDBRANCH  34  35
ENDBRANCH  33  34
ENDBRANCH   7  33
TORSDOF 7
ENDMDL
MODEL 2
REMARK VINA RESULT:      -8.9      2.936      4.300
REMARK  7 active torsions:
REMARK  status: ('A' for Active; 'I' for Inactive)
REMARK    1  A    between atoms: C_2  and  C_3 
REMARK    2  A    between atoms: C_6  and  C_7 
REMARK       I    between atoms: C_7  and  N_8 
REMARK    3  A    between atoms: N_8  and  C_9 
REMARK    4  A    between atoms: C_9  and  C_10 
REMARK    5  A    between atoms: N_19  and  C_20 
REMARK    6  A    between atoms: C_20  and  C_21 
REMARK    7  A    between atoms: C_21  and  C_22 
ROOT
HETATM    1  C   UNL     1      41.052 -13.735  -1.226  1.00  0.00     0.249 A 
HETATM    2  C   UNL     1      40.757 -15.157  -1.737  1.00  0.00     0.266 A 
HETATM    3  O   UNL     1      40.209 -15.471  -2.782  1.00  0.00    -0.270 OA
HETATM    4  N   UNL     1      41.193 -16.055  -0.769  1.00  0.00    -0.310 N 
HETATM    5  C   UNL     1      41.676 -15.406   0.318  1.00  0.00     0.129 A 
HETATM    6  C   UNL     1      41.610 -14.091   0.115  1.00  0.00     0.101 A 
HETATM    7  N   UNL     1      42.177 -15.966   1.460  1.00  0.00    -0.284 N 
HETATM    8  C   UNL     1      42.692 -15.153   2.471  1.00  0.00     0.331 A 
HETATM    9  O   UNL     1      43.216 -15.575   3.499  1.00  0.00    -0.246 OA
HETATM   10  N   UNL     1      42.603 -13.797   2.249  1.00  0.00    -0.275 N 
HETATM   11  C   UNL     1      42.102 -13.182   1.134  1.00  0.00     0.262 A 
HETATM   12  O   UNL     1      42.088 -11.969   0.980  1.00  0.00    -0.267 OA
HETATM   13  H   UNL     1      41.065 -17.052  -0.864  1.00  0.00     0.170 HD
HETATM   14  H   UNL     1      42.965 -13.201   2.979  1.00  0.00     0.173 HD
ENDROOT
BRANCH   1  15
HETATM   15  N   UNL     1      39.814 -12.931  -1.173  1.00  0.00    -0.327 N 
HETATM   16  C   UNL     1      38.721 -13.277  -0.412  1.00  0.00     0.253 C 
HETATM   17  O   UNL     1      38.695 -14.251   0.330  1.00  0.00    -0.268 OA
HETATM   18  H   UNL     1      39.651 -12.311  -1.959  1.00  0.00     0.164 HD
BRANCH  16  19
HETATM   19  C   UNL     1      37.516 -12.422  -0.574  1.00  0.00     0.032 A 
HETATM   20  C   UNL     1      36.721 -12.165   0.542  1.00  0.00     0.017 A 
HETATM   21  C   UNL     1      35.582 -11.361   0.424  1.00  0.00     0.009 A 
HETATM   22  C   UNL     1      35.223 -10.770  -0.802  1.00  0.00    -0.051 A 
HETATM   23  C   UNL     1      36.038 -11.051  -1.915  1.00  0.00     0.009 A 
HETATM   24  C   UNL     1      37.177 -11.859  -1.805  1.00  0.00     0.017 A 
BRANCH  22  25
HETATM   25  C   UNL     1      33.965  -9.888  -0.924  1.00  0.00    -0.024 C 
HETATM   26  C   UNL     1      34.308  -8.428  -1.297  1.00  0.00     0.019 C 
HETATM   27  C   UNL     1      33.239  -9.892   0.435  1.00  0.00     0.019 C 
HETATM   28  C   UNL     1      32.982 -10.395  -2.005  1.00  0.00     0.019 C 
ENDBRANCH  22  25
ENDBRANCH  16  19
ENDBRANCH   1  15
BRANCH   1  29
HETATM   29  C   UNL     1      42.123 -13.176  -2.169  1.00  0.00     0.426 C 
HETATM   30  F   UNL     1      41.726 -12.008  -2.731  1.00  0.00    -0.167 F 
HETATM   31  F   UNL     1      43.278 -12.903  -1.517  1.00  0.00    -0.167 F 
HETATM   32  F   UNL     1      42.429 -14.029  -3.173  1.00  0.00    -0.167 F 
ENDBRANCH   1  29
BRANCH   7  33
HETATM   33  C   UNL     1      42.225 -17.417   1.639  1.00  0.00     0.140 C 
BRANCH  33  34
HETATM   34  C   UNL     1      43.605 -17.994   1.309  1.00  0.00     0.059 C 
BRANCH  34  35
HETATM   35  C   UNL     1      43.956 -19.165   2.193  1.00  0.00    -0.057 A 
HETATM   36  C   UNL     1      44.286 -18.968   3.542  1.00  0.00     0.007 A 
HETATM   37  C   UNL     1      44.627 -20.052   4.352  1.00  0.00     0.001 A 
HETATM   38  C   UNL     1      44.634 -21.341   3.825  1.00  0.00     0.000 A 
HETATM   39  C   UNL     1      44.304 -21.548   2.488  1.00  0.00     0.001 A 
HETATM   40  C   UNL     1      43.969 -20.465   1.673  1.00  0.00     0.007 A 
ENDBRANCH  34  35
ENDBRANCH  33  34
ENDBRANCH   7  33
TORSDOF 7
ENDMDL
MODEL 3
REMARK VINA RESULT:      -8.8      3.920      5.795
REMARK  7 active torsions:
REMARK  status: ('A' for Active; 'I' for Inactive)
REMARK    1  A    between atoms: C_2  and  C_3 
REMARK    2  A    between atoms: C_6  and  C_7 
REMARK       I    between atoms: C_7  and  N_8 
REMARK    3  A    between atoms: N_8  and  C_9 
REMARK    4  A    between atoms: C_9  and  C_10 
REMARK    5  A    between atoms: N_19  and  C_20 
REMARK    6  A    between atoms: C_20  and  C_21 
REMARK    7  A    between atoms: C_21  and  C_22 
ROOT
HETATM    1  C   UNL     1      40.754 -13.504  -2.086  1.00  0.00     0.249 A 
HETATM    2  C   UNL     1      41.190 -14.855  -2.680  1.00  0.00     0.266 A 
HETATM    3  O   UNL     1      41.331 -15.136  -3.860  1.00  0.00    -0.270 OA
HETATM    4  N   UNL     1      41.364 -15.746  -1.626  1.00  0.00    -0.310 N 
HETATM    5  C   UNL     1      41.047 -15.169  -0.441  1.00  0.00     0.129 A 
HETATM    6  C   UNL     1      40.686 -13.904  -0.647  1.00  0.00     0.101 A 
HETATM    7  N   UNL     1      41.088 -15.748   0.797  1.00  0.00    -0.284 N 
HETATM    8  C   UNL     1      40.782 -14.996   1.932  1.00  0.00     0.331 A 
HETATM    9  O   UNL     1      40.855 -15.419   3.083  1.00  0.00    -0.246 OA
HETATM   10  N   UNL     1      40.399 -13.694   1.699  1.00  0.00    -0.275 N 
HETATM   11  C   UNL     1      40.328 -13.068   0.484  1.00  0.00     0.262 A 
HETATM   12  O   UNL     1      40.017 -11.893   0.347  1.00  0.00    -0.267 OA
HETATM   13  H   UNL     1      41.609 -16.714  -1.776  1.00  0.00     0.170 HD
HETATM   14  H   UNL     1      40.168 -13.145   2.513  1.00  0.00     0.173 HD
ENDROOT
BRANCH   1  15
HETATM   15  N   UNL     1      39.461 -13.073  -2.658  1.00  0.00    -0.327 N 
HETATM   16  C   UNL     1      38.384 -13.917  -2.806  1.00  0.00     0.253 C 
HETATM   17  O   UNL     1      38.381 -15.082  -2.430  1.00  0.00    -0.268 OA
HETATM   18  H   UNL     1      39.488 -12.250  -3.249  1.00  0.00     0.164 HD
BRANCH  16  19
HETATM   19  C   UNL     1      37.206 -13.350  -3.513  1.00  0.00     0.032 A 
HETATM   20  C   UNL     1      36.847 -12.026  -3.263  1.00  0.00     0.017 A 
HETATM   21  C   UNL     1      35.744 -11.462  -3.915  1.00  0.00     0.009 A 
HETATM   22  C   UNL     1      34.990 -12.193  -4.852  1.00  0.00    -0.051 A 
HETATM   23  C   UNL     1      35.370 -13.529  -5.081  1.00  0.00     0.009 A 
HETATM   24  C   UNL     1      36.468 -14.102  -4.429  1.00  0.00     0.017 A 
BRANCH  22  25
HETATM   25  C   UNL     1      33.776 -11.564  -5.563  1.00  0.00    -0.024 C 
HETATM   26  C   UNL     1      33.933 -10.037  -5.748  1.00  0.00     0.019 C 
HETATM   27  C   UNL     1      32.523 -11.831  -4.708  1.00  0.00     0.019 C 
HETATM   28  C   UNL     1      33.540 -12.151  -6.974  1.00  0.00     0.019 C 
ENDBRANCH  22  25
ENDBRANCH  16  19
ENDBRANCH   1  15
BRANCH   1  29
HETATM   29  C   UNL     1      41.914 -12.542  -2.365  1.00  0.00     0.426 C 
HETATM   30  F   UNL     1      42.231 -12.519  -3.683  1.00  0.00    -0.167 F 
HETATM   31  F   UNL     1      41.604 -11.266  -2.034  1.00  0.00    -0.167 F 
HETATM   32  F   UNL     1      43.035 -12.865  -1.681  1.00  0.00    -0.167 F 
ENDBRANCH   1  29
BRANCH   7  33
HETATM   33  C   UNL     1      41.487 -17.144   0.971  1.00  0.00     0.140 C 
BRANCH  33  34
HETATM   34  C   UNL     1      43.010 -17.311   0.989  1.00  0.00     0.059 C 
BRANCH  34  35
HETATM   35  C   UNL     1      43.468 -18.218   2.104  1.00  0.00    -0.057 A 
HETATM   36  C   UNL     1      43.530 -17.751   3.424  1.00  0.00     0.007 A 
HETATM   37  C   UNL     1      43.971 -18.588   4.451  1.00  0.00     0.001 A 
HETATM   38  C   UNL     1      44.346 -19.899   4.169  1.00  0.00     0.000 A 
HETATM   39  C   UNL     1      44.284 -20.375   2.861  1.00  0.00     0.001 A 
HETATM   40  C   UNL     1      43.849 -19.538   1.831  1.00  0.00     0.007 A 
ENDBRANCH  34  35
ENDBRANCH  33  34
ENDBRANCH   7  33
TORSDOF 7
ENDMDL
MODEL 4
REMARK VINA RESULT:      -8.7      2.541      3.615
REMARK  7 active torsions:
REMARK  status: ('A' for Active; 'I' for Inactive)
REMARK    1  A    between atoms: C_2  and  C_3 
REMARK    2  A    between atoms: C_6  and  C_7 
REMARK       I    between atoms: C_7  and  N_8 
REMARK    3  A    between atoms: N_8  and  C_9 
REMARK    4  A    between atoms: C_9  and  C_10 
REMARK    5  A    between atoms: N_19  and  C_20 
REMARK    6  A    between atoms: C_20  and  C_21 
REMARK    7  A    between atoms: C_21  and  C_22 
ROOT
HETATM    1  C   UNL     1      41.230 -13.234   3.572  1.00  0.00     0.249 A 
HETATM    2  C   UNL     1      42.179 -13.468   2.384  1.00  0.00     0.266 A 
HETATM    3  O   UNL     1      42.566 -12.644   1.569  1.00  0.00    -0.270 OA
HETATM    4  N   UNL     1      42.505 -14.820   2.361  1.00  0.00    -0.310 N 
HETATM    5  C   UNL     1      41.852 -15.497   3.337  1.00  0.00     0.129 A 
HETATM    6  C   UNL     1      41.110 -14.648   4.044  1.00  0.00     0.101 A 
HETATM    7  N   UNL     1      41.923 -16.836   3.602  1.00  0.00    -0.284 N 
HETATM    8  C   UNL     1      41.228 -17.372   4.687  1.00  0.00     0.331 A 
HETATM    9  O   UNL     1      41.286 -18.550   5.032  1.00  0.00    -0.246 OA
HETATM   10  N   UNL     1      40.455 -16.482   5.399  1.00  0.00    -0.275 N 
HETATM   11  C   UNL     1      40.337 -15.138   5.171  1.00  0.00     0.262 A 
HETATM   12  O   UNL     1      39.663 -14.392   5.867  1.00  0.00    -0.267 OA
HETATM   13  H   UNL     1      43.086 -15.220   1.638  1.00  0.00     0.170 HD
HETATM   14  H   UNL     1      39.942 -16.863   6.180  1.00  0.00     0.173 HD
ENDROOT
BRANCH   1  15
HETATM   15  N   UNL     1      39.957 -12.637   3.116  1.00  0.00    -0.327 N 
HETATM   16  C   UNL     1      39.260 -13.093   2.020  1.00  0.00     0.253 C 
HETATM   17  O   UNL     1      39.601 -14.065   1.359  1.00  0.00    -0.268 OA
HETATM   18  H   UNL     1      39.782 -11.683   3.410  1.00  0.00     0.164 HD
BRANCH  16  19
HETATM   19  C   UNL     1      38.066 -12.298   1.631  1.00  0.00     0.032 A 
HETATM   20  C   UNL     1      37.209 -12.809   0.656  1.00  0.00     0.017 A 
HETATM   21  C   UNL     1      36.075 -12.087   0.269  1.00  0.00     0.009 A 
HETATM   22  C   UNL     1      35.751 -10.852   0.863  1.00  0.00    -0.051 A 
HETATM   23  C   UNL     1      36.636 -10.356   1.839  1.00  0.00     0.009 A 
HETATM   24  C   UNL     1      37.776 -11.070   2.227  1.00  0.00     0.017 A 
BRANCH  22  25
HETATM   25  C   UNL     1      34.501 -10.063   0.428  1.00  0.00    -0.024 C 
HETATM   26  C   UNL     1      33.318 -10.255   1.404  1.00  0.00     0.019 C 
HETATM   27  C   UNL     1      34.076 -10.561  -0.967  1.00  0.00     0.019 C 
HETATM   28  C   UNL     1      34.755  -8.539   0.347  1.00  0.00     0.019 C 
ENDBRANCH  22  25
ENDBRANCH  16  19
ENDBRANCH   1  15
BRANCH   1  29
HETATM   29  C   UNL     1      42.015 -12.360   4.556  1.00  0.00     0.426 C 
HETATM   30  F   UNL     1      43.295 -12.787   4.685  1.00  0.00    -0.167 F 
HETATM   31  F   UNL     1      42.091 -11.073   4.139  1.00  0.00    -0.167 F 
HETATM   32  F   UNL     1      41.464 -12.342   5.791  1.00  0.00    -0.167 F 
ENDBRANCH   1  29
BRANCH   7  33
HETATM   33  C   UNL     1      42.751 -17.730   2.792  1.00  0.00     0.140 C 
BRANCH  33  34
HETATM   34  C   UNL     1      44.029 -18.154   3.524  1.00  0.00     0.059 C 
BRANCH  34  35
HETATM   35  C   UNL     1      44.243 -19.646   3.471  1.00  0.00    -0.057 A 
HETATM   36  C   UNL     1      44.025 -20.358   2.283  1.00  0.00     0.007 A 
HETATM   37  C   UNL     1      44.208 -21.741   2.243  1.00  0.00     0.001 A 
HETATM   38  C   UNL     1      44.616 -22.423   3.387  1.00  0.00     0.000 A 
HETATM   39  C   UNL     1      44.839 -21.725   4.571  1.00  0.00     0.001 A 
HETATM   40  C   UNL     1      44.652 -20.343   4.616  1.00  0.00     0.007 A 
ENDBRANCH  34  35
ENDBRANCH  33  34
ENDBRANCH   7  33
TORSDOF 7
ENDMDL
MODEL 5
REMARK VINA RESULT:      -8.7      3.398      5.407
REMARK  7 active torsions:
REMARK  status: ('A' for Active; 'I' for Inactive)
REMARK    1  A    between atoms: C_2  and  C_3 
REMARK    2  A    between atoms: C_6  and  C_7 
REMARK       I    between atoms: C_7  and  N_8 
REMARK    3  A    between atoms: N_8  and  C_9 
REMARK    4  A    between atoms: C_9  and  C_10 
REMARK    5  A    between atoms: N_19  and  C_20 
REMARK    6  A    between atoms: C_20  and  C_21 
REMARK    7  A    between atoms: C_21  and  C_22 
ROOT
HETATM    1  C   UNL     1      40.538 -13.096  -0.402  1.00  0.00     0.249 A 
HETATM    2  C   UNL     1      41.668 -13.684  -1.266  1.00  0.00     0.266 A 
HETATM    3  O   UNL     1      42.141 -13.216  -2.290  1.00  0.00    -0.270 OA
HETATM    4  N   UNL     1      42.051 -14.894  -0.697  1.00  0.00    -0.310 N 
HETATM    5  C   UNL     1      41.285 -15.192   0.381  1.00  0.00     0.129 A 
HETATM    6  C   UNL     1      40.407 -14.211   0.584  1.00  0.00     0.101 A 
HETATM    7  N   UNL     1      41.370 -16.301   1.175  1.00  0.00    -0.284 N 
HETATM    8  C   UNL     1      40.539 -16.432   2.288  1.00  0.00     0.331 A 
HETATM    9  O   UNL     1      40.593 -17.364   3.087  1.00  0.00    -0.246 OA
HETATM   10  N   UNL     1      39.629 -15.415   2.475  1.00  0.00    -0.275 N 
HETATM   11  C   UNL     1      39.491 -14.291   1.708  1.00  0.00     0.262 A 
HETATM   12  O   UNL     1      38.687 -13.402   1.951  1.00  0.00    -0.267 OA
HETATM   13  H   UNL     1      42.753 -15.487  -1.116  1.00  0.00     0.170 HD
HETATM   14  H   UNL     1      39.018 -15.505   3.273  1.00  0.00     0.173 HD
ENDROOT
BRANCH   1  15
HETATM   15  N   UNL     1      39.327 -12.861  -1.216  1.00  0.00    -0.327 N 
HETATM   16  C   UNL     1      38.849 -13.765  -2.137  1.00  0.00     0.253 C 
HETATM   17  O   UNL     1      39.351 -14.865  -2.327  1.00  0.00    -0.268 OA
HETATM   18  H   UNL     1      39.051 -11.892  -1.334  1.00  0.00     0.164 HD
BRANCH  16  19
HETATM   19  C   UNL     1      37.694 -13.313  -2.955  1.00  0.00     0.032 A 
HETATM   20  C   UNL     1      37.206 -12.020  -2.770  1.00  0.00     0.017 A 
HETATM   21  C   UNL     1      36.121 -11.562  -3.526  1.00  0.00     0.009 A 
HETATM   22  C   UNL     1      35.513 -12.372  -4.505  1.00  0.00    -0.051 A 
HETATM   23  C   UNL     1      36.020 -13.675  -4.667  1.00  0.00     0.009 A 
HETATM   24  C   UNL     1      37.102 -14.141  -3.910  1.00  0.00     0.017 A 
BRANCH  22  25
HETATM   25  C   UNL     1      34.317 -11.860  -5.331  1.00  0.00    -0.024 C 
HETATM   26  C   UNL     1      32.961 -12.202  -4.671  1.00  0.00     0.019 C 
HETATM   27  C   UNL     1      34.370 -12.524  -6.720  1.00  0.00     0.019 C 
HETATM   28  C   UNL     1      34.334 -10.325  -5.521  1.00  0.00     0.019 C 
ENDBRANCH  22  25
ENDBRANCH  16  19
ENDBRANCH   1  15
BRANCH   1  29
HETATM   29  C   UNL     1      41.124 -11.829   0.230  1.00  0.00     0.426 C 
HETATM   30  F   UNL     1      41.609 -10.984  -0.714  1.00  0.00    -0.167 F 
HETATM   31  F   UNL     1      40.190 -11.127   0.915  1.00  0.00    -0.167 F 
HETATM   32  F   UNL     1      42.129 -12.096   1.095  1.00  0.00    -0.167 F 
ENDBRANCH   1  29
BRANCH   7  33
HETATM   33  C   UNL     1      42.350 -17.355   0.908  1.00  0.00     0.140 C 
BRANCH  33  34
HETATM   34  C   UNL     1      43.671 -17.115   1.647  1.00  0.00     0.059 C 
BRANCH  34  35
HETATM   35  C   UNL     1      43.951 -18.189   2.668  1.00  0.00    -0.057 A 
HETATM   36  C   UNL     1      43.978 -17.884   4.036  1.00  0.00     0.007 A 
HETATM   37  C   UNL     1      44.256 -18.878   4.977  1.00  0.00     0.001 A 
HETATM   38  C   UNL     1      44.502 -20.183   4.560  1.00  0.00     0.000 A 
HETATM   39  C   UNL     1      44.473 -20.498   3.203  1.00  0.00     0.001 A 
HETATM   40  C   UNL     1      44.202 -19.505   2.260  1.00  0.00     0.007 A 
ENDBRANCH  34  35
ENDBRANCH  33  34
ENDBRANCH   7  33
TORSDOF 7
ENDMDL
MODEL 6
REMARK VINA RESULT:      -8.5      4.066      7.739
REMARK  7 active torsions:
REMARK  status: ('A' for Active; 'I' for Inactive)
REMARK    1  A    between atoms: C_2  and  C_3 
REMARK    2  A    between atoms: C_6  and  C_7 
REMARK       I    between atoms: C_7  and  N_8 
REMARK    3  A    between atoms: N_8  and  C_9 
REMARK    4  A    between atoms: C_9  and  C_10 
REMARK    5  A    between atoms: N_19  and  C_20 
REMARK    6  A    between atoms: C_20  and  C_21 
REMARK    7  A    between atoms: C_21  and  C_22 
ROOT
HETATM    1  C   UNL     1      43.301 -14.412   5.955  1.00  0.00     0.249 A 
HETATM    2  C   UNL     1      44.324 -13.935   4.909  1.00  0.00     0.266 A 
HETATM    3  O   UNL     1      45.470 -13.564   5.107  1.00  0.00    -0.270 OA
HETATM    4  N   UNL     1      43.701 -13.957   3.666  1.00  0.00    -0.310 N 
HETATM    5  C   UNL     1      42.403 -14.329   3.775  1.00  0.00     0.129 A 
HETATM    6  C   UNL     1      42.123 -14.588   5.051  1.00  0.00     0.101 A 
HETATM    7  N   UNL     1      41.490 -14.449   2.765  1.00  0.00    -0.284 N 
HETATM    8  C   UNL     1      40.198 -14.902   3.039  1.00  0.00     0.331 A 
HETATM    9  O   UNL     1      39.338 -15.097   2.185  1.00  0.00    -0.246 OA
HETATM   10  N   UNL     1      39.922 -15.151   4.365  1.00  0.00    -0.275 N 
HETATM   11  C   UNL     1      40.792 -15.037   5.416  1.00  0.00     0.262 A 
HETATM   12  O   UNL     1      40.496 -15.314   6.570  1.00  0.00    -0.267 OA
HETATM   13  H   UNL     1      44.167 -13.643   2.826  1.00  0.00     0.170 HD
HETATM   14  H   UNL     1      38.989 -15.471   4.574  1.00  0.00     0.173 HD
ENDROOT
BRANCH   1  15
HETATM   15  N   UNL     1      43.111 -13.389   7.005  1.00  0.00    -0.327 N 
HETATM   16  C   UNL     1      44.089 -13.048   7.912  1.00  0.00     0.253 C 
HETATM   17  O   UNL     1      45.219 -13.520   7.896  1.00  0.00    -0.268 OA
HETATM   18  H   UNL     1      42.151 -13.191   7.266  1.00  0.00     0.164 HD
BRANCH  16  19
HETATM   19  C   UNL     1      43.686 -12.092   8.976  1.00  0.00     0.032 A 
HETATM   20  C   UNL     1      44.253 -12.221  10.243  1.00  0.00     0.017 A 
HETATM   21  C   UNL     1      43.897 -11.335  11.266  1.00  0.00     0.009 A 
HETATM   22  C   UNL     1      42.990 -10.282  11.045  1.00  0.00    -0.051 A 
HETATM   23  C   UNL     1      42.427 -10.178   9.759  1.00  0.00     0.009 A 
HETATM   24  C   UNL     1      42.774 -11.064   8.732  1.00  0.00     0.017 A 
BRANCH  22  25
HETATM   25  C   UNL     1      42.602  -9.313  12.178  1.00  0.00    -0.024 C 
HETATM   26  C   UNL     1      41.142  -9.512  12.646  1.00  0.00     0.019 C 
HETATM   27  C   UNL     1      42.761  -7.871  11.657  1.00  0.00     0.019 C 
HETATM   28  C   UNL     1      43.489  -9.478  13.435  1.00  0.00     0.019 C 
ENDBRANCH  22  25
ENDBRANCH  16  19
ENDBRANCH   1  15
BRANCH   1  29
HETATM   29  C   UNL     1      43.839 -15.750   6.473  1.00  0.00     0.426 C 
HETATM   30  F   UNL     1      43.299 -16.068   7.675  1.00  0.00    -0.167 F 
HETATM   31  F   UNL     1      43.530 -16.774   5.642  1.00  0.00    -0.167 F 
HETATM   32  F   UNL     1      45.184 -15.750   6.615  1.00  0.00    -0.167 F 
ENDBRANCH   1  29
BRANCH   7  33
HETATM   33  C   UNL     1      41.844 -14.149   1.378  1.00  0.00     0.140 C 
BRANCH  33  34
HETATM   34  C   UNL     1      41.702 -15.373   0.468  1.00  0.00     0.059 C 
BRANCH  34  35
HETATM   35  C   UNL     1      42.357 -16.597   1.058  1.00  0.00    -0.057 A 
HETATM   36  C   UNL     1      41.591 -17.716   1.414  1.00  0.00     0.007 A 
HETATM   37  C   UNL     1      42.199 -18.840   1.977  1.00  0.00     0.001 A 
HETATM   38  C   UNL     1      43.577 -18.857   2.183  1.00  0.00     0.000 A 
HETATM   39  C   UNL     1      44.347 -17.752   1.829  1.00  0.00     0.001 A 
HETATM   40  C   UNL     1      43.741 -16.625   1.272  1.00  0.00     0.007 A 
ENDBRANCH  34  35
ENDBRANCH  33  34
ENDBRANCH   7  33
TORSDOF 7
ENDMDL
MODEL 7
REMARK VINA RESULT:      -8.3      2.774      4.340
REMARK  7 active torsions:
REMARK  status: ('A' for Active; 'I' for Inactive)
REMARK    1  A    between atoms: C_2  and  C_3 
REMARK    2  A    between atoms: C_6  and  C_7 
REMARK       I    between atoms: C_7  and  N_8 
REMARK    3  A    between atoms: N_8  and  C_9 
REMARK    4  A    between atoms: C_9  and  C_10 
REMARK    5  A    between atoms: N_19  and  C_20 
REMARK    6  A    between atoms: C_20  and  C_21 
REMARK    7  A    between atoms: C_21  and  C_22 
ROOT
HETATM    1  C   UNL     1      40.712 -12.948   0.821  1.00  0.00     0.249 A 
HETATM    2  C   UNL     1      41.252 -13.700  -0.409  1.00  0.00     0.266 A 
HETATM    3  O   UNL     1      41.440 -13.251  -1.529  1.00  0.00    -0.270 OA
HETATM    4  N   UNL     1      41.459 -15.024  -0.040  1.00  0.00    -0.310 N 
HETATM    5  C   UNL     1      41.076 -15.240   1.242  1.00  0.00     0.129 A 
HETATM    6  C   UNL     1      40.636 -14.100   1.771  1.00  0.00     0.101 A 
HETATM    7  N   UNL     1      41.126 -16.420   1.931  1.00  0.00    -0.284 N 
HETATM    8  C   UNL     1      40.743 -16.463   3.273  1.00  0.00     0.331 A 
HETATM    9  O   UNL     1      40.816 -17.464   3.981  1.00  0.00    -0.246 OA
HETATM   10  N   UNL     1      40.279 -15.279   3.799  1.00  0.00    -0.275 N 
HETATM   11  C   UNL     1      40.195 -14.075   3.153  1.00  0.00     0.262 A 
HETATM   12  O   UNL     1      39.810 -13.046   3.691  1.00  0.00    -0.267 OA
HETATM   13  H   UNL     1      41.773 -15.723  -0.698  1.00  0.00     0.170 HD
HETATM   14  H   UNL     1      39.991 -15.303   4.766  1.00  0.00     0.173 HD
ENDROOT
BRANCH   1  15
HETATM   15  N   UNL     1      39.407 -12.322   0.521  1.00  0.00    -0.327 N 
HETATM   16  C   UNL     1      38.359 -13.003  -0.055  1.00  0.00     0.253 C 
HETATM   17  O   UNL     1      38.393 -14.197  -0.321  1.00  0.00    -0.268 OA
HETATM   18  H   UNL     1      39.408 -11.312   0.429  1.00  0.00     0.164 HD
BRANCH  16  19
HETATM   19  C   UNL     1      37.165 -12.188  -0.400  1.00  0.00     0.032 A 
HETATM   20  C   UNL     1      36.974 -11.808  -1.728  1.00  0.00     0.017 A 
HETATM   21  C   UNL     1      35.858 -11.043  -2.087  1.00  0.00     0.009 A 
HETATM   22  C   UNL     1      34.891 -10.663  -1.137  1.00  0.00    -0.051 A 
HETATM   23  C   UNL     1      35.111 -11.053   0.197  1.00  0.00     0.009 A 
HETATM   24  C   UNL     1      36.228 -11.814   0.564  1.00  0.00     0.017 A 
BRANCH  22  25
HETATM   25  C   UNL     1      33.667  -9.818  -1.541  1.00  0.00    -0.024 C 
HETATM   26  C   UNL     1      32.934  -9.226  -0.315  1.00  0.00     0.019 C 
HETATM   27  C   UNL     1      32.687 -10.725  -2.311  1.00  0.00     0.019 C 
HETATM   28  C   UNL     1      34.039  -8.621  -2.446  1.00  0.00     0.019 C 
ENDBRANCH  22  25
ENDBRANCH  16  19
ENDBRANCH   1  15
BRANCH   1  29
HETATM   29  C   UNL     1      41.812 -11.952   1.206  1.00  0.00     0.426 C 
HETATM   30  F   UNL     1      42.799 -12.555   1.913  1.00  0.00    -0.167 F 
HETATM   31  F   UNL     1      42.408 -11.412   0.117  1.00  0.00    -0.167 F 
HETATM   32  F   UNL     1      41.345 -10.924   1.950  1.00  0.00    -0.167 F 
ENDBRANCH   1  29
BRANCH   7  33
HETATM   33  C   UNL     1      41.613 -17.649   1.304  1.00  0.00     0.140 C 
BRANCH  33  34
HETATM   34  C   UNL     1      43.144 -17.717   1.282  1.00  0.00     0.059 C 
BRANCH  34  35
HETATM   35  C   UNL     1      43.677 -18.775   2.216  1.00  0.00    -0.057 A 
HETATM   36  C   UNL     1      43.790 -20.108   1.795  1.00  0.00     0.007 A 
HETATM   37  C   UNL     1      44.267 -21.087   2.668  1.00  0.00     0.001 A 
HETATM   38  C   UNL     1      44.642 -20.743   3.964  1.00  0.00     0.000 A 
HETATM   39  C   UNL     1      44.538 -19.421   4.391  1.00  0.00     0.001 A 
HETATM   40  C   UNL     1      44.055 -18.441   3.522  1.00  0.00     0.007 A 
ENDBRANCH  34  35
ENDBRANCH  33  34
ENDBRANCH   7  33
TORSDOF 7
ENDMDL
MODEL 8
REMARK VINA RESULT:      -8.3      3.445      9.841
REMARK  7 active torsions:
REMARK  status: ('A' for Active; 'I' for Inactive)
REMARK    1  A    between atoms: C_2  and  C_3 
REMARK    2  A    between atoms: C_6  and  C_7 
REMARK       I    between atoms: C_7  and  N_8 
REMARK    3  A    between atoms: N_8  and  C_9 
REMARK    4  A    between atoms: C_9  and  C_10 
REMARK    5  A    between atoms: N_19  and  C_20 
REMARK    6  A    between atoms: C_20  and  C_21 
REMARK    7  A    between atoms: C_21  and  C_22 
ROOT
HETATM    1  C   UNL     1      40.169 -13.522   1.453  1.00  0.00     0.249 A 
HETATM    2  C   UNL     1      38.897 -14.194   0.904  1.00  0.00     0.266 A 
HETATM    3  O   UNL     1      38.058 -14.820   1.533  1.00  0.00    -0.270 OA
HETATM    4  N   UNL     1      38.876 -14.002  -0.473  1.00  0.00    -0.310 N 
HETATM    5  C   UNL     1      39.986 -13.348  -0.892  1.00  0.00     0.129 A 
HETATM    6  C   UNL     1      40.755 -13.063   0.157  1.00  0.00     0.101 A 
HETATM    7  N   UNL     1      40.305 -13.000  -2.176  1.00  0.00    -0.284 N 
HETATM    8  C   UNL     1      41.468 -12.273  -2.436  1.00  0.00     0.331 A 
HETATM    9  O   UNL     1      41.796 -11.868  -3.548  1.00  0.00    -0.246 OA
HETATM   10  N   UNL     1      42.257 -11.999  -1.341  1.00  0.00    -0.275 N 
HETATM   11  C   UNL     1      41.994 -12.332  -0.040  1.00  0.00     0.262 A 
HETATM   12  O   UNL     1      42.718 -12.022   0.896  1.00  0.00    -0.267 OA
HETATM   13  H   UNL     1      38.153 -14.394  -1.059  1.00  0.00     0.170 HD
HETATM   14  H   UNL     1      43.104 -11.481  -1.520  1.00  0.00     0.173 HD
ENDROOT
BRANCH   1  15
HETATM   15  N   UNL     1      41.003 -14.499   2.183  1.00  0.00    -0.327 N 
HETATM   16  C   UNL     1      41.320 -15.742   1.685  1.00  0.00     0.253 C 
HETATM   17  O   UNL     1      40.986 -16.130   0.572  1.00  0.00    -0.268 OA
HETATM   18  H   UNL     1      41.053 -14.379   3.189  1.00  0.00     0.164 HD
BRANCH  16  19
HETATM   19  C   UNL     1      42.064 -16.642   2.604  1.00  0.00     0.032 A 
HETATM   20  C   UNL     1      43.301 -17.143   2.199  1.00  0.00     0.017 A 
HETATM   21  C   UNL     1      44.027 -17.991   3.042  1.00  0.00     0.009 A 
HETATM   22  C   UNL     1      43.553 -18.338   4.321  1.00  0.00    -0.051 A 
HETATM   23  C   UNL     1      42.299 -17.825   4.704  1.00  0.00     0.009 A 
HETATM   24  C   UNL     1      41.564 -16.981   3.863  1.00  0.00     0.017 A 
BRANCH  22  25
HETATM   25  C   UNL     1      44.359 -19.274   5.242  1.00  0.00    -0.024 C 
HETATM   26  C   UNL     1      45.436 -18.515   6.052  1.00  0.00     0.019 C 
HETATM   27  C   UNL     1      45.057 -20.332   4.365  1.00  0.00     0.019 C 
HETATM   28  C   UNL     1      43.471 -20.005   6.277  1.00  0.00     0.019 C 
ENDBRANCH  22  25
ENDBRANCH  16  19
ENDBRANCH   1  15
BRANCH   1  29
HETATM   29  C   UNL     1      39.675 -12.353   2.312  1.00  0.00     0.426 C 
HETATM   30  F   UNL     1      40.701 -11.750   2.962  1.00  0.00    -0.167 F 
HETATM   31  F   UNL     1      39.088 -11.389   1.564  1.00  0.00    -0.167 F 
HETATM   32  F   UNL     1      38.770 -12.736   3.242  1.00  0.00    -0.167 F 
ENDBRANCH   1  29
BRANCH   7  33
HETATM   33  C   UNL     1      39.430 -13.341  -3.297  1.00  0.00     0.140 C 
BRANCH  33  34
HETATM   34  C   UNL     1      38.498 -12.183  -3.674  1.00  0.00     0.059 C 
BRANCH  34  35
HETATM   35  C   UNL     1      37.141 -12.670  -4.115  1.00  0.00    -0.057 A 
HETATM   36  C   UNL     1      36.111 -11.760  -4.392  1.00  0.00     0.007 A 
HETATM   37  C   UNL     1      34.850 -12.215  -4.783  1.00  0.00     0.001 A 
HETATM   38  C   UNL     1      34.611 -13.581  -4.908  1.00  0.00     0.000 A 
HETATM   39  C   UNL     1      35.628 -14.493  -4.640  1.00  0.00     0.001 A 
HETATM   40  C   UNL     1      36.887 -14.041  -4.242  1.00  0.00     0.007 A 
ENDBRANCH  34  35
ENDBRANCH  33  34
ENDBRANCH   7  33
TORSDOF 7
ENDMDL
MODEL 9
REMARK VINA RESULT:      -8.1      3.530      8.927
REMARK  7 active torsions:
REMARK  status: ('A' for Active; 'I' for Inactive)
REMARK    1  A    between atoms: C_2  and  C_3 
REMARK    2  A    between atoms: C_6  and  C_7 
REMARK       I    between atoms: C_7  and  N_8 
REMARK    3  A    between atoms: N_8  and  C_9 
REMARK    4  A    between atoms: C_9  and  C_10 
REMARK    5  A    between atoms: N_19  and  C_20 
REMARK    6  A    between atoms: C_20  and  C_21 
REMARK    7  A    between atoms: C_21  and  C_22 
ROOT
HETATM    1  C   UNL     1      40.313 -14.106   2.454  1.00  0.00     0.249 A 
HETATM    2  C   UNL     1      39.114 -14.520   1.582  1.00  0.00     0.266 A 
HETATM    3  O   UNL     1      38.287 -15.386   1.820  1.00  0.00    -0.270 OA
HETATM    4  N   UNL     1      39.148 -13.752   0.422  1.00  0.00    -0.310 N 
HETATM    5  C   UNL     1      40.234 -12.942   0.404  1.00  0.00     0.129 A 
HETATM    6  C   UNL     1      40.932 -13.110   1.526  1.00  0.00     0.101 A 
HETATM    7  N   UNL     1      40.592 -12.062  -0.580  1.00  0.00    -0.284 N 
HETATM    8  C   UNL     1      41.718 -11.253  -0.420  1.00  0.00     0.331 A 
HETATM    9  O   UNL     1      42.073 -10.395  -1.224  1.00  0.00    -0.246 OA
HETATM   10  N   UNL     1      42.434 -11.450   0.740  1.00  0.00    -0.275 N 
HETATM   11  C   UNL     1      42.130 -12.323   1.750  1.00  0.00     0.262 A 
HETATM   12  O   UNL     1      42.787 -12.422   2.776  1.00  0.00    -0.267 OA
HETATM   13  H   UNL     1      38.480 -13.878  -0.325  1.00  0.00     0.170 HD
HETATM   14  H   UNL     1      43.254 -10.876   0.860  1.00  0.00     0.173 HD
ENDROOT
BRANCH   1  15
HETATM   15  N   UNL     1      41.171 -15.272   2.751  1.00  0.00    -0.327 N 
HETATM   16  C   UNL     1      41.626 -16.140   1.785  1.00  0.00     0.253 C 
HETATM   17  O   UNL     1      41.406 -15.996   0.589  1.00  0.00    -0.268 OA
HETATM   18  H   UNL     1      41.139 -15.617   3.704  1.00  0.00     0.164 HD
BRANCH  16  19
HETATM   19  C   UNL     1      42.373 -17.327   2.276  1.00  0.00     0.032 A 
HETATM   20  C   UNL     1      43.126 -18.068   1.366  1.00  0.00     0.017 A 
HETATM   21  C   UNL     1      43.844 -19.190   1.796  1.00  0.00     0.009 A 
HETATM   22  C   UNL     1      43.852 -19.584   3.148  1.00  0.00    -0.051 A 
HETATM   23  C   UNL     1      43.078 -18.823   4.044  1.00  0.00     0.009 A 
HETATM   24  C   UNL     1      42.353 -17.703   3.620  1.00  0.00     0.017 A 
BRANCH  22  25
HETATM   25  C   UNL     1      44.644 -20.822   3.612  1.00  0.00    -0.024 C 
HETATM   26  C   UNL     1      46.172 -20.593   3.560  1.00  0.00     0.019 C 
HETATM   27  C   UNL     1      44.289 -21.999   2.682  1.00  0.00     0.019 C 
HETATM   28  C   UNL     1      44.314 -21.231   5.067  1.00  0.00     0.019 C 
ENDBRANCH  22  25
ENDBRANCH  16  19
ENDBRANCH   1  15
BRANCH   1  29
HETATM   29  C   UNL     1      39.706 -13.442   3.695  1.00  0.00     0.426 C 
HETATM   30  F   UNL     1      39.182 -14.362   4.541  1.00  0.00    -0.167 F 
HETATM   31  F   UNL     1      40.634 -12.763   4.410  1.00  0.00    -0.167 F 
HETATM   32  F   UNL     1      38.725 -12.563   3.387  1.00  0.00    -0.167 F 
ENDBRANCH   1  29
BRANCH   7  33
HETATM   33  C   UNL     1      39.795 -11.916  -1.798  1.00  0.00     0.140 C 
BRANCH  33  34
HETATM   34  C   UNL     1      40.436 -12.625  -2.995  1.00  0.00     0.059 C 
BRANCH  34  35
HETATM   35  C   UNL     1      39.781 -13.952  -3.284  1.00  0.00    -0.057 A 
HETATM   36  C   UNL     1      40.534 -15.135  -3.282  1.00  0.00     0.007 A 
HETATM   37  C   UNL     1      39.927 -16.360  -3.567  1.00  0.00     0.001 A 
HETATM   38  C   UNL     1      38.565 -16.414  -3.850  1.00  0.00     0.000 A 
HETATM   39  C   UNL     1      37.807 -15.245  -3.851  1.00  0.00     0.001 A 
HETATM   40  C   UNL     1      38.412 -14.019  -3.572  1.00  0.00     0.007 A 
ENDBRANCH  34  35
ENDBRANCH  33  34
ENDBRANCH   7  33
TORSDOF 7
ENDMDL
MODEL 10
REMARK VINA RESULT:      -8.0      4.252     10.549
REMARK  7 active torsions:
REMARK  status: ('A' for Active; 'I' for Inactive)
REMARK    1  A    between atoms: C_2  and  C_3 
REMARK    2  A    between atoms: C_6  and  C_7 
REMARK       I    between atoms: C_7  and  N_8 
REMARK    3  A    between atoms: N_8  and  C_9 
REMARK    4  A    between atoms: C_9  and  C_10 
REMARK    5  A    between atoms: N_19  and  C_20 
REMARK    6  A    between atoms: C_20  and  C_21 
REMARK    7  A    between atoms: C_21  and  C_22 
ROOT
HETATM    1  C   UNL     1      40.513 -13.503  -2.240  1.00  0.00     0.249 A 
HETATM    2  C   UNL     1      40.182 -12.012  -2.048  1.00  0.00     0.266 A 
HETATM    3  O   UNL     1      40.839 -11.177  -1.446  1.00  0.00    -0.270 OA
HETATM    4  N   UNL     1      38.954 -11.769  -2.655  1.00  0.00    -0.310 N 
HETATM    5  C   UNL     1      38.425 -12.908  -3.162  1.00  0.00     0.129 A 
HETATM    6  C   UNL     1      39.263 -13.921  -2.945  1.00  0.00     0.101 A 
HETATM    7  N   UNL     1      37.232 -13.047  -3.815  1.00  0.00    -0.284 N 
HETATM    8  C   UNL     1      36.855 -14.288  -4.330  1.00  0.00     0.331 A 
HETATM    9  O   UNL     1      35.832 -14.485  -4.981  1.00  0.00    -0.246 OA
HETATM   10  N   UNL     1      37.727 -15.325  -4.084  1.00  0.00    -0.275 N 
HETATM   11  C   UNL     1      38.926 -15.247  -3.428  1.00  0.00     0.262 A 
HETATM   12  O   UNL     1      39.676 -16.201  -3.278  1.00  0.00    -0.267 OA
HETATM   13  H   UNL     1      38.508 -10.863  -2.621  1.00  0.00     0.170 HD
HETATM   14  H   UNL     1      37.459 -16.228  -4.446  1.00  0.00     0.173 HD
ENDROOT
BRANCH   1  15
HETATM   15  N   UNL     1      40.723 -14.164  -0.935  1.00  0.00    -0.327 N 
HETATM   16  C   UNL     1      39.772 -14.193   0.058  1.00  0.00     0.253 C 
HETATM   17  O   UNL     1      38.648 -13.722  -0.068  1.00  0.00    -0.268 OA
HETATM   18  H   UNL     1      41.689 -14.298  -0.654  1.00  0.00     0.164 HD
BRANCH  16  19
HETATM   19  C   UNL     1      40.196 -14.792   1.350  1.00  0.00     0.032 A 
HETATM   20  C   UNL     1      40.902 -15.994   1.332  1.00  0.00     0.017 A 
HETATM   21  C   UNL     1      41.319 -16.584   2.531  1.00  0.00     0.009 A 
HETATM   22  C   UNL     1      41.068 -15.976   3.775  1.00  0.00    -0.051 A 
HETATM   23  C   UNL     1      40.347 -14.766   3.766  1.00  0.00     0.009 A 
HETATM   24  C   UNL     1      39.922 -14.174   2.571  1.00  0.00     0.017 A 
BRANCH  22  25
HETATM   25  C   UNL     1      41.528 -16.633   5.091  1.00  0.00    -0.024 C 
HETATM   26  C   UNL     1      42.808 -15.975   5.657  1.00  0.00     0.019 C 
HETATM   27  C   UNL     1      41.821 -18.120   4.811  1.00  0.00     0.019 C 
HETATM   28  C   UNL     1      40.462 -16.545   6.208  1.00  0.00     0.019 C 
ENDBRANCH  22  25
ENDBRANCH  16  19
ENDBRANCH   1  15
BRANCH   1  29
HETATM   29  C   UNL     1      41.737 -13.533  -3.163  1.00  0.00     0.426 C 
HETATM   30  F   UNL     1      42.845 -13.074  -2.530  1.00  0.00    -0.167 F 
HETATM   31  F   UNL     1      42.032 -14.791  -3.568  1.00  0.00    -0.167 F 
HETATM   32  F   UNL     1      41.566 -12.789  -4.279  1.00  0.00    -0.167 F 
ENDBRANCH   1  29
BRANCH   7  33
HETATM   33  C   UNL     1      36.342 -11.904  -4.025  1.00  0.00     0.140 C 
BRANCH  33  34
HETATM   34  C   UNL     1      35.690 -11.433  -2.720  1.00  0.00     0.059 C 
BRANCH  34  35
HETATM   35  C   UNL     1      34.184 -11.436  -2.807  1.00  0.00    -0.057 A 
HETATM   36  C   UNL     1      33.409 -10.871  -1.785  1.00  0.00     0.007 A 
HETATM   37  C   UNL     1      32.015 -10.890  -1.860  1.00  0.00     0.001 A 
HETATM   38  C   UNL     1      31.385 -11.468  -2.960  1.00  0.00     0.000 A 
HETATM   39  C   UNL     1      32.146 -12.029  -3.983  1.00  0.00     0.001 A 
HETATM   40  C   UNL     1      33.540 -12.016  -3.907  1.00  0.00     0.007 A 
ENDBRANCH  34  35
ENDBRANCH  33  34
ENDBRANCH   7  33
TORSDOF 7
ENDMDL
