MODEL 1
REMARK VINA RESULT:      -8.1      0.000      0.000
REMARK  7 active torsions:
REMARK  status: ('A' for Active; 'I' for Inactive)
REMARK    1  A    between atoms: C_7  and  C_8 
REMARK    2  A    between atoms: C_8  and  N_9 
REMARK       I    between atoms: N_9  and  C_10 
REMARK       I    between atoms: C_10  and  N_11 
REMARK    3  A    between atoms: N_11  and  C_12 
REMARK    4  A    between atoms: C_12  and  C_13 
REMARK    5  A    between atoms: C_13  and  C_14 
REMARK    6  A    between atoms: C_14  and  O_15 
REMARK    7  A    between atoms: C_14  and  C_16 
ROOT
HETATM    1  N   UNL     1      43.381 -15.725   7.290  1.00  0.00    -0.337 N 
HETATM    2  C   UNL     1      43.626 -14.382   7.147  1.00  0.00     0.316 C 
HETATM    3  N   UNL     1      44.522 -13.921   8.069  1.00  0.00    -0.339 N 
HETATM    4  O   UNL     1      43.165 -13.709   6.230  1.00  0.00    -0.247 OA
HETATM    5  H   UNL     1      43.576 -16.089   8.212  1.00  0.00     0.164 HD
HETATM    6  H   UNL     1      44.570 -14.415   8.950  1.00  0.00     0.164 HD
ENDROOT
BRANCH   1   7
HETATM    7  C   UNL     1      42.343 -16.399   6.535  1.00  0.00     0.183 C 
BRANCH   7   8
HETATM    8  C   UNL     1      42.892 -17.456   5.644  1.00  0.00     0.044 A 
HETATM    9  N   UNL     1      43.468 -18.618   6.134  1.00  0.00    -0.343 N 
HETATM   10  C   UNL     1      43.910 -19.388   5.153  1.00  0.00     0.112 A 
HETATM   11  H   UNL     1      43.474 -18.851   7.135  1.00  0.00     0.167 HD
HETATM   12  N   UNL     1      43.640 -18.762   3.990  1.00  0.00    -0.311 N 
HETATM   13  C   UNL     1      44.590 -20.703   5.196  1.00  0.00     0.049 A 
HETATM   14  C   UNL     1      43.978 -19.308   2.752  1.00  0.00     0.014 A 
HETATM   15  C   UNL     1      43.001 -17.560   4.274  1.00  0.00     0.125 A 
HETATM   16  C   UNL     1      43.655 -18.592   1.476  1.00  0.00     0.068 C 
HETATM   17  C   UNL     1      44.604 -20.507   2.779  1.00  0.00     0.025 A 
HETATM   18  C   UNL     1      44.925 -21.229   4.006  1.00  0.00     0.006 A 
ENDBRANCH   7   8
ENDBRANCH   1   7
BRANCH   3  19
HETATM   19  C   UNL     1      44.940 -12.524   8.107  1.00  0.00     0.085 C 
HETATM   20  C   UNL     1      46.463 -12.439   8.100  1.00  0.00     0.032 C 
BRANCH  19  21
HETATM   21  C   UNL     1      44.259 -11.714   9.232  1.00  0.00     0.063 C 
BRANCH  21  22
HETATM   22  C   UNL     1      44.531 -12.104  10.690  1.00  0.00     0.177 C 
BRANCH  22  23
HETATM   23  O   UNL     1      44.126 -13.446  10.941  1.00  0.00    -0.389 OA
HETATM   24  H   UNL     1      43.272 -13.405  11.406  1.00  0.00     0.210 HD
ENDBRANCH  22  23
BRANCH  22  25
HETATM   25  C   UNL     1      43.870 -11.233  11.703  1.00  0.00     0.081 A 
HETATM   26  O   UNL     1      43.073 -11.857  12.624  1.00  0.00    -0.324 OA
HETATM   27  C   UNL     1      42.517 -10.887  13.394  1.00  0.00     0.142 A 
HETATM   28  C   UNL     1      42.961  -9.646  13.002  1.00  0.00     0.027 A 
HETATM   29  C   UNL     1      43.833  -9.868  11.911  1.00  0.00     0.037 A 
ENDBRANCH  22  25
ENDBRANCH  21  22
ENDBRANCH  19  21
ENDBRANCH   3  19
TORSDOF 7
ENDMDL
MODEL 2
REMARK VINA RESULT:      -8.0      3.745      6.341
REMARK  7 active torsions:
REMARK  status: ('A' for Active; 'I' for Inactive)
REMARK    1  A    between atoms: C_7  and  C_8 
REMARK    2  A    between atoms: C_8  and  N_9 
REMARK       I    between atoms: N_9  and  C_10 
REMARK       I    between atoms: C_10  and  N_11 
REMARK    3  A    between atoms: N_11  and  C_12 
REMARK    4  A    between atoms: C_12  and  C_13 
REMARK    5  A    between atoms: C_13  and  C_14 
REMARK    6  A    between atoms: C_14  and  O_15 
REMARK    7  A    between atoms: C_14  and  C_16 
ROOT
HETATM    1  N   UNL     1      43.116 -16.056   6.681  1.00  0.00    -0.337 N 
HETATM    2  C   UNL     1      43.341 -14.776   6.241  1.00  0.00     0.316 C 
HETATM    3  N   UNL     1      42.179 -14.123   5.942  1.00  0.00    -0.339 N 
HETATM    4  O   UNL     1      44.453 -14.259   6.218  1.00  0.00    -0.247 OA
HETATM    5  H   UNL     1      42.233 -16.449   6.390  1.00  0.00     0.164 HD
HETATM    6  H   UNL     1      41.393 -14.691   5.657  1.00  0.00     0.164 HD
ENDROOT
BRANCH   1   7
HETATM    7  C   UNL     1      44.202 -16.993   6.896  1.00  0.00     0.183 C 
BRANCH   7   8
HETATM    8  C   UNL     1      44.247 -18.050   5.851  1.00  0.00     0.044 A 
HETATM    9  N   UNL     1      43.857 -17.819   4.540  1.00  0.00    -0.343 N 
HETATM   10  C   UNL     1      43.956 -18.916   3.806  1.00  0.00     0.112 A 
HETATM   11  H   UNL     1      43.594 -16.886   4.200  1.00  0.00     0.167 HD
HETATM   12  N   UNL     1      44.414 -19.900   4.606  1.00  0.00    -0.311 N 
HETATM   13  C   UNL     1      43.651 -19.146   2.376  1.00  0.00     0.049 A 
HETATM   14  C   UNL     1      44.634 -21.197   4.142  1.00  0.00     0.014 A 
HETATM   15  C   UNL     1      44.607 -19.380   5.881  1.00  0.00     0.125 A 
HETATM   16  C   UNL     1      45.152 -22.268   5.053  1.00  0.00     0.068 C 
HETATM   17  C   UNL     1      44.354 -21.420   2.837  1.00  0.00     0.025 A 
HETATM   18  C   UNL     1      43.854 -20.395   1.927  1.00  0.00     0.006 A 
ENDBRANCH   7   8
ENDBRANCH   1   7
BRANCH   3  19
HETATM   19  C   UNL     1      42.170 -12.746   5.459  1.00  0.00     0.085 C 
HETATM   20  C   UNL     1      41.408 -11.859   6.439  1.00  0.00     0.032 C 
BRANCH  19  21
HETATM   21  C   UNL     1      41.710 -12.619   3.990  1.00  0.00     0.063 C 
BRANCH  21  22
HETATM   22  C   UNL     1      42.480 -13.385   2.907  1.00  0.00     0.177 C 
BRANCH  22  23
HETATM   23  O   UNL     1      42.710 -12.561   1.768  1.00  0.00    -0.389 OA
HETATM   24  H   UNL     1      41.944 -11.967   1.685  1.00  0.00     0.210 HD
ENDBRANCH  22  23
BRANCH  22  25
HETATM   25  C   UNL     1      41.818 -14.634   2.437  1.00  0.00     0.081 A 
HETATM   26  O   UNL     1      41.559 -15.587   3.383  1.00  0.00    -0.324 OA
HETATM   27  C   UNL     1      41.031 -16.659   2.738  1.00  0.00     0.142 A 
HETATM   28  C   UNL     1      40.921 -16.406   1.392  1.00  0.00     0.027 A 
HETATM   29  C   UNL     1      41.429 -15.100   1.195  1.00  0.00     0.037 A 
ENDBRANCH  22  25
ENDBRANCH  21  22
ENDBRANCH  19  21
ENDBRANCH   3  19
TORSDOF 7
ENDMDL
MODEL 3
REMARK VINA RESULT:      -7.8      7.155      9.800
REMARK  7 active torsions:
REMARK  status: ('A' for Active; 'I' for Inactive)
REMARK    1  A    between atoms: C_7  and  C_8 
REMARK    2  A    between atoms: C_8  and  N_9 
REMARK       I    between atoms: N_9  and  C_10 
REMARK       I    between atoms: C_10  and  N_11 
REMARK    3  A    between atoms: N_11  and  C_12 
REMARK    4  A    between atoms: C_12  and  C_13 
REMARK    5  A    between atoms: C_13  and  C_14 
REMARK    6  A    between atoms: C_14  and  O_15 
REMARK    7  A    between atoms: C_14  and  C_16 
ROOT
HETATM    1  N   UNL     1      42.810 -16.411   0.724  1.00  0.00    -0.337 N 
HETATM    2  C   UNL     1      41.736 -15.705   0.241  1.00  0.00     0.316 C 
HETATM    3  N   UNL     1      41.707 -15.683  -1.124  1.00  0.00    -0.339 N 
HETATM    4  O   UNL     1      40.860 -15.239   0.963  1.00  0.00    -0.247 OA
HETATM    5  H   UNL     1      43.582 -16.490   0.078  1.00  0.00     0.164 HD
HETATM    6  H   UNL     1      42.592 -15.766  -1.604  1.00  0.00     0.164 HD
ENDROOT
BRANCH   1   7
HETATM    7  C   UNL     1      43.142 -16.430   2.135  1.00  0.00     0.183 C 
BRANCH   7   8
HETATM    8  C   UNL     1      43.505 -17.794   2.608  1.00  0.00     0.044 A 
HETATM    9  N   UNL     1      43.852 -18.058   3.925  1.00  0.00    -0.343 N 
HETATM   10  C   UNL     1      44.162 -19.332   4.096  1.00  0.00     0.112 A 
HETATM   11  H   UNL     1      43.798 -17.344   4.662  1.00  0.00     0.167 HD
HETATM   12  N   UNL     1      44.029 -19.947   2.903  1.00  0.00    -0.311 N 
HETATM   13  C   UNL     1      44.591 -20.062   5.310  1.00  0.00     0.049 A 
HETATM   14  C   UNL     1      44.282 -21.308   2.733  1.00  0.00     0.014 A 
HETATM   15  C   UNL     1      43.615 -19.007   1.965  1.00  0.00     0.125 A 
HETATM   16  C   UNL     1      44.116 -21.965   1.396  1.00  0.00     0.068 C 
HETATM   17  C   UNL     1      44.679 -21.984   3.835  1.00  0.00     0.025 A 
HETATM   18  C   UNL     1      44.843 -21.371   5.149  1.00  0.00     0.006 A 
ENDBRANCH   7   8
ENDBRANCH   1   7
BRANCH   3  19
HETATM   19  C   UNL     1      40.652 -14.994  -1.861  1.00  0.00     0.085 C 
HETATM   20  C   UNL     1      40.287 -15.792  -3.109  1.00  0.00     0.032 C 
BRANCH  19  21
HETATM   21  C   UNL     1      40.965 -13.504  -2.123  1.00  0.00     0.063 C 
BRANCH  21  22
HETATM   22  C   UNL     1      41.936 -13.141  -3.252  1.00  0.00     0.177 C 
BRANCH  22  23
HETATM   23  O   UNL     1      43.176 -13.825  -3.096  1.00  0.00    -0.389 OA
HETATM   24  H   UNL     1      43.174 -14.568  -3.724  1.00  0.00     0.210 HD
ENDBRANCH  22  23
BRANCH  22  25
HETATM   25  C   UNL     1      42.233 -11.687  -3.377  1.00  0.00     0.081 A 
HETATM   26  O   UNL     1      42.709 -11.058  -2.260  1.00  0.00    -0.324 OA
HETATM   27  C   UNL     1      42.839  -9.741  -2.566  1.00  0.00     0.142 A 
HETATM   28  C   UNL     1      42.480  -9.513  -3.873  1.00  0.00     0.027 A 
HETATM   29  C   UNL     1      42.088 -10.767  -4.398  1.00  0.00     0.037 A 
ENDBRANCH  22  25
ENDBRANCH  21  22
ENDBRANCH  19  21
ENDBRANCH   3  19
TORSDOF 7
ENDMDL
MODEL 4
REMARK VINA RESULT:      -7.8      4.393      5.614
REMARK  7 active torsions:
REMARK  status: ('A' for Active; 'I' for Inactive)
REMARK    1  A    between atoms: C_7  and  C_8 
REMARK    2  A    between atoms: C_8  and  N_9 
REMARK       I    between atoms: N_9  and  C_10 
REMARK       I    between atoms: C_10  and  N_11 
REMARK    3  A    between atoms: N_11  and  C_12 
REMARK    4  A    between atoms: C_12  and  C_13 
REMARK    5  A    between atoms: C_13  and  C_14 
REMARK    6  A    between atoms: C_14  and  O_15 
REMARK    7  A    between atoms: C_14  and  C_16 
ROOT
HETATM    1  N   UNL     1      42.470 -15.361   1.879  1.00  0.00    -0.337 N 
HETATM    2  C   UNL     1      41.260 -15.302   2.525  1.00  0.00     0.316 C 
HETATM    3  N   UNL     1      41.197 -14.258   3.404  1.00  0.00    -0.339 N 
HETATM    4  O   UNL     1      40.320 -16.044   2.260  1.00  0.00    -0.247 OA
HETATM    5  H   UNL     1      43.227 -14.905   2.368  1.00  0.00     0.164 HD
HETATM    6  H   UNL     1      42.069 -13.941   3.805  1.00  0.00     0.164 HD
ENDROOT
BRANCH   1   7
HETATM    7  C   UNL     1      42.829 -16.478   1.027  1.00  0.00     0.183 C 
BRANCH   7   8
HETATM    8  C   UNL     1      43.289 -17.656   1.809  1.00  0.00     0.044 A 
HETATM    9  N   UNL     1      43.669 -17.565   3.140  1.00  0.00    -0.343 N 
HETATM   10  C   UNL     1      44.067 -18.736   3.609  1.00  0.00     0.112 A 
HETATM   11  H   UNL     1      43.576 -16.697   3.681  1.00  0.00     0.167 HD
HETATM   12  N   UNL     1      43.963 -19.633   2.608  1.00  0.00    -0.311 N 
HETATM   13  C   UNL     1      44.559 -19.115   4.953  1.00  0.00     0.049 A 
HETATM   14  C   UNL     1      44.306 -20.975   2.770  1.00  0.00     0.014 A 
HETATM   15  C   UNL     1      43.474 -18.982   1.480  1.00  0.00     0.125 A 
HETATM   16  C   UNL     1      44.169 -21.950   1.640  1.00  0.00     0.068 C 
HETATM   17  C   UNL     1      44.761 -21.332   3.992  1.00  0.00     0.025 A 
HETATM   18  C   UNL     1      44.899 -20.405   5.111  1.00  0.00     0.006 A 
ENDBRANCH   7   8
ENDBRANCH   1   7
BRANCH   3  19
HETATM   19  C   UNL     1      40.004 -13.994   4.202  1.00  0.00     0.085 C 
HETATM   20  C   UNL     1      39.680 -12.503   4.168  1.00  0.00     0.032 C 
BRANCH  19  21
HETATM   21  C   UNL     1      40.073 -14.602   5.620  1.00  0.00     0.063 C 
BRANCH  21  22
HETATM   22  C   UNL     1      40.658 -16.009   5.792  1.00  0.00     0.177 C 
BRANCH  22  23
HETATM   23  O   UNL     1      39.810 -16.816   6.604  1.00  0.00    -0.389 OA
HETATM   24  H   UNL     1      38.928 -16.406   6.593  1.00  0.00     0.210 HD
ENDBRANCH  22  23
BRANCH  22  25
HETATM   25  C   UNL     1      42.024 -16.049   6.384  1.00  0.00     0.081 A 
HETATM   26  O   UNL     1      42.900 -15.081   5.976  1.00  0.00    -0.324 OA
HETATM   27  C   UNL     1      44.092 -15.342   6.571  1.00  0.00     0.142 A 
HETATM   28  C   UNL     1      43.996 -16.451   7.377  1.00  0.00     0.027 A 
HETATM   29  C   UNL     1      42.662 -16.908   7.258  1.00  0.00     0.037 A 
ENDBRANCH  22  25
ENDBRANCH  21  22
ENDBRANCH  19  21
ENDBRANCH   3  19
TORSDOF 7
ENDMDL
MODEL 5
REMARK VINA RESULT:      -7.8      6.947      9.950
REMARK  7 active torsions:
REMARK  status: ('A' for Active; 'I' for Inactive)
REMARK    1  A    between atoms: C_7  and  C_8 
REMARK    2  A    between atoms: C_8  and  N_9 
REMARK       I    between atoms: N_9  and  C_10 
REMARK       I    between atoms: C_10  and  N_11 
REMARK    3  A    between atoms: N_11  and  C_12 
REMARK    4  A    between atoms: C_12  and  C_13 
REMARK    5  A    between atoms: C_13  and  C_14 
REMARK    6  A    between atoms: C_14  and  O_15 
REMARK    7  A    between atoms: C_14  and  C_16 
ROOT
HETATM    1  N   UNL     1      42.036 -16.239   0.006  1.00  0.00    -0.337 N 
HETATM    2  C   UNL     1      41.018 -15.497  -0.539  1.00  0.00     0.316 C 
HETATM    3  N   UNL     1      40.819 -15.788  -1.859  1.00  0.00    -0.339 N 
HETATM    4  O   UNL     1      40.314 -14.738   0.119  1.00  0.00    -0.247 OA
HETATM    5  H   UNL     1      42.702 -16.592  -0.666  1.00  0.00     0.164 HD
HETATM    6  H   UNL     1      41.616 -16.126  -2.380  1.00  0.00     0.164 HD
ENDROOT
BRANCH   1   7
HETATM    7  C   UNL     1      42.539 -15.984   1.342  1.00  0.00     0.183 C 
BRANCH   7   8
HETATM    8  C   UNL     1      43.097 -17.209   1.975  1.00  0.00     0.044 A 
HETATM    9  N   UNL     1      43.135 -18.433   1.324  1.00  0.00    -0.343 N 
HETATM   10  C   UNL     1      43.646 -19.376   2.099  1.00  0.00     0.112 A 
HETATM   11  H   UNL     1      42.857 -18.543   0.342  1.00  0.00     0.167 HD
HETATM   12  N   UNL     1      43.961 -18.806   3.280  1.00  0.00    -0.311 N 
HETATM   13  C   UNL     1      43.877 -20.815   1.837  1.00  0.00     0.049 A 
HETATM   14  C   UNL     1      44.525 -19.529   4.331  1.00  0.00     0.014 A 
HETATM   15  C   UNL     1      43.632 -17.456   3.221  1.00  0.00     0.125 A 
HETATM   16  C   UNL     1      44.872 -18.865   5.629  1.00  0.00     0.068 C 
HETATM   17  C   UNL     1      44.736 -20.846   4.105  1.00  0.00     0.025 A 
HETATM   18  C   UNL     1      44.412 -21.516   2.849  1.00  0.00     0.006 A 
ENDBRANCH   7   8
ENDBRANCH   1   7
BRANCH   3  19
HETATM   19  C   UNL     1      39.785 -15.126  -2.647  1.00  0.00     0.085 C 
HETATM   20  C   UNL     1      39.471 -15.954  -3.889  1.00  0.00     0.032 C 
BRANCH  19  21
HETATM   21  C   UNL     1      40.093 -13.639  -2.930  1.00  0.00     0.063 C 
BRANCH  21  22
HETATM   22  C   UNL     1      41.414 -13.277  -3.620  1.00  0.00     0.177 C 
BRANCH  22  23
HETATM   23  O   UNL     1      42.306 -14.388  -3.623  1.00  0.00    -0.389 OA
HETATM   24  H   UNL     1      43.176 -14.056  -3.342  1.00  0.00     0.210 HD
ENDBRANCH  22  23
BRANCH  22  25
HETATM   25  C   UNL     1      42.134 -12.118  -3.022  1.00  0.00     0.081 A 
HETATM   26  O   UNL     1      42.616 -12.282  -1.753  1.00  0.00    -0.324 OA
HETATM   27  C   UNL     1      43.163 -11.097  -1.377  1.00  0.00     0.142 A 
HETATM   28  C   UNL     1      43.065 -10.177  -2.392  1.00  0.00     0.027 A 
HETATM   29  C   UNL     1      42.401 -10.834  -3.455  1.00  0.00     0.037 A 
ENDBRANCH  22  25
ENDBRANCH  21  22
ENDBRANCH  19  21
ENDBRANCH   3  19
TORSDOF 7
ENDMDL
MODEL 6
REMARK VINA RESULT:      -7.8      3.535      5.833
REMARK  7 active torsions:
REMARK  status: ('A' for Active; 'I' for Inactive)
REMARK    1  A    between atoms: C_7  and  C_8 
REMARK    2  A    between atoms: C_8  and  N_9 
REMARK       I    between atoms: N_9  and  C_10 
REMARK       I    between atoms: C_10  and  N_11 
REMARK    3  A    between atoms: N_11  and  C_12 
REMARK    4  A    between atoms: C_12  and  C_13 
REMARK    5  A    between atoms: C_13  and  C_14 
REMARK    6  A    between atoms: C_14  and  O_15 
REMARK    7  A    between atoms: C_14  and  C_16 
ROOT
HETATM    1  N   UNL     1      43.135 -15.832   6.796  1.00  0.00    -0.337 N 
HETATM    2  C   UNL     1      43.259 -14.565   6.282  1.00  0.00     0.316 C 
HETATM    3  N   UNL     1      42.048 -13.956   6.116  1.00  0.00    -0.339 N 
HETATM    4  O   UNL     1      44.342 -14.021   6.093  1.00  0.00    -0.247 OA
HETATM    5  H   UNL     1      42.233 -16.260   6.639  1.00  0.00     0.164 HD
HETATM    6  H   UNL     1      41.249 -14.556   5.959  1.00  0.00     0.164 HD
ENDROOT
BRANCH   1   7
HETATM    7  C   UNL     1      44.268 -16.730   6.900  1.00  0.00     0.183 C 
BRANCH   7   8
HETATM    8  C   UNL     1      44.253 -17.778   5.844  1.00  0.00     0.044 A 
HETATM    9  N   UNL     1      44.575 -19.102   6.103  1.00  0.00    -0.343 N 
HETATM   10  C   UNL     1      44.520 -19.836   5.003  1.00  0.00     0.112 A 
HETATM   11  H   UNL     1      44.761 -19.448   7.052  1.00  0.00     0.167 HD
HETATM   12  N   UNL     1      44.162 -19.023   3.989  1.00  0.00    -0.311 N 
HETATM   13  C   UNL     1      44.784 -21.278   4.797  1.00  0.00     0.049 A 
HETATM   14  C   UNL     1      44.012 -19.484   2.681  1.00  0.00     0.014 A 
HETATM   15  C   UNL     1      43.985 -17.739   4.493  1.00  0.00     0.125 A 
HETATM   16  C   UNL     1      43.603 -18.558   1.576  1.00  0.00     0.068 C 
HETATM   17  C   UNL     1      44.254 -20.799   2.479  1.00  0.00     0.025 A 
HETATM   18  C   UNL     1      44.648 -21.724   3.537  1.00  0.00     0.006 A 
ENDBRANCH   7   8
ENDBRANCH   1   7
BRANCH   3  19
HETATM   19  C   UNL     1      41.932 -12.601   5.588  1.00  0.00     0.085 C 
HETATM   20  C   UNL     1      41.726 -11.615   6.733  1.00  0.00     0.032 C 
BRANCH  19  21
HETATM   21  C   UNL     1      40.900 -12.479   4.444  1.00  0.00     0.063 C 
BRANCH  21  22
HETATM   22  C   UNL     1      39.722 -13.460   4.406  1.00  0.00     0.177 C 
BRANCH  22  23
HETATM   23  O   UNL     1      39.389 -13.906   5.717  1.00  0.00    -0.389 OA
HETATM   24  H   UNL     1      39.740 -13.248   6.341  1.00  0.00     0.210 HD
ENDBRANCH  22  23
BRANCH  22  25
HETATM   25  C   UNL     1      39.941 -14.666   3.559  1.00  0.00     0.081 A 
HETATM   26  O   UNL     1      40.755 -15.638   4.071  1.00  0.00    -0.324 OA
HETATM   27  C   UNL     1      40.879 -16.599   3.120  1.00  0.00     0.142 A 
HETATM   28  C   UNL     1      40.137 -16.277   2.009  1.00  0.00     0.027 A 
HETATM   29  C   UNL     1      39.532 -15.029   2.290  1.00  0.00     0.037 A 
ENDBRANCH  22  25
ENDBRANCH  21  22
ENDBRANCH  19  21
ENDBRANCH   3  19
TORSDOF 7
ENDMDL
MODEL 7
REMARK VINA RESULT:      -7.7      6.648      9.701
REMARK  7 active torsions:
REMARK  status: ('A' for Active; 'I' for Inactive)
REMARK    1  A    between atoms: C_7  and  C_8 
REMARK    2  A    between atoms: C_8  and  N_9 
REMARK       I    between atoms: N_9  and  C_10 
REMARK       I    between atoms: C_10  and  N_11 
REMARK    3  A    between atoms: N_11  and  C_12 
REMARK    4  A    between atoms: C_12  and  C_13 
REMARK    5  A    between atoms: C_13  and  C_14 
REMARK    6  A    between atoms: C_14  and  O_15 
REMARK    7  A    between atoms: C_14  and  C_16 
ROOT
HETATM    1  N   UNL     1      39.434 -15.300   2.706  1.00  0.00    -0.337 N 
HETATM    2  C   UNL     1      40.304 -16.356   2.605  1.00  0.00     0.316 C 
HETATM    3  N   UNL     1      40.992 -16.568   3.766  1.00  0.00    -0.339 N 
HETATM    4  O   UNL     1      40.372 -17.078   1.616  1.00  0.00    -0.247 OA
HETATM    5  H   UNL     1      39.667 -14.633   3.428  1.00  0.00     0.164 HD
HETATM    6  H   UNL     1      41.139 -15.768   4.366  1.00  0.00     0.164 HD
ENDROOT
BRANCH   1   7
HETATM    7  C   UNL     1      38.720 -14.783   1.554  1.00  0.00     0.183 C 
BRANCH   7   8
HETATM    8  C   UNL     1      39.640 -14.210   0.535  1.00  0.00     0.044 A 
HETATM    9  N   UNL     1      39.862 -14.816  -0.693  1.00  0.00    -0.343 N 
HETATM   10  C   UNL     1      40.740 -14.139  -1.414  1.00  0.00     0.112 A 
HETATM   11  H   UNL     1      39.343 -15.648  -0.998  1.00  0.00     0.167 HD
HETATM   12  N   UNL     1      41.124 -13.068  -0.689  1.00  0.00    -0.311 N 
HETATM   13  C   UNL     1      41.282 -14.404  -2.766  1.00  0.00     0.049 A 
HETATM   14  C   UNL     1      42.050 -12.139  -1.162  1.00  0.00     0.014 A 
HETATM   15  C   UNL     1      40.446 -13.092   0.525  1.00  0.00     0.125 A 
HETATM   16  C   UNL     1      42.449 -10.954  -0.336  1.00  0.00     0.068 C 
HETATM   17  C   UNL     1      42.555 -12.374  -2.394  1.00  0.00     0.025 A 
HETATM   18  C   UNL     1      42.181 -13.516  -3.222  1.00  0.00     0.006 A 
ENDBRANCH   7   8
ENDBRANCH   1   7
BRANCH   3  19
HETATM   19  C   UNL     1      41.971 -17.642   3.897  1.00  0.00     0.085 C 
HETATM   20  C   UNL     1      41.960 -18.181   5.324  1.00  0.00     0.032 C 
BRANCH  19  21
HETATM   21  C   UNL     1      43.371 -17.258   3.368  1.00  0.00     0.063 C 
BRANCH  21  22
HETATM   22  C   UNL     1      43.979 -18.078   2.225  1.00  0.00     0.177 C 
BRANCH  22  23
HETATM   23  O   UNL     1      43.239 -17.899   1.021  1.00  0.00    -0.389 OA
HETATM   24  H   UNL     1      43.768 -18.281   0.300  1.00  0.00     0.210 HD
ENDBRANCH  22  23
BRANCH  22  25
HETATM   25  C   UNL     1      44.071 -19.542   2.487  1.00  0.00     0.081 A 
HETATM   26  O   UNL     1      44.708 -19.923   3.635  1.00  0.00    -0.324 OA
HETATM   27  C   UNL     1      44.746 -21.280   3.642  1.00  0.00     0.142 A 
HETATM   28  C   UNL     1      44.121 -21.785   2.527  1.00  0.00     0.027 A 
HETATM   29  C   UNL     1      43.685 -20.665   1.780  1.00  0.00     0.037 A 
ENDBRANCH  22  25
ENDBRANCH  21  22
ENDBRANCH  19  21
ENDBRANCH   3  19
TORSDOF 7
ENDMDL
MODEL 8
REMARK VINA RESULT:      -7.7      5.540      8.562
REMARK  7 active torsions:
REMARK  status: ('A' for Active; 'I' for Inactive)
REMARK    1  A    between atoms: C_7  and  C_8 
REMARK    2  A    between atoms: C_8  and  N_9 
REMARK       I    between atoms: N_9  and  C_10 
REMARK       I    between atoms: C_10  and  N_11 
REMARK    3  A    between atoms: N_11  and  C_12 
REMARK    4  A    between atoms: C_12  and  C_13 
REMARK    5  A    between atoms: C_13  and  C_14 
REMARK    6  A    between atoms: C_14  and  O_15 
REMARK    7  A    between atoms: C_14  and  C_16 
ROOT
HETATM    1  N   UNL     1      42.467 -16.282   4.927  1.00  0.00    -0.337 N 
HETATM    2  C   UNL     1      42.492 -15.538   3.774  1.00  0.00     0.316 C 
HETATM    3  N   UNL     1      41.243 -15.131   3.397  1.00  0.00    -0.339 N 
HETATM    4  O   UNL     1      43.530 -15.201   3.214  1.00  0.00    -0.247 OA
HETATM    5  H   UNL     1      41.579 -16.721   5.122  1.00  0.00     0.164 HD
HETATM    6  H   UNL     1      40.466 -15.712   3.680  1.00  0.00     0.164 HD
ENDROOT
BRANCH   1   7
HETATM    7  C   UNL     1      43.648 -16.960   5.425  1.00  0.00     0.183 C 
BRANCH   7   8
HETATM    8  C   UNL     1      43.872 -18.266   4.749  1.00  0.00     0.044 A 
HETATM    9  N   UNL     1      43.576 -18.473   3.409  1.00  0.00    -0.343 N 
HETATM   10  C   UNL     1      43.832 -19.718   3.045  1.00  0.00     0.112 A 
HETATM   11  H   UNL     1      43.262 -17.714   2.792  1.00  0.00     0.167 HD
HETATM   12  N   UNL     1      44.305 -20.370   4.126  1.00  0.00    -0.311 N 
HETATM   13  C   UNL     1      43.670 -20.388   1.735  1.00  0.00     0.049 A 
HETATM   14  C   UNL     1      44.675 -21.714   4.085  1.00  0.00     0.014 A 
HETATM   15  C   UNL     1      44.343 -19.482   5.196  1.00  0.00     0.125 A 
HETATM   16  C   UNL     1      45.206 -22.409   5.302  1.00  0.00     0.068 C 
HETATM   17  C   UNL     1      44.527 -22.338   2.894  1.00  0.00     0.025 A 
HETATM   18  C   UNL     1      44.018 -21.685   1.692  1.00  0.00     0.006 A 
ENDBRANCH   7   8
ENDBRANCH   1   7
BRANCH   3  19
HETATM   19  C   UNL     1      41.024 -14.322   2.203  1.00  0.00     0.085 C 
HETATM   20  C   UNL     1      40.353 -13.007   2.585  1.00  0.00     0.032 C 
BRANCH  19  21
HETATM   21  C   UNL     1      40.318 -15.095   1.066  1.00  0.00     0.063 C 
BRANCH  21  22
HETATM   22  C   UNL     1      41.176 -15.819   0.022  1.00  0.00     0.177 C 
BRANCH  22  23
HETATM   23  O   UNL     1      42.516 -15.969   0.482  1.00  0.00    -0.389 OA
HETATM   24  H   UNL     1      42.962 -15.115   0.348  1.00  0.00     0.210 HD
ENDBRANCH  22  23
BRANCH  22  25
HETATM   25  C   UNL     1      41.226 -15.159  -1.312  1.00  0.00     0.081 A 
HETATM   26  O   UNL     1      41.651 -13.859  -1.341  1.00  0.00    -0.324 OA
HETATM   27  C   UNL     1      41.550 -13.432  -2.625  1.00  0.00     0.142 A 
HETATM   28  C   UNL     1      41.090 -14.443  -3.434  1.00  0.00     0.027 A 
HETATM   29  C   UNL     1      40.880 -15.558  -2.589  1.00  0.00     0.037 A 
ENDBRANCH  22  25
ENDBRANCH  21  22
ENDBRANCH  19  21
ENDBRANCH   3  19
TORSDOF 7
ENDMDL
MODEL 9
REMARK VINA RESULT:      -7.6      3.153      9.298
REMARK  7 active torsions:
REMARK  status: ('A' for Active; 'I' for Inactive)
REMARK    1  A    between atoms: C_7  and  C_8 
REMARK    2  A    between atoms: C_8  and  N_9 
REMARK       I    between atoms: N_9  and  C_10 
REMARK       I    between atoms: C_10  and  N_11 
REMARK    3  A    between atoms: N_11  and  C_12 
REMARK    4  A    between atoms: C_12  and  C_13 
REMARK    5  A    between atoms: C_13  and  C_14 
REMARK    6  A    between atoms: C_14  and  O_15 
REMARK    7  A    between atoms: C_14  and  C_16 
ROOT
HETATM    1  N   UNL     1      39.179 -12.537   7.830  1.00  0.00    -0.337 N 
HETATM    2  C   UNL     1      39.945 -12.797   6.722  1.00  0.00     0.316 C 
HETATM    3  N   UNL     1      39.961 -14.127   6.408  1.00  0.00    -0.339 N 
HETATM    4  O   UNL     1      40.467 -11.918   6.045  1.00  0.00    -0.247 OA
HETATM    5  H   UNL     1      39.050 -13.329   8.444  1.00  0.00     0.164 HD
HETATM    6  H   UNL     1      39.822 -14.780   7.166  1.00  0.00     0.164 HD
ENDROOT
BRANCH   1   7
HETATM    7  C   UNL     1      39.148 -11.226   8.449  1.00  0.00     0.183 C 
BRANCH   7   8
HETATM    8  C   UNL     1      40.269 -11.032   9.408  1.00  0.00     0.044 A 
HETATM    9  N   UNL     1      41.592 -10.942   9.001  1.00  0.00    -0.343 N 
HETATM   10  C   UNL     1      42.407 -10.802  10.034  1.00  0.00     0.112 A 
HETATM   11  H   UNL     1      41.863 -10.922   8.010  1.00  0.00     0.167 HD
HETATM   12  N   UNL     1      41.651 -10.794  11.150  1.00  0.00    -0.311 N 
HETATM   13  C   UNL     1      43.881 -10.672  10.084  1.00  0.00     0.049 A 
HETATM   14  C   UNL     1      42.203 -10.661  12.424  1.00  0.00     0.014 A 
HETATM   15  C   UNL     1      40.317 -10.930  10.782  1.00  0.00     0.125 A 
HETATM   16  C   UNL     1      41.336 -10.646  13.646  1.00  0.00     0.068 C 
HETATM   17  C   UNL     1      43.549 -10.547  12.483  1.00  0.00     0.025 A 
HETATM   18  C   UNL     1      44.417 -10.552  11.309  1.00  0.00     0.006 A 
ENDBRANCH   7   8
ENDBRANCH   1   7
BRANCH   3  19
HETATM   19  C   UNL     1      40.707 -14.640   5.263  1.00  0.00     0.085 C 
HETATM   20  C   UNL     1      39.888 -14.459   3.989  1.00  0.00     0.032 C 
BRANCH  19  21
HETATM   21  C   UNL     1      41.247 -16.071   5.480  1.00  0.00     0.063 C 
BRANCH  21  22
HETATM   22  C   UNL     1      42.338 -16.296   6.534  1.00  0.00     0.177 C 
BRANCH  22  23
HETATM   23  O   UNL     1      42.946 -15.063   6.907  1.00  0.00    -0.389 OA
HETATM   24  H   UNL     1      43.083 -14.553   6.091  1.00  0.00     0.210 HD
ENDBRANCH  22  23
BRANCH  22  25
HETATM   25  C   UNL     1      43.423 -17.230   6.119  1.00  0.00     0.081 A 
HETATM   26  O   UNL     1      43.178 -18.010   5.024  1.00  0.00    -0.324 OA
HETATM   27  C   UNL     1      44.249 -18.829   4.867  1.00  0.00     0.142 A 
HETATM   28  C   UNL     1      45.196 -18.573   5.830  1.00  0.00     0.027 A 
HETATM   29  C   UNL     1      44.664 -17.542   6.639  1.00  0.00     0.037 A 
ENDBRANCH  22  25
ENDBRANCH  21  22
ENDBRANCH  19  21
ENDBRANCH   3  19
TORSDOF 7
ENDMDL
MODEL 10
REMARK VINA RESULT:      -7.6      1.308      2.057
REMARK  7 active torsions:
REMARK  status: ('A' for Active; 'I' for Inactive)
REMARK    1  A    between atoms: C_7  and  C_8 
REMARK    2  A    between atoms: C_8  and  N_9 
REMARK       I    between atoms: N_9  and  C_10 
REMARK       I    between atoms: C_10  and  N_11 
REMARK    3  A    between atoms: N_11  and  C_12 
REMARK    4  A    between atoms: C_12  and  C_13 
REMARK    5  A    between atoms: C_13  and  C_14 
REMARK    6  A    between atoms: C_14  and  O_15 
REMARK    7  A    between atoms: C_14  and  C_16 
ROOT
HETATM    1  N   UNL     1      43.943 -15.113   7.268  1.00  0.00    -0.337 N 
HETATM    2  C   UNL     1      44.110 -13.754   7.362  1.00  0.00     0.316 C 
HETATM    3  N   UNL     1      45.146 -13.419   8.186  1.00  0.00    -0.339 N 
HETATM    4  O   UNL     1      43.461 -12.951   6.699  1.00  0.00    -0.247 OA
HETATM    5  H   UNL     1      44.320 -15.635   8.046  1.00  0.00     0.164 HD
HETATM    6  H   UNL     1      45.376 -14.070   8.924  1.00  0.00     0.164 HD
ENDROOT
BRANCH   1   7
HETATM    7  C   UNL     1      42.805 -15.700   6.587  1.00  0.00     0.183 C 
BRANCH   7   8
HETATM    8  C   UNL     1      43.215 -16.724   5.588  1.00  0.00     0.044 A 
HETATM    9  N   UNL     1      43.125 -16.509   4.220  1.00  0.00    -0.343 N 
HETATM   10  C   UNL     1      43.518 -17.572   3.538  1.00  0.00     0.112 A 
HETATM   11  H   UNL     1      42.848 -15.603   3.822  1.00  0.00     0.167 HD
HETATM   12  N   UNL     1      43.880 -18.517   4.429  1.00  0.00    -0.311 N 
HETATM   13  C   UNL     1      43.590 -17.803   2.078  1.00  0.00     0.049 A 
HETATM   14  C   UNL     1      44.348 -19.772   4.039  1.00  0.00     0.014 A 
HETATM   15  C   UNL     1      43.704 -18.006   5.711  1.00  0.00     0.125 A 
HETATM   16  C   UNL     1      44.751 -20.798   5.053  1.00  0.00     0.068 C 
HETATM   17  C   UNL     1      44.413 -19.996   2.706  1.00  0.00     0.025 A 
HETATM   18  C   UNL     1      44.032 -19.013   1.697  1.00  0.00     0.006 A 
ENDBRANCH   7   8
ENDBRANCH   1   7
BRANCH   3  19
HETATM   19  C   UNL     1      45.515 -12.029   8.434  1.00  0.00     0.085 C 
HETATM   20  C   UNL     1      46.975 -11.805   8.054  1.00  0.00     0.032 C 
BRANCH  19  21
HETATM   21  C   UNL     1      45.141 -11.544   9.852  1.00  0.00     0.063 C 
BRANCH  21  22
HETATM   22  C   UNL     1      43.662 -11.510  10.255  1.00  0.00     0.177 C 
BRANCH  22  23
HETATM   23  O   UNL     1      42.829 -11.329   9.114  1.00  0.00    -0.389 OA
HETATM   24  H   UNL     1      42.688 -10.372   9.012  1.00  0.00     0.210 HD
ENDBRANCH  22  23
BRANCH  22  25
HETATM   25  C   UNL     1      43.308 -10.457  11.247  1.00  0.00     0.081 A 
HETATM   26  O   UNL     1      42.505  -9.441  10.805  1.00  0.00    -0.324 OA
HETATM   27  C   UNL     1      42.370  -8.562  11.832  1.00  0.00     0.142 A 
HETATM   28  C   UNL     1      43.053  -9.006  12.939  1.00  0.00     0.027 A 
HETATM   29  C   UNL     1      43.659 -10.228  12.563  1.00  0.00     0.037 A 
ENDBRANCH  22  25
ENDBRANCH  21  22
ENDBRANCH  19  21
ENDBRANCH   3  19
TORSDOF 7
ENDMDL
